MODEL 1
REMARK VINA RESULT:      -7.0      0.000      0.000
REMARK  Name = 
REMARK  7 active torsions:
REMARK  status: ('A' for Active; 'I' for Inactive)
REMARK    1  A    between atoms: C_1  and  O_2
REMARK    2  A    between atoms: O_2  and  C_3
REMARK    3  A    between atoms: C_6  and  C_7
REMARK    4  A    between atoms: C_7  and  C_9
REMARK    5  A    between atoms: C_9  and  C_10
REMARK    6  A    between atoms: C_10  and  N_11
REMARK    7  A    between atoms: N_11  and  C_12
REMARK                            x       y       z     vdW  Elec       q    Type
REMARK                         _______ _______ _______ _____ _____    ______ ____
ROOT
ATOM      1  C   UNL     1       2.004   4.147  19.272  0.00  0.00    +0.000 C 
ENDROOT
BRANCH   1   2
ATOM      2  C   UNL     1       3.351   3.467  19.410  0.00  0.00    +0.000 C 
ATOM      3  O   UNL     1       3.565   2.610  20.268  0.00  0.00    +0.000 OA
BRANCH   2   7
ATOM      4  C   UNL     1       6.487   4.556  16.670  0.00  0.00    +0.000 A 
ATOM      5  C   UNL     1       5.323   3.934  16.218  0.00  0.00    +0.000 A 
ATOM      6  C   UNL     1       4.309   3.595  17.117  0.00  0.00    +0.000 A 
ATOM      7  C   UNL     1       4.457   3.857  18.485  0.00  0.00    +0.000 A 
ATOM      8  C   UNL     1       5.631   4.467  18.938  0.00  0.00    +0.000 A 
ATOM      9  C   UNL     1       6.642   4.814  18.033  0.00  0.00    +0.000 A 
BRANCH   4  11
ATOM     10  C   UNL     1       6.939   4.794  14.365  0.00  0.00    +0.000 C 
ATOM     11  O   UNL     1       7.417   4.831  15.707  0.00  0.00    +0.000 OA
ENDBRANCH   4  11
ENDBRANCH   2   7
ENDBRANCH   1   2
BRANCH   1  12
ATOM     12  C   UNL     1       1.734   5.054  20.470  0.00  0.00    +0.000 C 
BRANCH  12  13
ATOM     13  N   UNL     1       2.613   6.223  20.420  0.00  0.00    +0.000 N 
ATOM     14  H   UNL     1       3.133   6.404  21.276  0.00  0.00    +0.000 HD
BRANCH  13  15
ATOM     15  C   UNL     1       2.180   7.407  19.814  0.00  0.00    +0.000 A 
ATOM     16  C   UNL     1       2.536   7.626  18.474  0.00  0.00    +0.000 A 
ATOM     17  C   UNL     1       2.071   8.738  17.764  0.00  0.00    +0.000 A 
ATOM     18  C   UNL     1       1.232   9.655  18.388  0.00  0.00    +0.000 A 
ATOM     19  C   UNL     1       0.859   9.447  19.712  0.00  0.00    +0.000 A 
ATOM     20 CL   UNL     1      -0.177  10.582  20.490  0.00  0.00    +0.000 Cl
ATOM     21  C   UNL     1       1.313   8.326  20.415  0.00  0.00    +0.000 A 
ENDBRANCH  13  15
ENDBRANCH  12  13
ENDBRANCH   1  12
TORSDOF 6
ENDMDL
MODEL 2
REMARK VINA RESULT:      -6.9      3.134      5.408
REMARK  Name = 
REMARK  7 active torsions:
REMARK  status: ('A' for Active; 'I' for Inactive)
REMARK    1  A    between atoms: C_1  and  O_2
REMARK    2  A    between atoms: O_2  and  C_3
REMARK    3  A    between atoms: C_6  and  C_7
REMARK    4  A    between atoms: C_7  and  C_9
REMARK    5  A    between atoms: C_9  and  C_10
REMARK    6  A    between atoms: C_10  and  N_11
REMARK    7  A    between atoms: N_11  and  C_12
REMARK                            x       y       z     vdW  Elec       q    Type
REMARK                         _______ _______ _______ _____ _____    ______ ____
ROOT
ATOM      1  C   UNL     1       3.297   2.652  20.762  0.00  0.00    +0.000 C 
ENDROOT
BRANCH   1   2
ATOM      2  C   UNL     1       2.008   3.370  20.414  0.00  0.00    +0.000 C 
ATOM      3  O   UNL     1       0.906   2.923  20.733  0.00  0.00    +0.000 OA
BRANCH   2   7
ATOM      4  C   UNL     1       2.221   7.112  18.298  0.00  0.00    +0.000 A 
ATOM      5  C   UNL     1       2.363   7.063  19.684  0.00  0.00    +0.000 A 
ATOM      6  C   UNL     1       2.302   5.840  20.358  0.00  0.00    +0.000 A 
ATOM      7  C   UNL     1       2.077   4.652  19.651  0.00  0.00    +0.000 A 
ATOM      8  C   UNL     1       1.920   4.705  18.262  0.00  0.00    +0.000 A 
ATOM      9  C   UNL     1       1.990   5.931  17.590  0.00  0.00    +0.000 A 
BRANCH   4  11
ATOM     10  C   UNL     1       1.595   9.382  18.459  0.00  0.00    +0.000 C 
ATOM     11  O   UNL     1       2.285   8.360  17.746  0.00  0.00    +0.000 OA
ENDBRANCH   4  11
ENDBRANCH   2   7
ENDBRANCH   1   2
BRANCH   1  12
ATOM     12  C   UNL     1       4.075   2.301  19.496  0.00  0.00    +0.000 C 
BRANCH  12  13
ATOM     13  N   UNL     1       5.253   3.160  19.378  0.00  0.00    +0.000 N 
ATOM     14  H   UNL     1       5.605   3.527  20.259  0.00  0.00    +0.000 HD
BRANCH  13  15
ATOM     15  C   UNL     1       5.339   4.104  18.350  0.00  0.00    +0.000 A 
ATOM     16  C   UNL     1       5.627   5.432  18.701  0.00  0.00    +0.000 A 
ATOM     17  C   UNL     1       5.821   6.422  17.732  0.00  0.00    +0.000 A 
ATOM     18  C   UNL     1       5.732   6.095  16.383  0.00  0.00    +0.000 A 
ATOM     19  C   UNL     1       5.459   4.781  16.016  0.00  0.00    +0.000 A 
ATOM     20 CL   UNL     1       5.344   4.372  14.347  0.00  0.00    +0.000 Cl
ATOM     21  C   UNL     1       5.281   3.790  16.987  0.00  0.00    +0.000 A 
ENDBRANCH  13  15
ENDBRANCH  12  13
ENDBRANCH   1  12
TORSDOF 6
ENDMDL
MODEL 3
REMARK VINA RESULT:      -6.8      3.166      5.504
REMARK  Name = 
REMARK  7 active torsions:
REMARK  status: ('A' for Active; 'I' for Inactive)
REMARK    1  A    between atoms: C_1  and  O_2
REMARK    2  A    between atoms: O_2  and  C_3
REMARK    3  A    between atoms: C_6  and  C_7
REMARK    4  A    between atoms: C_7  and  C_9
REMARK    5  A    between atoms: C_9  and  C_10
REMARK    6  A    between atoms: C_10  and  N_11
REMARK    7  A    between atoms: N_11  and  C_12
REMARK                            x       y       z     vdW  Elec       q    Type
REMARK                         _______ _______ _______ _____ _____    ______ ____
ROOT
ATOM      1  C   UNL     1       3.039   2.485  20.016  0.00  0.00    +0.000 C 
ENDROOT
BRANCH   1   2
ATOM      2  C   UNL     1       1.906   3.261  19.374  0.00  0.00    +0.000 C 
ATOM      3  O   UNL     1       0.942   2.698  18.854  0.00  0.00    +0.000 OA
BRANCH   2   7
ATOM      4  C   UNL     1       2.102   7.559  19.242  0.00  0.00    +0.000 A 
ATOM      5  C   UNL     1       2.298   6.796  18.091  0.00  0.00    +0.000 A 
ATOM      6  C   UNL     1       2.221   5.402  18.146  0.00  0.00    +0.000 A 
ATOM      7  C   UNL     1       1.967   4.753  19.361  0.00  0.00    +0.000 A 
ATOM      8  C   UNL     1       1.787   5.520  20.517  0.00  0.00    +0.000 A 
ATOM      9  C   UNL     1       1.856   6.916  20.457  0.00  0.00    +0.000 A 
BRANCH   4  11
ATOM     10  C   UNL     1       1.802   9.407  17.805  0.00  0.00    +0.000 C 
ATOM     11  O   UNL     1       2.213   8.911  19.076  0.00  0.00    +0.000 OA
ENDBRANCH   4  11
ENDBRANCH   2   7
ENDBRANCH   1   2
BRANCH   1  12
ATOM     12  C   UNL     1       4.238   2.407  19.075  0.00  0.00    +0.000 C 
BRANCH  12  13
ATOM     13  N   UNL     1       5.264   3.362  19.491  0.00  0.00    +0.000 N 
ATOM     14  H   UNL     1       5.143   3.740  20.428  0.00  0.00    +0.000 HD
BRANCH  13  15
ATOM     15  C   UNL     1       5.732   4.331  18.597  0.00  0.00    +0.000 A 
ATOM     16  C   UNL     1       6.604   5.314  19.092  0.00  0.00    +0.000 A 
ATOM     17  C   UNL     1       7.190   6.265  18.250  0.00  0.00    +0.000 A 
ATOM     18  C   UNL     1       6.915   6.245  16.887  0.00  0.00    +0.000 A 
ATOM     19  C   UNL     1       6.063   5.270  16.377  0.00  0.00    +0.000 A 
ATOM     20 CL   UNL     1       5.715   5.244  14.690  0.00  0.00    +0.000 Cl
ATOM     21  C   UNL     1       5.490   4.311  17.219  0.00  0.00    +0.000 A 
ENDBRANCH  13  15
ENDBRANCH  12  13
ENDBRANCH   1  12
TORSDOF 6
ENDMDL
MODEL 4
REMARK VINA RESULT:      -6.8      1.613      2.106
REMARK  Name = 
REMARK  7 active torsions:
REMARK  status: ('A' for Active; 'I' for Inactive)
REMARK    1  A    between atoms: C_1  and  O_2
REMARK    2  A    between atoms: O_2  and  C_3
REMARK    3  A    between atoms: C_6  and  C_7
REMARK    4  A    between atoms: C_7  and  C_9
REMARK    5  A    between atoms: C_9  and  C_10
REMARK    6  A    between atoms: C_10  and  N_11
REMARK    7  A    between atoms: N_11  and  C_12
REMARK                            x       y       z     vdW  Elec       q    Type
REMARK                         _______ _______ _______ _____ _____    ______ ____
ROOT
ATOM      1  C   UNL     1       3.299   4.103  19.976  0.00  0.00    +0.000 C 
ENDROOT
BRANCH   1   2
ATOM      2  C   UNL     1       3.997   3.865  18.652  0.00  0.00    +0.000 C 
ATOM      3  O   UNL     1       3.790   2.856  17.978  0.00  0.00    +0.000 OA
BRANCH   2   7
ATOM      4  C   UNL     1       6.875   6.766  17.299  0.00  0.00    +0.000 A 
ATOM      5  C   UNL     1       7.113   5.995  18.437  0.00  0.00    +0.000 A 
ATOM      6  C   UNL     1       6.176   5.050  18.859  0.00  0.00    +0.000 A 
ATOM      7  C   UNL     1       4.976   4.879  18.157  0.00  0.00    +0.000 A 
ATOM      8  C   UNL     1       4.732   5.664  17.025  0.00  0.00    +0.000 A 
ATOM      9  C   UNL     1       5.678   6.604  16.600  0.00  0.00    +0.000 A 
BRANCH   4  11
ATOM     10  C   UNL     1       7.895   8.835  17.801  0.00  0.00    +0.000 C 
ATOM     11  O   UNL     1       7.853   7.667  16.985  0.00  0.00    +0.000 OA
ENDBRANCH   4  11
ENDBRANCH   2   7
ENDBRANCH   1   2
BRANCH   1  12
ATOM     12  C   UNL     1       2.091   5.017  19.791  0.00  0.00    +0.000 C 
BRANCH  12  13
ATOM     13  N   UNL     1       2.303   6.278  20.500  0.00  0.00    +0.000 N 
ATOM     14  H   UNL     1       2.000   6.280  21.471  0.00  0.00    +0.000 HD
BRANCH  13  15
ATOM     15  C   UNL     1       2.034   7.498  19.870  0.00  0.00    +0.000 A 
ATOM     16  C   UNL     1       2.413   7.640  18.526  0.00  0.00    +0.000 A 
ATOM     17  C   UNL     1       2.100   8.790  17.794  0.00  0.00    +0.000 A 
ATOM     18  C   UNL     1       1.394   9.824  18.399  0.00  0.00    +0.000 A 
ATOM     19  C   UNL     1       1.000   9.696  19.727  0.00  0.00    +0.000 A 
ATOM     20 CL   UNL     1       0.130  10.976  20.482  0.00  0.00    +0.000 Cl
ATOM     21  C   UNL     1       1.300   8.538  20.452  0.00  0.00    +0.000 A 
ENDBRANCH  13  15
ENDBRANCH  12  13
ENDBRANCH   1  12
TORSDOF 6
ENDMDL
MODEL 5
REMARK VINA RESULT:      -6.7      2.980      6.136
REMARK  Name = 
REMARK  7 active torsions:
REMARK  status: ('A' for Active; 'I' for Inactive)
REMARK    1  A    between atoms: C_1  and  O_2
REMARK    2  A    between atoms: O_2  and  C_3
REMARK    3  A    between atoms: C_6  and  C_7
REMARK    4  A    between atoms: C_7  and  C_9
REMARK    5  A    between atoms: C_9  and  C_10
REMARK    6  A    between atoms: C_10  and  N_11
REMARK    7  A    between atoms: N_11  and  C_12
REMARK                            x       y       z     vdW  Elec       q    Type
REMARK                         _______ _______ _______ _____ _____    ______ ____
ROOT
ATOM      1  C   UNL     1       6.017   5.902  17.992  0.00  0.00    +0.000 C 
ENDROOT
BRANCH   1   2
ATOM      2  C   UNL     1       4.833   6.458  17.226  0.00  0.00    +0.000 C 
ATOM      3  O   UNL     1       4.768   6.407  15.998  0.00  0.00    +0.000 OA
BRANCH   2   7
ATOM      4  C   UNL     1       1.614   8.374  19.347  0.00  0.00    +0.000 A 
ATOM      5  C   UNL     1       2.126   8.923  18.172  0.00  0.00    +0.000 A 
ATOM      6  C   UNL     1       3.164   8.285  17.488  0.00  0.00    +0.000 A 
ATOM      7  C   UNL     1       3.717   7.099  17.985  0.00  0.00    +0.000 A 
ATOM      8  C   UNL     1       3.212   6.558  19.172  0.00  0.00    +0.000 A 
ATOM      9  C   UNL     1       2.166   7.195  19.850  0.00  0.00    +0.000 A 
BRANCH   4  11
ATOM     10  C   UNL     1       0.351   8.767  21.303  0.00  0.00    +0.000 C 
ATOM     11  O   UNL     1       0.610   9.088  19.939  0.00  0.00    +0.000 OA
ENDBRANCH   4  11
ENDBRANCH   2   7
ENDBRANCH   1   2
BRANCH   1  12
ATOM     12  C   UNL     1       6.182   4.410  17.718  0.00  0.00    +0.000 C 
BRANCH  12  13
ATOM     13  N   UNL     1       5.676   3.634  18.850  0.00  0.00    +0.000 N 
ATOM     14  H   UNL     1       6.281   2.875  19.155  0.00  0.00    +0.000 HD
BRANCH  13  15
ATOM     15  C   UNL     1       4.325   3.279  18.916  0.00  0.00    +0.000 A 
ATOM     16  C   UNL     1       3.681   2.925  17.719  0.00  0.00    +0.000 A 
ATOM     17  C   UNL     1       2.358   2.469  17.706  0.00  0.00    +0.000 A 
ATOM     18  C   UNL     1       1.654   2.355  18.899  0.00  0.00    +0.000 A 
ATOM     19  C   UNL     1       2.280   2.690  20.096  0.00  0.00    +0.000 A 
ATOM     20 CL   UNL     1       1.410   2.555  21.576  0.00  0.00    +0.000 Cl
ATOM     21  C   UNL     1       3.607   3.131  20.108  0.00  0.00    +0.000 A 
ENDBRANCH  13  15
ENDBRANCH  12  13
ENDBRANCH   1  12
TORSDOF 6
ENDMDL
MODEL 6
REMARK VINA RESULT:      -6.7      3.161      5.413
REMARK  Name = 
REMARK  7 active torsions:
REMARK  status: ('A' for Active; 'I' for Inactive)
REMARK    1  A    between atoms: C_1  and  O_2
REMARK    2  A    between atoms: O_2  and  C_3
REMARK    3  A    between atoms: C_6  and  C_7
REMARK    4  A    between atoms: C_7  and  C_9
REMARK    5  A    between atoms: C_9  and  C_10
REMARK    6  A    between atoms: C_10  and  N_11
REMARK    7  A    between atoms: N_11  and  C_12
REMARK                            x       y       z     vdW  Elec       q    Type
REMARK                         _______ _______ _______ _____ _____    ______ ____
ROOT
ATOM      1  C   UNL     1       2.691   1.745  18.728  0.00  0.00    +0.000 C 
ENDROOT
BRANCH   1   2
ATOM      2  C   UNL     1       1.469   2.638  18.821  0.00  0.00    +0.000 C 
ATOM      3  O   UNL     1       0.327   2.195  18.699  0.00  0.00    +0.000 OA
BRANCH   2   7
ATOM      4  C   UNL     1       2.026   6.866  19.399  0.00  0.00    +0.000 A 
ATOM      5  C   UNL     1       2.074   6.304  18.124  0.00  0.00    +0.000 A 
ATOM      6  C   UNL     1       1.882   4.932  17.949  0.00  0.00    +0.000 A 
ATOM      7  C   UNL     1       1.658   4.101  19.054  0.00  0.00    +0.000 A 
ATOM      8  C   UNL     1       1.626   4.664  20.334  0.00  0.00    +0.000 A 
ATOM      9  C   UNL     1       1.811   6.041  20.504  0.00  0.00    +0.000 A 
BRANCH   4  11
ATOM     10  C   UNL     1       1.848   8.946  18.297  0.00  0.00    +0.000 C 
ATOM     11  O   UNL     1       2.241   8.215  19.454  0.00  0.00    +0.000 OA
ENDBRANCH   4  11
ENDBRANCH   2   7
ENDBRANCH   1   2
BRANCH   1  12
ATOM     12  C   UNL     1       3.969   2.566  18.872  0.00  0.00    +0.000 C 
BRANCH  12  13
ATOM     13  N   UNL     1       4.597   2.749  17.563  0.00  0.00    +0.000 N 
ATOM     14  H   UNL     1       5.082   1.931  17.203  0.00  0.00    +0.000 HD
BRANCH  13  15
ATOM     15  C   UNL     1       5.282   3.932  17.267  0.00  0.00    +0.000 A 
ATOM     16  C   UNL     1       4.929   4.619  16.095  0.00  0.00    +0.000 A 
ATOM     17  C   UNL     1       5.499   5.855  15.770  0.00  0.00    +0.000 A 
ATOM     18  C   UNL     1       6.436   6.429  16.621  0.00  0.00    +0.000 A 
ATOM     19  C   UNL     1       6.790   5.768  17.793  0.00  0.00    +0.000 A 
ATOM     20 CL   UNL     1       7.954   6.473  18.849  0.00  0.00    +0.000 Cl
ATOM     21  C   UNL     1       6.207   4.540  18.124  0.00  0.00    +0.000 A 
ENDBRANCH  13  15
ENDBRANCH  12  13
ENDBRANCH   1  12
TORSDOF 6
ENDMDL
MODEL 7
REMARK VINA RESULT:      -6.7      0.736      1.328
REMARK  Name = 
REMARK  7 active torsions:
REMARK  status: ('A' for Active; 'I' for Inactive)
REMARK    1  A    between atoms: C_1  and  O_2
REMARK    2  A    between atoms: O_2  and  C_3
REMARK    3  A    between atoms: C_6  and  C_7
REMARK    4  A    between atoms: C_7  and  C_9
REMARK    5  A    between atoms: C_9  and  C_10
REMARK    6  A    between atoms: C_10  and  N_11
REMARK    7  A    between atoms: N_11  and  C_12
REMARK                            x       y       z     vdW  Elec       q    Type
REMARK                         _______ _______ _______ _____ _____    ______ ____
ROOT
ATOM      1  C   UNL     1       2.859   4.430  20.707  0.00  0.00    +0.000 C 
ENDROOT
BRANCH   1   2
ATOM      2  C   UNL     1       2.968   3.601  19.443  0.00  0.00    +0.000 C 
ATOM      3  O   UNL     1       2.164   2.706  19.179  0.00  0.00    +0.000 OA
BRANCH   2   7
ATOM      4  C   UNL     1       6.258   4.407  16.788  0.00  0.00    +0.000 A 
ATOM      5  C   UNL     1       6.345   4.703  18.148  0.00  0.00    +0.000 A 
ATOM      6  C   UNL     1       5.273   4.426  19.001  0.00  0.00    +0.000 A 
ATOM      7  C   UNL     1       4.092   3.868  18.496  0.00  0.00    +0.000 A 
ATOM      8  C   UNL     1       4.001   3.587  17.129  0.00  0.00    +0.000 A 
ATOM      9  C   UNL     1       5.080   3.856  16.280  0.00  0.00    +0.000 A 
BRANCH   4  11
ATOM     10  C   UNL     1       7.121   4.952  14.659  0.00  0.00    +0.000 C 
ATOM     11  O   UNL     1       7.359   4.731  16.046  0.00  0.00    +0.000 OA
ENDBRANCH   4  11
ENDBRANCH   2   7
ENDBRANCH   1   2
BRANCH   1  12
ATOM     12  C   UNL     1       1.626   5.328  20.657  0.00  0.00    +0.000 C 
BRANCH  12  13
ATOM     13  N   UNL     1       1.998   6.707  20.976  0.00  0.00    +0.000 N 
ATOM     14  H   UNL     1       1.683   7.036  21.886  0.00  0.00    +0.000 HD
BRANCH  13  15
ATOM     15  C   UNL     1       1.906   7.707  20.002  0.00  0.00    +0.000 A 
ATOM     16  C   UNL     1       2.496   7.462  18.752  0.00  0.00    +0.000 A 
ATOM     17  C   UNL     1       2.373   8.368  17.693  0.00  0.00    +0.000 A 
ATOM     18  C   UNL     1       1.648   9.541  17.868  0.00  0.00    +0.000 A 
ATOM     19  C   UNL     1       1.046   9.795  19.096  0.00  0.00    +0.000 A 
ATOM     20 CL   UNL     1       0.151  11.249  19.319  0.00  0.00    +0.000 Cl
ATOM     21  C   UNL     1       1.157   8.881  20.149  0.00  0.00    +0.000 A 
ENDBRANCH  13  15
ENDBRANCH  12  13
ENDBRANCH   1  12
TORSDOF 6
ENDMDL
MODEL 8
REMARK VINA RESULT:      -6.7      3.092      5.630
REMARK  Name = 
REMARK  7 active torsions:
REMARK  status: ('A' for Active; 'I' for Inactive)
REMARK    1  A    between atoms: C_1  and  O_2
REMARK    2  A    between atoms: O_2  and  C_3
REMARK    3  A    between atoms: C_6  and  C_7
REMARK    4  A    between atoms: C_7  and  C_9
REMARK    5  A    between atoms: C_9  and  C_10
REMARK    6  A    between atoms: C_10  and  N_11
REMARK    7  A    between atoms: N_11  and  C_12
REMARK                            x       y       z     vdW  Elec       q    Type
REMARK                         _______ _______ _______ _____ _____    ______ ____
ROOT
ATOM      1  C   UNL     1       2.567   3.028  19.500  0.00  0.00    +0.000 C 
ENDROOT
BRANCH   1   2
ATOM      2  C   UNL     1       2.319   4.204  20.423  0.00  0.00    +0.000 C 
ATOM      3  O   UNL     1       2.174   4.062  21.637  0.00  0.00    +0.000 OA
BRANCH   2   7
ATOM      4  C   UNL     1       2.049   8.193  18.827  0.00  0.00    +0.000 A 
ATOM      5  C   UNL     1       1.772   7.937  20.170  0.00  0.00    +0.000 A 
ATOM      6  C   UNL     1       1.874   6.640  20.677  0.00  0.00    +0.000 A 
ATOM      7  C   UNL     1       2.234   5.577  19.839  0.00  0.00    +0.000 A 
ATOM      8  C   UNL     1       2.496   5.833  18.489  0.00  0.00    +0.000 A 
ATOM      9  C   UNL     1       2.402   7.136  17.987  0.00  0.00    +0.000 A 
BRANCH   4  11
ATOM     10  C   UNL     1       0.566   9.977  18.389  0.00  0.00    +0.000 C 
ATOM     11  O   UNL     1       1.906   9.495  18.437  0.00  0.00    +0.000 OA
ENDBRANCH   4  11
ENDBRANCH   2   7
ENDBRANCH   1   2
BRANCH   1  12
ATOM     12  C   UNL     1       4.061   2.732  19.396  0.00  0.00    +0.000 C 
BRANCH  12  13
ATOM     13  N   UNL     1       4.487   2.789  17.998  0.00  0.00    +0.000 N 
ATOM     14  H   UNL     1       4.857   1.916  17.627  0.00  0.00    +0.000 HD
BRANCH  13  15
ATOM     15  C   UNL     1       5.193   3.897  17.519  0.00  0.00    +0.000 A 
ATOM     16  C   UNL     1       4.851   4.395  16.252  0.00  0.00    +0.000 A 
ATOM     17  C   UNL     1       5.442   5.554  15.735  0.00  0.00    +0.000 A 
ATOM     18  C   UNL     1       6.390   6.240  16.486  0.00  0.00    +0.000 A 
ATOM     19  C   UNL     1       6.732   5.767  17.749  0.00  0.00    +0.000 A 
ATOM     20 CL   UNL     1       7.909   6.611  18.681  0.00  0.00    +0.000 Cl
ATOM     21  C   UNL     1       6.129   4.618  18.270  0.00  0.00    +0.000 A 
ENDBRANCH  13  15
ENDBRANCH  12  13
ENDBRANCH   1  12
TORSDOF 6
ENDMDL
MODEL 9
REMARK VINA RESULT:      -6.6      3.409      4.710
REMARK  Name = 
REMARK  7 active torsions:
REMARK  status: ('A' for Active; 'I' for Inactive)
REMARK    1  A    between atoms: C_1  and  O_2
REMARK    2  A    between atoms: O_2  and  C_3
REMARK    3  A    between atoms: C_6  and  C_7
REMARK    4  A    between atoms: C_7  and  C_9
REMARK    5  A    between atoms: C_9  and  C_10
REMARK    6  A    between atoms: C_10  and  N_11
REMARK    7  A    between atoms: N_11  and  C_12
REMARK                            x       y       z     vdW  Elec       q    Type
REMARK                         _______ _______ _______ _____ _____    ______ ____
ROOT
ATOM      1  C   UNL     1       6.769   6.562  17.266  0.00  0.00    +0.000 C 
ENDROOT
BRANCH   1   2
ATOM      2  C   UNL     1       7.209   5.192  16.791  0.00  0.00    +0.000 C 
ATOM      3  O   UNL     1       7.916   4.458  17.482  0.00  0.00    +0.000 OA
BRANCH   2   7
ATOM      4  C   UNL     1       5.902   3.797  12.934  0.00  0.00    +0.000 A 
ATOM      5  C   UNL     1       5.170   3.512  14.086  0.00  0.00    +0.000 A 
ATOM      6  C   UNL     1       5.599   3.980  15.331  0.00  0.00    +0.000 A 
ATOM      7  C   UNL     1       6.782   4.722  15.439  0.00  0.00    +0.000 A 
ATOM      8  C   UNL     1       7.523   4.994  14.284  0.00  0.00    +0.000 A 
ATOM      9  C   UNL     1       7.085   4.532  13.038  0.00  0.00    +0.000 A 
BRANCH   4  11
ATOM     10  C   UNL     1       5.765   1.932  11.493  0.00  0.00    +0.000 C 
ATOM     11  O   UNL     1       5.397   3.280  11.775  0.00  0.00    +0.000 OA
ENDBRANCH   4  11
ENDBRANCH   2   7
ENDBRANCH   1   2
BRANCH   1  12
ATOM     12  C   UNL     1       5.300   6.542  17.680  0.00  0.00    +0.000 C 
BRANCH  12  13
ATOM     13  N   UNL     1       5.071   5.481  18.660  0.00  0.00    +0.000 N 
ATOM     14  H   UNL     1       5.800   4.774  18.704  0.00  0.00    +0.000 HD
BRANCH  13  15
ATOM     15  C   UNL     1       3.797   4.923  18.812  0.00  0.00    +0.000 A 
ATOM     16  C   UNL     1       2.944   4.919  17.697  0.00  0.00    +0.000 A 
ATOM     17  C   UNL     1       1.690   4.300  17.735  0.00  0.00    +0.000 A 
ATOM     18  C   UNL     1       1.266   3.668  18.899  0.00  0.00    +0.000 A 
ATOM     19  C   UNL     1       2.103   3.653  20.010  0.00  0.00    +0.000 A 
ATOM     20 CL   UNL     1       1.581   2.874  21.455  0.00  0.00    +0.000 Cl
ATOM     21  C   UNL     1       3.363   4.258  19.965  0.00  0.00    +0.000 A 
ENDBRANCH  13  15
ENDBRANCH  12  13
ENDBRANCH   1  12
TORSDOF 6
ENDMDL
