MODEL 1
REMARK VINA RESULT:      -6.3      0.000      0.000
REMARK  Name = 
REMARK  7 active torsions:
REMARK  status: ('A' for Active; 'I' for Inactive)
REMARK    1  A    between atoms: C_1  and  O_2
REMARK    2  A    between atoms: O_2  and  C_3
REMARK    3  A    between atoms: C_3  and  C_5
REMARK    4  A    between atoms: C_10  and  S_11
REMARK    5  A    between atoms: S_11  and  N_14
REMARK    6  A    between atoms: N_14  and  C_15
REMARK    7  A    between atoms: C_15  and  C_16
REMARK                            x       y       z     vdW  Elec       q    Type
REMARK                         _______ _______ _______ _____ _____    ______ ____
ROOT
ATOM      1  C   UNL     1       4.254   4.890  18.254  0.00  0.00    +0.000 A 
ATOM      2  C   UNL     1       3.003   5.449  18.588  0.00  0.00    +0.000 A 
ATOM      3  C   UNL     1       2.680   6.756  18.227  0.00  0.00    +0.000 A 
ATOM      4  C   UNL     1       3.604   7.532  17.537  0.00  0.00    +0.000 A 
ATOM      5  C   UNL     1       4.855   7.002  17.213  0.00  0.00    +0.000 A 
ATOM      6  C   UNL     1       5.193   5.689  17.581  0.00  0.00    +0.000 A 
ENDROOT
BRANCH   6   7
ATOM      7  S   UNL     1       6.752   5.052  17.019  0.00  0.00    +0.000 S 
ATOM      8  O   UNL     1       7.411   6.113  16.293  0.00  0.00    +0.000 OA
ATOM      9  O   UNL     1       7.410   4.403  18.133  0.00  0.00    +0.000 OA
BRANCH   7  10
ATOM     10  N   UNL     1       6.388   3.845  15.930  0.00  0.00    +0.000 NA
ATOM     11  H   UNL     1       6.518   2.903  16.298  0.00  0.00    +0.000 HD
BRANCH  10  12
ATOM     12  C   UNL     1       5.476   4.082  14.810  0.00  0.00    +0.000 C 
BRANCH  12  13
ATOM     13  C   UNL     1       6.133   3.837  13.461  0.00  0.00    +0.000 C 
ATOM     14  N   UNL     1       6.677   3.633  12.342  0.00  0.00    +0.000 NA
ENDBRANCH  12  13
ENDBRANCH  10  12
ENDBRANCH   7  10
ENDBRANCH   6   7
BRANCH   1  15
ATOM     15  C   UNL     1       4.522   3.485  18.660  0.00  0.00    +0.000 C 
ATOM     16  O   UNL     1       5.031   3.149  19.714  0.00  0.00    +0.000 OA
BRANCH  15  18
ATOM     17  C   UNL     1       2.886   1.915  17.993  0.00  0.00    +0.000 C 
ATOM     18  O   UNL     1       4.066   2.659  17.684  0.00  0.00    +0.000 OA
ENDBRANCH  15  18
ENDBRANCH   1  15
TORSDOF 6
ENDMDL
MODEL 2
REMARK VINA RESULT:      -6.1      2.553      4.227
REMARK  Name = 
REMARK  7 active torsions:
REMARK  status: ('A' for Active; 'I' for Inactive)
REMARK    1  A    between atoms: C_1  and  O_2
REMARK    2  A    between atoms: O_2  and  C_3
REMARK    3  A    between atoms: C_3  and  C_5
REMARK    4  A    between atoms: C_10  and  S_11
REMARK    5  A    between atoms: S_11  and  N_14
REMARK    6  A    between atoms: N_14  and  C_15
REMARK    7  A    between atoms: C_15  and  C_16
REMARK                            x       y       z     vdW  Elec       q    Type
REMARK                         _______ _______ _______ _____ _____    ______ ____
ROOT
ATOM      1  C   UNL     1       4.976   4.616  16.772  0.00  0.00    +0.000 A 
ATOM      2  C   UNL     1       3.608   4.299  16.898  0.00  0.00    +0.000 A 
ATOM      3  C   UNL     1       3.043   4.037  18.145  0.00  0.00    +0.000 A 
ATOM      4  C   UNL     1       3.836   4.075  19.286  0.00  0.00    +0.000 A 
ATOM      5  C   UNL     1       5.197   4.368  19.179  0.00  0.00    +0.000 A 
ATOM      6  C   UNL     1       5.778   4.625  17.925  0.00  0.00    +0.000 A 
ENDROOT
BRANCH   6   7
ATOM      7  S   UNL     1       7.483   5.116  17.894  0.00  0.00    +0.000 S 
ATOM      8  O   UNL     1       7.864   5.432  19.251  0.00  0.00    +0.000 OA
ATOM      9  O   UNL     1       8.227   4.136  17.131  0.00  0.00    +0.000 OA
BRANCH   7  10
ATOM     10  N   UNL     1       7.538   6.527  17.011  0.00  0.00    +0.000 NA
ATOM     11  H   UNL     1       7.671   6.385  16.009  0.00  0.00    +0.000 HD
BRANCH  10  12
ATOM     12  C   UNL     1       6.919   7.757  17.506  0.00  0.00    +0.000 C 
BRANCH  12  13
ATOM     13  C   UNL     1       7.945   8.804  17.910  0.00  0.00    +0.000 C 
ATOM     14  N   UNL     1       8.795   9.673  18.246  0.00  0.00    +0.000 NA
ENDBRANCH  12  13
ENDBRANCH  10  12
ENDBRANCH   7  10
ENDBRANCH   6   7
BRANCH   1  15
ATOM     15  C   UNL     1       5.506   4.898  15.411  0.00  0.00    +0.000 C 
ATOM     16  O   UNL     1       5.572   6.003  14.903  0.00  0.00    +0.000 OA
BRANCH  15  18
ATOM     17  C   UNL     1       6.230   3.765  13.468  0.00  0.00    +0.000 C 
ATOM     18  O   UNL     1       5.935   3.731  14.865  0.00  0.00    +0.000 OA
ENDBRANCH  15  18
ENDBRANCH   1  15
TORSDOF 6
ENDMDL
MODEL 3
REMARK VINA RESULT:      -6.0      1.919      2.460
REMARK  Name = 
REMARK  7 active torsions:
REMARK  status: ('A' for Active; 'I' for Inactive)
REMARK    1  A    between atoms: C_1  and  O_2
REMARK    2  A    between atoms: O_2  and  C_3
REMARK    3  A    between atoms: C_3  and  C_5
REMARK    4  A    between atoms: C_10  and  S_11
REMARK    5  A    between atoms: S_11  and  N_14
REMARK    6  A    between atoms: N_14  and  C_15
REMARK    7  A    between atoms: C_15  and  C_16
REMARK                            x       y       z     vdW  Elec       q    Type
REMARK                         _______ _______ _______ _____ _____    ______ ____
ROOT
ATOM      1  C   UNL     1       2.767   5.627  18.891  0.00  0.00    +0.000 A 
ATOM      2  C   UNL     1       2.155   6.895  18.817  0.00  0.00    +0.000 A 
ATOM      3  C   UNL     1       2.698   7.911  18.033  0.00  0.00    +0.000 A 
ATOM      4  C   UNL     1       3.868   7.683  17.317  0.00  0.00    +0.000 A 
ATOM      5  C   UNL     1       4.499   6.440  17.393  0.00  0.00    +0.000 A 
ATOM      6  C   UNL     1       3.964   5.412  18.188  0.00  0.00    +0.000 A 
ENDROOT
BRANCH   6   7
ATOM      7  S   UNL     1       4.757   3.826  18.125  0.00  0.00    +0.000 S 
ATOM      8  O   UNL     1       5.239   3.534  19.455  0.00  0.00    +0.000 OA
ATOM      9  O   UNL     1       3.878   2.901  17.442  0.00  0.00    +0.000 OA
BRANCH   7  10
ATOM     10  N   UNL     1       6.085   4.016  17.137  0.00  0.00    +0.000 NA
ATOM     11  H   UNL     1       6.978   3.954  17.626  0.00  0.00    +0.000 HD
BRANCH  10  12
ATOM     12  C   UNL     1       6.009   3.745  15.701  0.00  0.00    +0.000 C 
BRANCH  12  13
ATOM     13  C   UNL     1       6.908   4.660  14.886  0.00  0.00    +0.000 C 
ATOM     14  N   UNL     1       7.654   5.419  14.209  0.00  0.00    +0.000 NA
ENDBRANCH  12  13
ENDBRANCH  10  12
ENDBRANCH   7  10
ENDBRANCH   6   7
BRANCH   1  15
ATOM     15  C   UNL     1       2.123   4.588  19.737  0.00  0.00    +0.000 C 
ATOM     16  O   UNL     1       2.388   4.378  20.907  0.00  0.00    +0.000 OA
BRANCH  15  18
ATOM     17  C   UNL     1       0.928   2.590  19.330  0.00  0.00    +0.000 C 
ATOM     18  O   UNL     1       1.173   3.958  19.000  0.00  0.00    +0.000 OA
ENDBRANCH  15  18
ENDBRANCH   1  15
TORSDOF 6
ENDMDL
MODEL 4
REMARK VINA RESULT:      -5.9      2.807      3.424
REMARK  Name = 
REMARK  7 active torsions:
REMARK  status: ('A' for Active; 'I' for Inactive)
REMARK    1  A    between atoms: C_1  and  O_2
REMARK    2  A    between atoms: O_2  and  C_3
REMARK    3  A    between atoms: C_3  and  C_5
REMARK    4  A    between atoms: C_10  and  S_11
REMARK    5  A    between atoms: S_11  and  N_14
REMARK    6  A    between atoms: N_14  and  C_15
REMARK    7  A    between atoms: C_15  and  C_16
REMARK                            x       y       z     vdW  Elec       q    Type
REMARK                         _______ _______ _______ _____ _____    ______ ____
ROOT
ATOM      1  C   UNL     1       2.389   4.153  20.370  0.00  0.00    +0.000 A 
ATOM      2  C   UNL     1       1.494   5.175  20.744  0.00  0.00    +0.000 A 
ATOM      3  C   UNL     1       1.683   6.489  20.316  0.00  0.00    +0.000 A 
ATOM      4  C   UNL     1       2.774   6.806  19.517  0.00  0.00    +0.000 A 
ATOM      5  C   UNL     1       3.682   5.810  19.151  0.00  0.00    +0.000 A 
ATOM      6  C   UNL     1       3.506   4.485  19.585  0.00  0.00    +0.000 A 
ENDROOT
BRANCH   6   7
ATOM      7  S   UNL     1       4.633   3.261  18.969  0.00  0.00    +0.000 S 
ATOM      8  O   UNL     1       5.020   2.433  20.088  0.00  0.00    +0.000 OA
ATOM      9  O   UNL     1       4.060   2.668  17.780  0.00  0.00    +0.000 OA
BRANCH   7  10
ATOM     10  N   UNL     1       5.984   4.095  18.465  0.00  0.00    +0.000 NA
ATOM     11  H   UNL     1       6.769   4.044  19.115  0.00  0.00    +0.000 HD
BRANCH  10  12
ATOM     12  C   UNL     1       6.216   4.380  17.049  0.00  0.00    +0.000 C 
BRANCH  12  13
ATOM     13  C   UNL     1       6.949   5.694  16.831  0.00  0.00    +0.000 C 
ATOM     14  N   UNL     1       7.556   6.785  16.651  0.00  0.00    +0.000 NA
ENDBRANCH  12  13
ENDBRANCH  10  12
ENDBRANCH   7  10
ENDBRANCH   6   7
BRANCH   1  15
ATOM     15  C   UNL     1       2.116   2.773  20.853  0.00  0.00    +0.000 C 
ATOM     16  O   UNL     1       2.202   2.411  22.013  0.00  0.00    +0.000 OA
BRANCH  15  18
ATOM     17  C   UNL     1       0.651   2.549  19.013  0.00  0.00    +0.000 C 
ATOM     18  O   UNL     1       1.718   2.017  19.799  0.00  0.00    +0.000 OA
ENDBRANCH  15  18
ENDBRANCH   1  15
TORSDOF 6
ENDMDL
MODEL 5
REMARK VINA RESULT:      -5.9      3.456      4.881
REMARK  Name = 
REMARK  7 active torsions:
REMARK  status: ('A' for Active; 'I' for Inactive)
REMARK    1  A    between atoms: C_1  and  O_2
REMARK    2  A    between atoms: O_2  and  C_3
REMARK    3  A    between atoms: C_3  and  C_5
REMARK    4  A    between atoms: C_10  and  S_11
REMARK    5  A    between atoms: S_11  and  N_14
REMARK    6  A    between atoms: N_14  and  C_15
REMARK    7  A    between atoms: C_15  and  C_16
REMARK                            x       y       z     vdW  Elec       q    Type
REMARK                         _______ _______ _______ _____ _____    ______ ____
ROOT
ATOM      1  C   UNL     1       5.328   4.678  18.079  0.00  0.00    +0.000 A 
ATOM      2  C   UNL     1       6.658   4.639  17.612  0.00  0.00    +0.000 A 
ATOM      3  C   UNL     1       7.256   5.765  17.050  0.00  0.00    +0.000 A 
ATOM      4  C   UNL     1       6.534   6.947  16.932  0.00  0.00    +0.000 A 
ATOM      5  C   UNL     1       5.210   7.000  17.371  0.00  0.00    +0.000 A 
ATOM      6  C   UNL     1       4.595   5.867  17.932  0.00  0.00    +0.000 A 
ENDROOT
BRANCH   6   7
ATOM      7  S   UNL     1       2.954   6.058  18.580  0.00  0.00    +0.000 S 
ATOM      8  O   UNL     1       2.674   7.474  18.628  0.00  0.00    +0.000 OA
ATOM      9  O   UNL     1       2.073   5.158  17.868  0.00  0.00    +0.000 OA
BRANCH   7  10
ATOM     10  N   UNL     1       3.014   5.501  20.149  0.00  0.00    +0.000 NA
ATOM     11  H   UNL     1       3.812   5.848  20.682  0.00  0.00    +0.000 HD
BRANCH  10  12
ATOM     12  C   UNL     1       1.808   5.042  20.839  0.00  0.00    +0.000 C 
BRANCH  12  13
ATOM     13  C   UNL     1       1.979   3.664  21.458  0.00  0.00    +0.000 C 
ATOM     14  N   UNL     1       2.122   2.521  21.972  0.00  0.00    +0.000 NA
ENDBRANCH  12  13
ENDBRANCH  10  12
ENDBRANCH   7  10
ENDBRANCH   6   7
BRANCH   1  15
ATOM     15  C   UNL     1       4.762   3.442  18.680  0.00  0.00    +0.000 C 
ATOM     16  O   UNL     1       4.897   3.106  19.843  0.00  0.00    +0.000 OA
BRANCH  15  18
ATOM     17  C   UNL     1       3.125   1.805  18.205  0.00  0.00    +0.000 C 
ATOM     18  O   UNL     1       4.043   2.790  17.730  0.00  0.00    +0.000 OA
ENDBRANCH  15  18
ENDBRANCH   1  15
TORSDOF 6
ENDMDL
MODEL 6
REMARK VINA RESULT:      -5.9      2.213      3.469
REMARK  Name = 
REMARK  7 active torsions:
REMARK  status: ('A' for Active; 'I' for Inactive)
REMARK    1  A    between atoms: C_1  and  O_2
REMARK    2  A    between atoms: O_2  and  C_3
REMARK    3  A    between atoms: C_3  and  C_5
REMARK    4  A    between atoms: C_10  and  S_11
REMARK    5  A    between atoms: S_11  and  N_14
REMARK    6  A    between atoms: N_14  and  C_15
REMARK    7  A    between atoms: C_15  and  C_16
REMARK                            x       y       z     vdW  Elec       q    Type
REMARK                         _______ _______ _______ _____ _____    ______ ____
ROOT
ATOM      1  C   UNL     1       2.594   4.846  18.609  0.00  0.00    +0.000 A 
ATOM      2  C   UNL     1       1.446   4.027  18.619  0.00  0.00    +0.000 A 
ATOM      3  C   UNL     1       1.520   2.681  18.261  0.00  0.00    +0.000 A 
ATOM      4  C   UNL     1       2.737   2.134  17.875  0.00  0.00    +0.000 A 
ATOM      5  C   UNL     1       3.881   2.934  17.839  0.00  0.00    +0.000 A 
ATOM      6  C   UNL     1       3.815   4.293  18.190  0.00  0.00    +0.000 A 
ENDROOT
BRANCH   6   7
ATOM      7  S   UNL     1       5.337   5.204  18.243  0.00  0.00    +0.000 S 
ATOM      8  O   UNL     1       5.185   6.344  17.369  0.00  0.00    +0.000 OA
ATOM      9  O   UNL     1       5.716   5.384  19.628  0.00  0.00    +0.000 OA
BRANCH   7  10
ATOM     10  N   UNL     1       6.491   4.205  17.575  0.00  0.00    +0.000 NA
ATOM     11  H   UNL     1       6.348   3.215  17.774  0.00  0.00    +0.000 HD
BRANCH  10  12
ATOM     12  C   UNL     1       7.269   4.619  16.406  0.00  0.00    +0.000 C 
BRANCH  12  13
ATOM     13  C   UNL     1       6.625   4.191  15.096  0.00  0.00    +0.000 C 
ATOM     14  N   UNL     1       6.092   3.835  14.010  0.00  0.00    +0.000 NA
ENDBRANCH  12  13
ENDBRANCH  10  12
ENDBRANCH   7  10
ENDBRANCH   6   7
BRANCH   1  15
ATOM     15  C   UNL     1       2.441   6.267  19.017  0.00  0.00    +0.000 C 
ATOM     16  O   UNL     1       2.554   6.682  20.157  0.00  0.00    +0.000 OA
BRANCH  15  18
ATOM     17  C   UNL     1       2.269   8.429  18.077  0.00  0.00    +0.000 C 
ATOM     18  O   UNL     1       2.203   7.012  17.908  0.00  0.00    +0.000 OA
ENDBRANCH  15  18
ENDBRANCH   1  15
TORSDOF 6
ENDMDL
MODEL 7
REMARK VINA RESULT:      -5.9      2.102      3.057
REMARK  Name = 
REMARK  7 active torsions:
REMARK  status: ('A' for Active; 'I' for Inactive)
REMARK    1  A    between atoms: C_1  and  O_2
REMARK    2  A    between atoms: O_2  and  C_3
REMARK    3  A    between atoms: C_3  and  C_5
REMARK    4  A    between atoms: C_10  and  S_11
REMARK    5  A    between atoms: S_11  and  N_14
REMARK    6  A    between atoms: N_14  and  C_15
REMARK    7  A    between atoms: C_15  and  C_16
REMARK                            x       y       z     vdW  Elec       q    Type
REMARK                         _______ _______ _______ _____ _____    ______ ____
ROOT
ATOM      1  C   UNL     1       3.513   4.966  17.956  0.00  0.00    +0.000 A 
ATOM      2  C   UNL     1       2.538   5.614  18.741  0.00  0.00    +0.000 A 
ATOM      3  C   UNL     1       2.370   6.997  18.682  0.00  0.00    +0.000 A 
ATOM      4  C   UNL     1       3.179   7.757  17.846  0.00  0.00    +0.000 A 
ATOM      5  C   UNL     1       4.163   7.135  17.075  0.00  0.00    +0.000 A 
ATOM      6  C   UNL     1       4.347   5.743  17.135  0.00  0.00    +0.000 A 
ENDROOT
BRANCH   6   7
ATOM      7  S   UNL     1       5.531   5.021  16.027  0.00  0.00    +0.000 S 
ATOM      8  O   UNL     1       4.802   4.171  15.115  0.00  0.00    +0.000 OA
ATOM      9  O   UNL     1       6.389   6.074  15.525  0.00  0.00    +0.000 OA
BRANCH   7  10
ATOM     10  N   UNL     1       6.499   4.044  16.966  0.00  0.00    +0.000 NA
ATOM     11  H   UNL     1       6.355   3.046  16.810  0.00  0.00    +0.000 HD
BRANCH  10  12
ATOM     12  C   UNL     1       7.765   4.530  17.515  0.00  0.00    +0.000 C 
BRANCH  12  13
ATOM     13  C   UNL     1       7.610   5.114  18.910  0.00  0.00    +0.000 C 
ATOM     14  N   UNL     1       7.482   5.597  20.068  0.00  0.00    +0.000 NA
ENDBRANCH  12  13
ENDBRANCH  10  12
ENDBRANCH   7  10
ENDBRANCH   6   7
BRANCH   1  15
ATOM     15  C   UNL     1       3.626   3.487  18.062  0.00  0.00    +0.000 C 
ATOM     16  O   UNL     1       2.971   2.689  17.415  0.00  0.00    +0.000 OA
BRANCH  15  18
ATOM     17  C   UNL     1       4.227   2.327  20.031  0.00  0.00    +0.000 C 
ATOM     18  O   UNL     1       4.602   3.191  18.958  0.00  0.00    +0.000 OA
ENDBRANCH  15  18
ENDBRANCH   1  15
TORSDOF 6
ENDMDL
MODEL 8
REMARK VINA RESULT:      -5.8      2.116      2.510
REMARK  Name = 
REMARK  7 active torsions:
REMARK  status: ('A' for Active; 'I' for Inactive)
REMARK    1  A    between atoms: C_1  and  O_2
REMARK    2  A    between atoms: O_2  and  C_3
REMARK    3  A    between atoms: C_3  and  C_5
REMARK    4  A    between atoms: C_10  and  S_11
REMARK    5  A    between atoms: S_11  and  N_14
REMARK    6  A    between atoms: N_14  and  C_15
REMARK    7  A    between atoms: C_15  and  C_16
REMARK                            x       y       z     vdW  Elec       q    Type
REMARK                         _______ _______ _______ _____ _____    ______ ____
ROOT
ATOM      1  C   UNL     1       3.318   3.503  19.871  0.00  0.00    +0.000 A 
ATOM      2  C   UNL     1       2.035   3.345  20.433  0.00  0.00    +0.000 A 
ATOM      3  C   UNL     1       1.203   4.443  20.644  0.00  0.00    +0.000 A 
ATOM      4  C   UNL     1       1.641   5.719  20.309  0.00  0.00    +0.000 A 
ATOM      5  C   UNL     1       2.916   5.897  19.768  0.00  0.00    +0.000 A 
ATOM      6  C   UNL     1       3.766   4.797  19.560  0.00  0.00    +0.000 A 
ENDROOT
BRANCH   6   7
ATOM      7  S   UNL     1       5.317   5.098  18.751  0.00  0.00    +0.000 S 
ATOM      8  O   UNL     1       5.165   6.301  17.966  0.00  0.00    +0.000 OA
ATOM      9  O   UNL     1       6.374   4.990  19.734  0.00  0.00    +0.000 OA
BRANCH   7  10
ATOM     10  N   UNL     1       5.536   3.829  17.694  0.00  0.00    +0.000 NA
ATOM     11  H   UNL     1       5.397   2.910  18.116  0.00  0.00    +0.000 HD
BRANCH  10  12
ATOM     12  C   UNL     1       5.387   4.009  16.250  0.00  0.00    +0.000 C 
BRANCH  12  13
ATOM     13  C   UNL     1       6.601   4.668  15.616  0.00  0.00    +0.000 C 
ATOM     14  N   UNL     1       7.608   5.216  15.090  0.00  0.00    +0.000 NA
ENDBRANCH  12  13
ENDBRANCH  10  12
ENDBRANCH   7  10
ENDBRANCH   6   7
BRANCH   1  15
ATOM     15  C   UNL     1       4.145   2.284  19.662  0.00  0.00    +0.000 C 
ATOM     16  O   UNL     1       5.199   2.051  20.226  0.00  0.00    +0.000 OA
BRANCH  15  18
ATOM     17  C   UNL     1       2.732   2.127  17.774  0.00  0.00    +0.000 C 
ATOM     18  O   UNL     1       3.504   1.473  18.782  0.00  0.00    +0.000 OA
ENDBRANCH  15  18
ENDBRANCH   1  15
TORSDOF 6
ENDMDL
MODEL 9
REMARK VINA RESULT:      -5.8      2.009      3.927
REMARK  Name = 
REMARK  7 active torsions:
REMARK  status: ('A' for Active; 'I' for Inactive)
REMARK    1  A    between atoms: C_1  and  O_2
REMARK    2  A    between atoms: O_2  and  C_3
REMARK    3  A    between atoms: C_3  and  C_5
REMARK    4  A    between atoms: C_10  and  S_11
REMARK    5  A    between atoms: S_11  and  N_14
REMARK    6  A    between atoms: N_14  and  C_15
REMARK    7  A    between atoms: C_15  and  C_16
REMARK                            x       y       z     vdW  Elec       q    Type
REMARK                         _______ _______ _______ _____ _____    ______ ____
ROOT
ATOM      1  C   UNL     1       4.301   6.333  17.574  0.00  0.00    +0.000 A 
ATOM      2  C   UNL     1       3.504   7.495  17.544  0.00  0.00    +0.000 A 
ATOM      3  C   UNL     1       2.552   7.740  18.532  0.00  0.00    +0.000 A 
ATOM      4  C   UNL     1       2.372   6.824  19.562  0.00  0.00    +0.000 A 
ATOM      5  C   UNL     1       3.138   5.658  19.598  0.00  0.00    +0.000 A 
ATOM      6  C   UNL     1       4.094   5.398  18.601  0.00  0.00    +0.000 A 
ENDROOT
BRANCH   6   7
ATOM      7  S   UNL     1       5.113   3.958  18.795  0.00  0.00    +0.000 S 
ATOM      8  O   UNL     1       6.465   4.341  18.459  0.00  0.00    +0.000 OA
ATOM      9  O   UNL     1       4.817   3.356  20.077  0.00  0.00    +0.000 OA
BRANCH   7  10
ATOM     10  N   UNL     1       4.595   2.871  17.643  0.00  0.00    +0.000 NA
ATOM     11  H   UNL     1       5.251   2.738  16.874  0.00  0.00    +0.000 HD
BRANCH  10  12
ATOM     12  C   UNL     1       3.613   1.835  17.965  0.00  0.00    +0.000 C 
BRANCH  12  13
ATOM     13  C   UNL     1       2.199   2.383  18.069  0.00  0.00    +0.000 C 
ATOM     14  N   UNL     1       1.026   2.838  18.155  0.00  0.00    +0.000 NA
ENDBRANCH  12  13
ENDBRANCH  10  12
ENDBRANCH   7  10
ENDBRANCH   6   7
BRANCH   1  15
ATOM     15  C   UNL     1       5.305   6.146  16.493  0.00  0.00    +0.000 C 
ATOM     16  O   UNL     1       6.352   6.762  16.399  0.00  0.00    +0.000 OA
BRANCH  15  18
ATOM     17  C   UNL     1       5.829   4.667  14.726  0.00  0.00    +0.000 C 
ATOM     18  O   UNL     1       4.877   5.154  15.672  0.00  0.00    +0.000 OA
ENDBRANCH  15  18
ENDBRANCH   1  15
TORSDOF 6
ENDMDL
