MODEL 1
REMARK VINA RESULT:      -8.1      0.000      0.000
REMARK  Name = 
REMARK  5 active torsions:
REMARK  status: ('A' for Active; 'I' for Inactive)
REMARK    1  A    between atoms: C_1  and  C_2
REMARK    2  A    between atoms: C_2  and  C_3
REMARK    3  A    between atoms: C_2  and  C_4
REMARK    4  A    between atoms: C_9  and  C_11
REMARK    5  A    between atoms: C_12  and  O_13
REMARK                            x       y       z     vdW  Elec       q    Type
REMARK                         _______ _______ _______ _____ _____    ______ ____
ROOT
ATOM      1  C   UNL     1       1.808   8.121  19.424  0.00  0.00    +0.000 A 
ATOM      2  C   UNL     1       1.410   8.052  20.723  0.00  0.00    +0.000 A 
ATOM      3  C   UNL     1       0.697   9.166  21.356  0.00  0.00    +0.000 A 
ATOM      4  C   UNL     1       0.227   9.219  22.669  0.00  0.00    +0.000 A 
ATOM      5  C   UNL     1      -0.490  10.346  23.125  0.00  0.00    +0.000 A 
ATOM      6  C   UNL     1      -0.747  11.437  22.279  0.00  0.00    +0.000 A 
ATOM      7  C   UNL     1      -0.269  11.382  20.982  0.00  0.00    +0.000 A 
ATOM      8  C   UNL     1       0.430  10.261  20.567  0.00  0.00    +0.000 A 
ATOM      9  N   UNL     1       0.836  10.362  19.247  0.00  0.00    +0.000 N 
ATOM     10  C   UNL     1       1.547   9.371  18.616  0.00  0.00    +0.000 A 
ATOM     11  O   UNL     1       1.957   9.468  17.459  0.00  0.00    +0.000 OA
ATOM     12  C   UNL     1       0.383  11.651  18.712  0.00  0.00    +0.000 C 
ATOM     13  C   UNL     1      -0.381  12.365  19.860  0.00  0.00    +0.000 C 
ENDROOT
BRANCH   1  19
ATOM     14  C   UNL     1       5.422   4.736  15.852  0.00  0.00    +0.000 A 
ATOM     15  N   UNL     1       4.569   4.005  16.540  0.00  0.00    +0.000 NA
ATOM     16  N   UNL     1       3.737   4.774  17.325  0.00  0.00    +0.000 NA
ATOM     17  C   UNL     1       3.966   6.060  17.181  0.00  0.00    +0.000 A 
ATOM     18  N   UNL     1       3.355   7.120  17.806  0.00  0.00    +0.000 N 
ATOM     19  C   UNL     1       2.474   6.908  18.834  0.00  0.00    +0.000 C 
ATOM     20  O   UNL     1       2.215   5.803  19.317  0.00  0.00    +0.000 OA
ATOM     21  S   UNL     1       5.202   6.437  16.065  0.00  0.00    +0.000 S 
ATOM     22  H   UNL     1       3.582   8.061  17.494  0.00  0.00    +0.000 HD
BRANCH  14  24
ATOM     23  C   UNL     1       5.920   3.762  13.608  0.00  0.00    +0.000 C 
ATOM     24  C   UNL     1       6.500   4.172  14.966  0.00  0.00    +0.000 C 
ATOM     25  C   UNL     1       7.624   5.188  14.764  0.00  0.00    +0.000 C 
ENDBRANCH  14  24
ENDBRANCH   1  19
BRANCH   2  26
ATOM     26  O   UNL     1       1.592   6.964  21.560  0.00  0.00    +0.000 OA
ATOM     27  H   UNL     1       0.937   7.021  22.293  0.00  0.00    +0.000 HD
ENDBRANCH   2  26
TORSDOF 3
ENDMDL
MODEL 2
REMARK VINA RESULT:      -7.8      2.549      8.681
REMARK  Name = 
REMARK  5 active torsions:
REMARK  status: ('A' for Active; 'I' for Inactive)
REMARK    1  A    between atoms: C_1  and  C_2
REMARK    2  A    between atoms: C_2  and  C_3
REMARK    3  A    between atoms: C_2  and  C_4
REMARK    4  A    between atoms: C_9  and  C_11
REMARK    5  A    between atoms: C_12  and  O_13
REMARK                            x       y       z     vdW  Elec       q    Type
REMARK                         _______ _______ _______ _____ _____    ______ ____
ROOT
ATOM      1  C   UNL     1       2.308   7.396  18.967  0.00  0.00    +0.000 A 
ATOM      2  C   UNL     1       3.132   7.509  17.890  0.00  0.00    +0.000 A 
ATOM      3  C   UNL     1       3.980   6.390  17.466  0.00  0.00    +0.000 A 
ATOM      4  C   UNL     1       4.856   6.370  16.380  0.00  0.00    +0.000 A 
ATOM      5  C   UNL     1       5.573   5.196  16.064  0.00  0.00    +0.000 A 
ATOM      6  C   UNL     1       5.428   4.026  16.826  0.00  0.00    +0.000 A 
ATOM      7  C   UNL     1       4.567   4.057  17.908  0.00  0.00    +0.000 A 
ATOM      8  C   UNL     1       3.878   5.224  18.190  0.00  0.00    +0.000 A 
ATOM      9  N   UNL     1       3.058   5.088  19.297  0.00  0.00    +0.000 N 
ATOM     10  C   UNL     1       2.279   6.115  19.768  0.00  0.00    +0.000 A 
ATOM     11  O   UNL     1       1.583   6.024  20.780  0.00  0.00    +0.000 OA
ATOM     12  C   UNL     1       3.193   3.723  19.818  0.00  0.00    +0.000 C 
ATOM     13  C   UNL     1       4.202   2.991  18.892  0.00  0.00    +0.000 C 
ENDROOT
BRANCH   1  19
ATOM     14  C   UNL     1      -1.001  11.339  22.249  0.00  0.00    +0.000 A 
ATOM     15  N   UNL     1      -1.184  11.488  20.953  0.00  0.00    +0.000 NA
ATOM     16  N   UNL     1      -0.456  10.578  20.216  0.00  0.00    +0.000 NA
ATOM     17  C   UNL     1       0.227   9.754  20.978  0.00  0.00    +0.000 A 
ATOM     18  N   UNL     1       1.072   8.736  20.607  0.00  0.00    +0.000 N 
ATOM     19  C   UNL     1       1.424   8.568  19.293  0.00  0.00    +0.000 C 
ATOM     20  O   UNL     1       1.087   9.322  18.376  0.00  0.00    +0.000 OA
ATOM     21  S   UNL     1       0.024  10.008  22.654  0.00  0.00    +0.000 S 
ATOM     22  H   UNL     1       1.436   8.122  21.331  0.00  0.00    +0.000 HD
BRANCH  14  24
ATOM     23  C   UNL     1      -1.106  13.671  23.134  0.00  0.00    +0.000 C 
ATOM     24  C   UNL     1      -1.607  12.232  23.298  0.00  0.00    +0.000 C 
ATOM     25  C   UNL     1      -3.133  12.203  23.221  0.00  0.00    +0.000 C 
ENDBRANCH  14  24
ENDBRANCH   1  19
BRANCH   2  26
ATOM     26  O   UNL     1       3.246   8.626  17.082  0.00  0.00    +0.000 OA
ATOM     27  H   UNL     1       3.568   9.378  17.631  0.00  0.00    +0.000 HD
ENDBRANCH   2  26
TORSDOF 3
ENDMDL
MODEL 3
REMARK VINA RESULT:      -7.7      2.598      8.053
REMARK  Name = 
REMARK  5 active torsions:
REMARK  status: ('A' for Active; 'I' for Inactive)
REMARK    1  A    between atoms: C_1  and  C_2
REMARK    2  A    between atoms: C_2  and  C_3
REMARK    3  A    between atoms: C_2  and  C_4
REMARK    4  A    between atoms: C_9  and  C_11
REMARK    5  A    between atoms: C_12  and  O_13
REMARK                            x       y       z     vdW  Elec       q    Type
REMARK                         _______ _______ _______ _____ _____    ______ ____
ROOT
ATOM      1  C   UNL     1       2.321   6.697  19.367  0.00  0.00    +0.000 A 
ATOM      2  C   UNL     1       1.963   5.449  19.774  0.00  0.00    +0.000 A 
ATOM      3  C   UNL     1       2.489   4.254  19.106  0.00  0.00    +0.000 A 
ATOM      4  C   UNL     1       2.213   2.926  19.430  0.00  0.00    +0.000 A 
ATOM      5  C   UNL     1       2.837   1.875  18.723  0.00  0.00    +0.000 A 
ATOM      6  C   UNL     1       3.744   2.134  17.684  0.00  0.00    +0.000 A 
ATOM      7  C   UNL     1       4.005   3.453  17.361  0.00  0.00    +0.000 A 
ATOM      8  C   UNL     1       3.376   4.460  18.075  0.00  0.00    +0.000 A 
ATOM      9  N   UNL     1       3.746   5.718  17.631  0.00  0.00    +0.000 N 
ATOM     10  C   UNL     1       3.250   6.871  18.187  0.00  0.00    +0.000 A 
ATOM     11  O   UNL     1       3.531   7.996  17.771  0.00  0.00    +0.000 OA
ATOM     12  C   UNL     1       4.701   5.567  16.528  0.00  0.00    +0.000 C 
ATOM     13  C   UNL     1       4.909   4.042  16.325  0.00  0.00    +0.000 C 
ENDROOT
BRANCH   1  19
ATOM     14  C   UNL     1      -0.057  12.193  20.552  0.00  0.00    +0.000 A 
ATOM     15  N   UNL     1       0.382  11.592  21.638  0.00  0.00    +0.000 NA
ATOM     16  N   UNL     1       0.943  10.363  21.364  0.00  0.00    +0.000 NA
ATOM     17  C   UNL     1       0.937  10.090  20.078  0.00  0.00    +0.000 A 
ATOM     18  N   UNL     1       1.389   8.964  19.434  0.00  0.00    +0.000 N 
ATOM     19  C   UNL     1       1.788   7.865  20.150  0.00  0.00    +0.000 C 
ATOM     20  O   UNL     1       1.715   7.765  21.377  0.00  0.00    +0.000 OA
ATOM     21  S   UNL     1       0.265  11.316  19.098  0.00  0.00    +0.000 S 
ATOM     22  H   UNL     1       1.408   8.964  18.417  0.00  0.00    +0.000 HD
BRANCH  14  24
ATOM     23  C   UNL     1      -0.450  14.305  19.279  0.00  0.00    +0.000 C 
ATOM     24  C   UNL     1      -0.781  13.512  20.548  0.00  0.00    +0.000 C 
ATOM     25  C   UNL     1      -2.293  13.303  20.649  0.00  0.00    +0.000 C 
ENDBRANCH  14  24
ENDBRANCH   1  19
BRANCH   2  26
ATOM     26  O   UNL     1       1.124   5.164  20.837  0.00  0.00    +0.000 OA
ATOM     27  H   UNL     1       0.306   5.705  20.744  0.00  0.00    +0.000 HD
ENDBRANCH   2  26
TORSDOF 3
ENDMDL
MODEL 4
REMARK VINA RESULT:      -7.7      1.246      1.460
REMARK  Name = 
REMARK  5 active torsions:
REMARK  status: ('A' for Active; 'I' for Inactive)
REMARK    1  A    between atoms: C_1  and  C_2
REMARK    2  A    between atoms: C_2  and  C_3
REMARK    3  A    between atoms: C_2  and  C_4
REMARK    4  A    between atoms: C_9  and  C_11
REMARK    5  A    between atoms: C_12  and  O_13
REMARK                            x       y       z     vdW  Elec       q    Type
REMARK                         _______ _______ _______ _____ _____    ______ ____
ROOT
ATOM      1  C   UNL     1       1.140   8.761  19.894  0.00  0.00    +0.000 A 
ATOM      2  C   UNL     1       0.860   9.081  21.186  0.00  0.00    +0.000 A 
ATOM      3  C   UNL     1      -0.007  10.218  21.513  0.00  0.00    +0.000 A 
ATOM      4  C   UNL     1      -0.381  10.645  22.788  0.00  0.00    +0.000 A 
ATOM      5  C   UNL     1      -1.267  11.732  22.945  0.00  0.00    +0.000 A 
ATOM      6  C   UNL     1      -1.791  12.411  21.834  0.00  0.00    +0.000 A 
ATOM      7  C   UNL     1      -1.407  11.990  20.574  0.00  0.00    +0.000 A 
ATOM      8  C   UNL     1      -0.537  10.919  20.455  0.00  0.00    +0.000 A 
ATOM      9  N   UNL     1      -0.257  10.623  19.132  0.00  0.00    +0.000 N 
ATOM     10  C   UNL     1       0.584   9.601  18.767  0.00  0.00    +0.000 A 
ATOM     11  O   UNL     1       0.882   9.358  17.598  0.00  0.00    +0.000 OA
ATOM     12  C   UNL     1      -0.988  11.562  18.273  0.00  0.00    +0.000 C 
ATOM     13  C   UNL     1      -1.789  12.497  19.219  0.00  0.00    +0.000 C 
ENDROOT
BRANCH   1  19
ATOM     14  C   UNL     1       5.206   5.043  17.265  0.00  0.00    +0.000 A 
ATOM     15  N   UNL     1       4.486   4.431  18.182  0.00  0.00    +0.000 NA
ATOM     16  N   UNL     1       3.551   5.266  18.755  0.00  0.00    +0.000 NA
ATOM     17  C   UNL     1       3.574   6.471  18.231  0.00  0.00    +0.000 A 
ATOM     18  N   UNL     1       2.810   7.566  18.553  0.00  0.00    +0.000 N 
ATOM     19  C   UNL     1       1.983   7.540  19.646  0.00  0.00    +0.000 C 
ATOM     20  O   UNL     1       1.906   6.602  20.444  0.00  0.00    +0.000 OA
ATOM     21  S   UNL     1       4.723   6.678  16.986  0.00  0.00    +0.000 S 
ATOM     22  H   UNL     1       2.882   8.395  17.969  0.00  0.00    +0.000 HD
BRANCH  14  24
ATOM     23  C   UNL     1       6.510   5.039  15.135  0.00  0.00    +0.000 C 
ATOM     24  C   UNL     1       6.350   4.407  16.522  0.00  0.00    +0.000 C 
ATOM     25  C   UNL     1       7.654   4.547  17.308  0.00  0.00    +0.000 C 
ENDBRANCH  14  24
ENDBRANCH   1  19
BRANCH   2  26
ATOM     26  O   UNL     1       1.309   8.390  22.298  0.00  0.00    +0.000 OA
ATOM     27  H   UNL     1       0.863   8.758  23.096  0.00  0.00    +0.000 HD
ENDBRANCH   2  26
TORSDOF 3
ENDMDL
MODEL 5
REMARK VINA RESULT:      -7.5      1.863      3.471
REMARK  Name = 
REMARK  5 active torsions:
REMARK  status: ('A' for Active; 'I' for Inactive)
REMARK    1  A    between atoms: C_1  and  C_2
REMARK    2  A    between atoms: C_2  and  C_3
REMARK    3  A    between atoms: C_2  and  C_4
REMARK    4  A    between atoms: C_9  and  C_11
REMARK    5  A    between atoms: C_12  and  O_13
REMARK                            x       y       z     vdW  Elec       q    Type
REMARK                         _______ _______ _______ _____ _____    ______ ____
ROOT
ATOM      1  C   UNL     1       0.497   9.817  19.502  0.00  0.00    +0.000 A 
ATOM      2  C   UNL     1      -0.459  10.532  18.849  0.00  0.00    +0.000 A 
ATOM      3  C   UNL     1      -1.466  11.300  19.588  0.00  0.00    +0.000 A 
ATOM      4  C   UNL     1      -2.487  12.080  19.044  0.00  0.00    +0.000 A 
ATOM      5  C   UNL     1      -3.356  12.807  19.886  0.00  0.00    +0.000 A 
ATOM      6  C   UNL     1      -3.219  12.766  21.282  0.00  0.00    +0.000 A 
ATOM      7  C   UNL     1      -2.212  11.982  21.815  0.00  0.00    +0.000 A 
ATOM      8  C   UNL     1      -1.377  11.283  20.960  0.00  0.00    +0.000 A 
ATOM      9  N   UNL     1      -0.423  10.553  21.650  0.00  0.00    +0.000 N 
ATOM     10  C   UNL     1       0.515   9.778  21.013  0.00  0.00    +0.000 A 
ATOM     11  O   UNL     1       1.337   9.085  21.614  0.00  0.00    +0.000 OA
ATOM     12  C   UNL     1      -0.616  10.765  23.089  0.00  0.00    +0.000 C 
ATOM     13  C   UNL     1      -1.816  11.739  23.238  0.00  0.00    +0.000 C 
ENDROOT
BRANCH   1  19
ATOM     14  C   UNL     1       4.260   5.424  17.549  0.00  0.00    +0.000 A 
ATOM     15  N   UNL     1       4.490   6.580  16.961  0.00  0.00    +0.000 NA
ATOM     16  N   UNL     1       3.657   7.576  17.423  0.00  0.00    +0.000 NA
ATOM     17  C   UNL     1       2.847   7.149  18.366  0.00  0.00    +0.000 A 
ATOM     18  N   UNL     1       1.875   7.840  19.047  0.00  0.00    +0.000 N 
ATOM     19  C   UNL     1       1.532   9.112  18.668  0.00  0.00    +0.000 C 
ATOM     20  O   UNL     1       1.991   9.698  17.685  0.00  0.00    +0.000 OA
ATOM     21  S   UNL     1       3.048   5.503  18.778  0.00  0.00    +0.000 S 
ATOM     22  H   UNL     1       1.411   7.381  19.827  0.00  0.00    +0.000 HD
BRANCH  14  24
ATOM     23  C   UNL     1       4.058   2.936  17.480  0.00  0.00    +0.000 C 
ATOM     24  C   UNL     1       4.963   4.141  17.198  0.00  0.00    +0.000 C 
ATOM     25  C   UNL     1       5.387   4.137  15.729  0.00  0.00    +0.000 C 
ENDBRANCH  14  24
ENDBRANCH   1  19
BRANCH   2  26
ATOM     26  O   UNL     1      -0.576  10.643  17.475  0.00  0.00    +0.000 OA
ATOM     27  H   UNL     1       0.093  11.292  17.155  0.00  0.00    +0.000 HD
ENDBRANCH   2  26
TORSDOF 3
ENDMDL
MODEL 6
REMARK VINA RESULT:      -7.5      2.542      3.874
REMARK  Name = 
REMARK  5 active torsions:
REMARK  status: ('A' for Active; 'I' for Inactive)
REMARK    1  A    between atoms: C_1  and  C_2
REMARK    2  A    between atoms: C_2  and  C_3
REMARK    3  A    between atoms: C_2  and  C_4
REMARK    4  A    between atoms: C_9  and  C_11
REMARK    5  A    between atoms: C_12  and  O_13
REMARK                            x       y       z     vdW  Elec       q    Type
REMARK                         _______ _______ _______ _____ _____    ______ ____
ROOT
ATOM      1  C   UNL     1       1.164   9.970  19.400  0.00  0.00    +0.000 A 
ATOM      2  C   UNL     1       1.424  11.205  18.893  0.00  0.00    +0.000 A 
ATOM      3  C   UNL     1       0.932  12.416  19.559  0.00  0.00    +0.000 A 
ATOM      4  C   UNL     1       1.137  13.735  19.153  0.00  0.00    +0.000 A 
ATOM      5  C   UNL     1       0.641  14.805  19.929  0.00  0.00    +0.000 A 
ATOM      6  C   UNL     1      -0.066  14.575  21.120  0.00  0.00    +0.000 A 
ATOM      7  C   UNL     1      -0.275  13.265  21.510  0.00  0.00    +0.000 A 
ATOM      8  C   UNL     1       0.226  12.239  20.726  0.00  0.00    +0.000 A 
ATOM      9  N   UNL     1      -0.065  10.993  21.256  0.00  0.00    +0.000 N 
ATOM     10  C   UNL     1       0.329   9.825  20.651  0.00  0.00    +0.000 A 
ATOM     11  O   UNL     1       0.035   8.710  21.084  0.00  0.00    +0.000 OA
ATOM     12  C   UNL     1      -0.824  11.174  22.498  0.00  0.00    +0.000 C 
ATOM     13  C   UNL     1      -0.975  12.705  22.708  0.00  0.00    +0.000 C 
ENDROOT
BRANCH   1  19
ATOM     14  C   UNL     1       3.593   4.436  18.536  0.00  0.00    +0.000 A 
ATOM     15  N   UNL     1       3.682   5.196  17.463  0.00  0.00    +0.000 NA
ATOM     16  N   UNL     1       3.157   6.454  17.670  0.00  0.00    +0.000 NA
ATOM     17  C   UNL     1       2.718   6.613  18.899  0.00  0.00    +0.000 A 
ATOM     18  N   UNL     1       2.120   7.712  19.465  0.00  0.00    +0.000 N 
ATOM     19  C   UNL     1       1.762   8.786  18.691  0.00  0.00    +0.000 C 
ATOM     20  O   UNL     1       1.875   8.832  17.464  0.00  0.00    +0.000 OA
ATOM     21  S   UNL     1       2.925   5.250  19.906  0.00  0.00    +0.000 S 
ATOM     22  H   UNL     1       1.940   7.703  20.466  0.00  0.00    +0.000 HD
BRANCH  14  24
ATOM     23  C   UNL     1       4.167   2.528  20.041  0.00  0.00    +0.000 C 
ATOM     24  C   UNL     1       4.016   2.993  18.588  0.00  0.00    +0.000 C 
ATOM     25  C   UNL     1       3.005   2.104  17.863  0.00  0.00    +0.000 C 
ENDBRANCH  14  24
ENDBRANCH   1  19
BRANCH   2  26
ATOM     26  O   UNL     1       2.174  11.464  17.759  0.00  0.00    +0.000 OA
ATOM     27  H   UNL     1       1.831  12.286  17.338  0.00  0.00    +0.000 HD
ENDBRANCH   2  26
TORSDOF 3
ENDMDL
MODEL 7
REMARK VINA RESULT:      -7.4      2.579      8.266
REMARK  Name = 
REMARK  5 active torsions:
REMARK  status: ('A' for Active; 'I' for Inactive)
REMARK    1  A    between atoms: C_1  and  C_2
REMARK    2  A    between atoms: C_2  and  C_3
REMARK    3  A    between atoms: C_2  and  C_4
REMARK    4  A    between atoms: C_9  and  C_11
REMARK    5  A    between atoms: C_12  and  O_13
REMARK                            x       y       z     vdW  Elec       q    Type
REMARK                         _______ _______ _______ _____ _____    ______ ____
ROOT
ATOM      1  C   UNL     1       2.281   7.195  19.543  0.00  0.00    +0.000 A 
ATOM      2  C   UNL     1       2.257   5.857  19.790  0.00  0.00    +0.000 A 
ATOM      3  C   UNL     1       2.952   4.912  18.911  0.00  0.00    +0.000 A 
ATOM      4  C   UNL     1       3.015   3.525  19.057  0.00  0.00    +0.000 A 
ATOM      5  C   UNL     1       3.769   2.746  18.154  0.00  0.00    +0.000 A 
ATOM      6  C   UNL     1       4.470   3.338  17.091  0.00  0.00    +0.000 A 
ATOM      7  C   UNL     1       4.393   4.711  16.945  0.00  0.00    +0.000 A 
ATOM      8  C   UNL     1       3.646   5.446  17.850  0.00  0.00    +0.000 A 
ATOM      9  N   UNL     1       3.675   6.801  17.567  0.00  0.00    +0.000 N 
ATOM     10  C   UNL     1       3.005   7.727  18.327  0.00  0.00    +0.000 A 
ATOM     11  O   UNL     1       2.981   8.929  18.059  0.00  0.00    +0.000 OA
ATOM     12  C   UNL     1       4.505   7.016  16.377  0.00  0.00    +0.000 C 
ATOM     13  C   UNL     1       5.019   5.620  15.934  0.00  0.00    +0.000 C 
ENDROOT
BRANCH   1  19
ATOM     14  C   UNL     1      -1.083  11.798  21.723  0.00  0.00    +0.000 A 
ATOM     15  N   UNL     1      -0.406  11.180  22.669  0.00  0.00    +0.000 NA
ATOM     16  N   UNL     1       0.373  10.158  22.170  0.00  0.00    +0.000 NA
ATOM     17  C   UNL     1       0.284  10.059  20.862  0.00  0.00    +0.000 A 
ATOM     18  N   UNL     1       0.894   9.159  20.023  0.00  0.00    +0.000 N 
ATOM     19  C   UNL     1       1.598   8.099  20.532  0.00  0.00    +0.000 C 
ATOM     20  O   UNL     1       1.685   7.828  21.732  0.00  0.00    +0.000 OA
ATOM     21  S   UNL     1      -0.743  11.212  20.134  0.00  0.00    +0.000 S 
ATOM     22  H   UNL     1       0.799   9.293  19.019  0.00  0.00    +0.000 HD
BRANCH  14  24
ATOM     23  C   UNL     1      -3.004  13.078  20.772  0.00  0.00    +0.000 C 
ATOM     24  C   UNL     1      -2.071  12.905  21.975  0.00  0.00    +0.000 C 
ATOM     25  C   UNL     1      -2.895  12.623  23.232  0.00  0.00    +0.000 C 
ENDBRANCH  14  24
ENDBRANCH   1  19
BRANCH   2  26
ATOM     26  O   UNL     1       1.630   5.253  20.867  0.00  0.00    +0.000 OA
ATOM     27  H   UNL     1       0.859   4.740  20.532  0.00  0.00    +0.000 HD
ENDBRANCH   2  26
TORSDOF 3
ENDMDL
MODEL 8
REMARK VINA RESULT:      -7.4      2.375      3.849
REMARK  Name = 
REMARK  5 active torsions:
REMARK  status: ('A' for Active; 'I' for Inactive)
REMARK    1  A    between atoms: C_1  and  C_2
REMARK    2  A    between atoms: C_2  and  C_3
REMARK    3  A    between atoms: C_2  and  C_4
REMARK    4  A    between atoms: C_9  and  C_11
REMARK    5  A    between atoms: C_12  and  O_13
REMARK                            x       y       z     vdW  Elec       q    Type
REMARK                         _______ _______ _______ _____ _____    ______ ____
ROOT
ATOM      1  C   UNL     1       0.243  10.204  19.258  0.00  0.00    +0.000 A 
ATOM      2  C   UNL     1      -0.891  10.456  18.549  0.00  0.00    +0.000 A 
ATOM      3  C   UNL     1      -1.970  11.273  19.112  0.00  0.00    +0.000 A 
ATOM      4  C   UNL     1      -3.172  11.615  18.491  0.00  0.00    +0.000 A 
ATOM      5  C   UNL     1      -4.099  12.455  19.143  0.00  0.00    +0.000 A 
ATOM      6  C   UNL     1      -3.842  12.965  20.426  0.00  0.00    +0.000 A 
ATOM      7  C   UNL     1      -2.655  12.613  21.041  0.00  0.00    +0.000 A 
ATOM      8  C   UNL     1      -1.767  11.788  20.372  0.00  0.00    +0.000 A 
ATOM      9  N   UNL     1      -0.630  11.535  21.120  0.00  0.00    +0.000 N 
ATOM     10  C   UNL     1       0.392  10.739  20.663  0.00  0.00    +0.000 A 
ATOM     11  O   UNL     1       1.386  10.465  21.337  0.00  0.00    +0.000 OA
ATOM     12  C   UNL     1      -0.743  12.239  22.402  0.00  0.00    +0.000 C 
ATOM     13  C   UNL     1      -2.101  12.991  22.379  0.00  0.00    +0.000 C 
ENDROOT
BRANCH   1  19
ATOM     14  C   UNL     1       4.203   5.692  18.146  0.00  0.00    +0.000 A 
ATOM     15  N   UNL     1       4.421   6.749  17.390  0.00  0.00    +0.000 NA
ATOM     16  N   UNL     1       3.542   7.775  17.663  0.00  0.00    +0.000 NA
ATOM     17  C   UNL     1       2.711   7.473  18.635  0.00  0.00    +0.000 A 
ATOM     18  N   UNL     1       1.693   8.229  19.165  0.00  0.00    +0.000 N 
ATOM     19  C   UNL     1       1.327   9.413  18.580  0.00  0.00    +0.000 C 
ATOM     20  O   UNL     1       1.806   9.853  17.532  0.00  0.00    +0.000 OA
ATOM     21  S   UNL     1       2.943   5.921  19.307  0.00  0.00    +0.000 S 
ATOM     22  H   UNL     1       1.215   7.882  19.993  0.00  0.00    +0.000 HD
BRANCH  14  24
ATOM     23  C   UNL     1       6.457   4.656  17.867  0.00  0.00    +0.000 C 
ATOM     24  C   UNL     1       4.955   4.395  18.025  0.00  0.00    +0.000 C 
ATOM     25  C   UNL     1       4.710   3.509  19.247  0.00  0.00    +0.000 C 
ENDBRANCH  14  24
ENDBRANCH   1  19
BRANCH   2  26
ATOM     26  O   UNL     1      -1.142  10.021  17.259  0.00  0.00    +0.000 OA
ATOM     27  H   UNL     1      -0.546   9.262  17.063  0.00  0.00    +0.000 HD
ENDBRANCH   2  26
TORSDOF 3
ENDMDL
MODEL 9
REMARK VINA RESULT:      -7.3      2.426      8.423
REMARK  Name = 
REMARK  5 active torsions:
REMARK  status: ('A' for Active; 'I' for Inactive)
REMARK    1  A    between atoms: C_1  and  C_2
REMARK    2  A    between atoms: C_2  and  C_3
REMARK    3  A    between atoms: C_2  and  C_4
REMARK    4  A    between atoms: C_9  and  C_11
REMARK    5  A    between atoms: C_12  and  O_13
REMARK                            x       y       z     vdW  Elec       q    Type
REMARK                         _______ _______ _______ _____ _____    ______ ____
ROOT
ATOM      1  C   UNL     1       2.404   6.930  19.336  0.00  0.00    +0.000 A 
ATOM      2  C   UNL     1       3.211   7.266  18.294  0.00  0.00    +0.000 A 
ATOM      3  C   UNL     1       3.906   6.237  17.513  0.00  0.00    +0.000 A 
ATOM      4  C   UNL     1       4.748   6.444  16.420  0.00  0.00    +0.000 A 
ATOM      5  C   UNL     1       5.308   5.346  15.733  0.00  0.00    +0.000 A 
ATOM      6  C   UNL     1       5.038   4.026  16.127  0.00  0.00    +0.000 A 
ATOM      7  C   UNL     1       4.211   3.828  17.218  0.00  0.00    +0.000 A 
ATOM      8  C   UNL     1       3.677   4.928  17.868  0.00  0.00    +0.000 A 
ATOM      9  N   UNL     1       2.872   4.560  18.933  0.00  0.00    +0.000 N 
ATOM     10  C   UNL     1       2.235   5.481  19.728  0.00  0.00    +0.000 A 
ATOM     11  O   UNL     1       1.557   5.170  20.708  0.00  0.00    +0.000 OA
ATOM     12  C   UNL     1       2.850   3.096  19.023  0.00  0.00    +0.000 C 
ATOM     13  C   UNL     1       3.739   2.565  17.867  0.00  0.00    +0.000 C 
ENDROOT
BRANCH   1  19
ATOM     14  C   UNL     1      -0.929  11.978  20.161  0.00  0.00    +0.000 A 
ATOM     15  N   UNL     1      -0.366  11.561  21.276  0.00  0.00    +0.000 NA
ATOM     16  N   UNL     1       0.407  10.437  21.082  0.00  0.00    +0.000 NA
ATOM     17  C   UNL     1       0.429  10.060  19.823  0.00  0.00    +0.000 A 
ATOM     18  N   UNL     1       1.069   8.986  19.255  0.00  0.00    +0.000 N 
ATOM     19  C   UNL     1       1.678   8.043  20.041  0.00  0.00    +0.000 C 
ATOM     20  O   UNL     1       1.647   8.035  21.274  0.00  0.00    +0.000 OA
ATOM     21  S   UNL     1      -0.477  11.056  18.772  0.00  0.00    +0.000 S 
ATOM     22  H   UNL     1       1.069   8.904  18.241  0.00  0.00    +0.000 HD
BRANCH  14  24
ATOM     23  C   UNL     1      -3.308  12.689  20.425  0.00  0.00    +0.000 C 
ATOM     24  C   UNL     1      -1.885  13.138  20.077  0.00  0.00    +0.000 C 
ATOM     25  C   UNL     1      -1.454  14.266  21.015  0.00  0.00    +0.000 C 
ENDBRANCH  14  24
ENDBRANCH   1  19
BRANCH   2  26
ATOM     26  O   UNL     1       3.444   8.554  17.843  0.00  0.00    +0.000 OA
ATOM     27  H   UNL     1       3.820   8.504  16.934  0.00  0.00    +0.000 HD
ENDBRANCH   2  26
TORSDOF 3
ENDMDL
