MODEL 1
REMARK VINA RESULT:      -6.4      0.000      0.000
REMARK  Name = 
REMARK  9 active torsions:
REMARK  status: ('A' for Active; 'I' for Inactive)
REMARK    1  A    between atoms: C_1  and  C_2
REMARK    2  A    between atoms: C_2  and  C_3
REMARK    3  A    between atoms: C_3  and  C_4
REMARK    4  A    between atoms: C_7  and  O_8
REMARK    5  A    between atoms: O_8  and  C_9
REMARK    6  A    between atoms: C_17  and  O_18
REMARK    7  A    between atoms: C_21  and  C_22
REMARK    8  A    between atoms: C_22  and  C_23
REMARK    9  A    between atoms: C_23  and  C_24
REMARK                            x       y       z     vdW  Elec       q    Type
REMARK                         _______ _______ _______ _____ _____    ______ ____
ROOT
ATOM      1  C   UNL     1      -0.779  11.051  21.994  0.00  0.00    +0.000 A 
ATOM      2  C   UNL     1       0.088   9.946  22.222  0.00  0.00    +0.000 A 
ATOM      3 CL   UNL     1       0.307   9.439  23.869  0.00  0.00    +0.000 Cl
ATOM      4  C   UNL     1       0.743   9.320  21.136  0.00  0.00    +0.000 A 
ATOM      5  C   UNL     1       0.555   9.835  19.841  0.00  0.00    +0.000 A 
ATOM      6  C   UNL     1      -0.312  10.896  19.625  0.00  0.00    +0.000 A 
ATOM      7  C   UNL     1      -0.988  11.487  20.678  0.00  0.00    +0.000 A 
ATOM      8  O   UNL     1      -1.802  12.560  20.408  0.00  0.00    +0.000 OA
ATOM      9  C   UNL     1      -2.914  12.344  19.609  0.00  0.00    +0.000 A 
ATOM     10  C   UNL     1      -4.064  13.026  20.030  0.00  0.00    +0.000 A 
ATOM     11 CL   UNL     1      -4.038  14.073  21.418  0.00  0.00    +0.000 Cl
ATOM     12  C   UNL     1      -5.271  12.864  19.353  0.00  0.00    +0.000 A 
ATOM     13  C   UNL     1      -5.342  12.061  18.210  0.00  0.00    +0.000 A 
ATOM     14 CL   UNL     1      -6.891  11.910  17.431  0.00  0.00    +0.000 Cl
ATOM     15  C   UNL     1      -4.194  11.381  17.721  0.00  0.00    +0.000 A 
ATOM     16  C   UNL     1      -2.965  11.527  18.447  0.00  0.00    +0.000 A 
ATOM     17  C   UNL     1      -1.742  10.757  18.038  0.00  0.00    +0.000 C 
ATOM     18  O   UNL     1      -1.768   9.681  17.456  0.00  0.00    +0.000 OA
ATOM     19  O   UNL     1      -0.567  11.378  18.359  0.00  0.00    +0.000 OA
ENDROOT
BRANCH   4  20
ATOM     20  O   UNL     1       1.580   8.238  21.102  0.00  0.00    +0.000 OA
ATOM     21  C   UNL     1       1.974   7.641  19.878  0.00  0.00    +0.000 C 
ENDBRANCH   4  20
BRANCH  12  22
ATOM     22  O   UNL     1      -6.407  13.488  19.814  0.00  0.00    +0.000 OA
ATOM     23  H   UNL     1      -6.943  12.833  20.300  0.00  0.00    +0.000 HD
ENDBRANCH  12  22
BRANCH   1  24
ATOM     24  C   UNL     1      -1.429  11.819  23.125  0.00  0.00    +0.000 C 
BRANCH  24  26
ATOM     25  C   UNL     1      -1.770  14.136  24.050  0.00  0.00    +0.000 C 
ATOM     26  C   UNL     1      -0.920  13.262  23.148  0.00  0.00    +0.000 C 
ENDBRANCH  24  26
ENDBRANCH   1  24
BRANCH  15  27
ATOM     27  C   UNL     1      -4.341  10.529  16.462  0.00  0.00    +0.000 C 
BRANCH  27  28
ATOM     28  C   UNL     1      -3.689  11.083  15.186  0.00  0.00    +0.000 C 
ATOM     29  C   UNL     1      -3.105  10.034  14.254  0.00  0.00    +0.000 C 
ENDBRANCH  27  28
ENDBRANCH  15  27
TORSDOF 6
ENDMDL
MODEL 2
REMARK VINA RESULT:      -6.4      2.575      6.598
REMARK  Name = 
REMARK  9 active torsions:
REMARK  status: ('A' for Active; 'I' for Inactive)
REMARK    1  A    between atoms: C_1  and  C_2
REMARK    2  A    between atoms: C_2  and  C_3
REMARK    3  A    between atoms: C_3  and  C_4
REMARK    4  A    between atoms: C_7  and  O_8
REMARK    5  A    between atoms: O_8  and  C_9
REMARK    6  A    between atoms: C_17  and  O_18
REMARK    7  A    between atoms: C_21  and  C_22
REMARK    8  A    between atoms: C_22  and  C_23
REMARK    9  A    between atoms: C_23  and  C_24
REMARK                            x       y       z     vdW  Elec       q    Type
REMARK                         _______ _______ _______ _____ _____    ______ ____
ROOT
ATOM      1  C   UNL     1      -5.566  12.115  20.332  0.00  0.00    +0.000 A 
ATOM      2  C   UNL     1      -6.299  12.223  21.548  0.00  0.00    +0.000 A 
ATOM      3 CL   UNL     1      -7.916  11.587  21.557  0.00  0.00    +0.000 Cl
ATOM      4  C   UNL     1      -5.715  12.842  22.676  0.00  0.00    +0.000 A 
ATOM      5  C   UNL     1      -4.422  13.384  22.562  0.00  0.00    +0.000 A 
ATOM      6  C   UNL     1      -3.706  13.251  21.382  0.00  0.00    +0.000 A 
ATOM      7  C   UNL     1      -4.256  12.610  20.286  0.00  0.00    +0.000 A 
ATOM      8  O   UNL     1      -3.515  12.544  19.130  0.00  0.00    +0.000 OA
ATOM      9  C   UNL     1      -2.333  11.821  19.160  0.00  0.00    +0.000 A 
ATOM     10  C   UNL     1      -2.099  11.058  18.007  0.00  0.00    +0.000 A 
ATOM     11 CL   UNL     1      -3.204  11.082  16.666  0.00  0.00    +0.000 Cl
ATOM     12  C   UNL     1      -0.975  10.239  17.916  0.00  0.00    +0.000 A 
ATOM     13  C   UNL     1      -0.035  10.207  18.950  0.00  0.00    +0.000 A 
ATOM     14 CL   UNL     1       1.335   9.151  18.755  0.00  0.00    +0.000 Cl
ATOM     15  C   UNL     1      -0.207  10.992  20.122  0.00  0.00    +0.000 A 
ATOM     16  C   UNL     1      -1.386  11.804  20.220  0.00  0.00    +0.000 A 
ATOM     17  C   UNL     1      -1.675  12.581  21.473  0.00  0.00    +0.000 C 
ATOM     18  O   UNL     1      -1.284  12.260  22.587  0.00  0.00    +0.000 OA
ATOM     19  O   UNL     1      -2.412  13.712  21.262  0.00  0.00    +0.000 OA
ENDROOT
BRANCH   4  20
ATOM     20  O   UNL     1      -6.198  13.028  23.944  0.00  0.00    +0.000 OA
ATOM     21  C   UNL     1      -7.355  13.808  24.191  0.00  0.00    +0.000 C 
ENDBRANCH   4  20
BRANCH  12  22
ATOM     22  O   UNL     1      -0.790   9.447  16.807  0.00  0.00    +0.000 OA
ATOM     23  H   UNL     1      -1.228   8.589  16.964  0.00  0.00    +0.000 HD
ENDBRANCH  12  22
BRANCH   1  24
ATOM     24  C   UNL     1      -6.175  11.550  19.066  0.00  0.00    +0.000 C 
BRANCH  24  26
ATOM     25  C   UNL     1      -6.435  13.264  17.240  0.00  0.00    +0.000 C 
ATOM     26  C   UNL     1      -7.103  12.581  18.418  0.00  0.00    +0.000 C 
ENDBRANCH  24  26
ENDBRANCH   1  24
BRANCH  15  27
ATOM     27  C   UNL     1       0.864  10.916  21.207  0.00  0.00    +0.000 C 
BRANCH  27  28
ATOM     28  C   UNL     1       0.986   9.576  21.950  0.00  0.00    +0.000 C 
ATOM     29  C   UNL     1      -0.333   8.949  22.367  0.00  0.00    +0.000 C 
ENDBRANCH  27  28
ENDBRANCH  15  27
TORSDOF 6
ENDMDL
MODEL 3
REMARK VINA RESULT:      -6.3      2.545      6.634
REMARK  Name = 
REMARK  9 active torsions:
REMARK  status: ('A' for Active; 'I' for Inactive)
REMARK    1  A    between atoms: C_1  and  C_2
REMARK    2  A    between atoms: C_2  and  C_3
REMARK    3  A    between atoms: C_3  and  C_4
REMARK    4  A    between atoms: C_7  and  O_8
REMARK    5  A    between atoms: O_8  and  C_9
REMARK    6  A    between atoms: C_17  and  O_18
REMARK    7  A    between atoms: C_21  and  C_22
REMARK    8  A    between atoms: C_22  and  C_23
REMARK    9  A    between atoms: C_23  and  C_24
REMARK                            x       y       z     vdW  Elec       q    Type
REMARK                         _______ _______ _______ _____ _____    ______ ____
ROOT
ATOM      1  C   UNL     1      -5.442  12.369  20.476  0.00  0.00    +0.000 A 
ATOM      2  C   UNL     1      -6.266  12.422  21.636  0.00  0.00    +0.000 A 
ATOM      3 CL   UNL     1      -7.916  11.907  21.459  0.00  0.00    +0.000 Cl
ATOM      4  C   UNL     1      -5.741  12.895  22.860  0.00  0.00    +0.000 A 
ATOM      5  C   UNL     1      -4.410  13.349  22.899  0.00  0.00    +0.000 A 
ATOM      6  C   UNL     1      -3.607  13.270  21.770  0.00  0.00    +0.000 A 
ATOM      7  C   UNL     1      -4.103  12.770  20.580  0.00  0.00    +0.000 A 
ATOM      8  O   UNL     1      -3.273  12.753  19.484  0.00  0.00    +0.000 OA
ATOM      9  C   UNL     1      -2.148  11.946  19.538  0.00  0.00    +0.000 A 
ATOM     10  C   UNL     1      -1.867  11.274  18.340  0.00  0.00    +0.000 A 
ATOM     11 CL   UNL     1      -2.852  11.498  16.925  0.00  0.00    +0.000 Cl
ATOM     12  C   UNL     1      -0.795  10.387  18.260  0.00  0.00    +0.000 A 
ATOM     13  C   UNL     1       0.050  10.195  19.357  0.00  0.00    +0.000 A 
ATOM     14 CL   UNL     1       1.360   9.064  19.171  0.00  0.00    +0.000 Cl
ATOM     15  C   UNL     1      -0.169  10.884  20.581  0.00  0.00    +0.000 A 
ATOM     16  C   UNL     1      -1.297  11.767  20.663  0.00  0.00    +0.000 A 
ATOM     17  C   UNL     1      -1.639  12.449  21.956  0.00  0.00    +0.000 C 
ATOM     18  O   UNL     1      -1.366  12.003  23.062  0.00  0.00    +0.000 OA
ATOM     19  O   UNL     1      -2.281  13.645  21.797  0.00  0.00    +0.000 OA
ENDROOT
BRANCH   4  20
ATOM     20  O   UNL     1      -6.316  13.002  24.098  0.00  0.00    +0.000 OA
ATOM     21  C   UNL     1      -7.428  13.849  24.330  0.00  0.00    +0.000 C 
ENDBRANCH   4  20
BRANCH  12  22
ATOM     22  O   UNL     1      -0.570   9.685  17.099  0.00  0.00    +0.000 OA
ATOM     23  H   UNL     1      -1.399   9.667  16.583  0.00  0.00    +0.000 HD
ENDBRANCH  12  22
BRANCH   1  24
ATOM     24  C   UNL     1      -5.978  11.965  19.119  0.00  0.00    +0.000 C 
BRANCH  24  26
ATOM     25  C   UNL     1      -6.922   9.632  19.170  0.00  0.00    +0.000 C 
ATOM     26  C   UNL     1      -5.704  10.482  18.861  0.00  0.00    +0.000 C 
ENDBRANCH  24  26
ENDBRANCH   1  24
BRANCH  15  27
ATOM     27  C   UNL     1       0.800  10.634  21.734  0.00  0.00    +0.000 C 
BRANCH  27  28
ATOM     28  C   UNL     1       0.559   9.361  22.561  0.00  0.00    +0.000 C 
ATOM     29  C   UNL     1      -0.624   8.519  22.117  0.00  0.00    +0.000 C 
ENDBRANCH  27  28
ENDBRANCH  15  27
TORSDOF 6
ENDMDL
MODEL 4
REMARK VINA RESULT:      -6.3      2.109      2.711
REMARK  Name = 
REMARK  9 active torsions:
REMARK  status: ('A' for Active; 'I' for Inactive)
REMARK    1  A    between atoms: C_1  and  C_2
REMARK    2  A    between atoms: C_2  and  C_3
REMARK    3  A    between atoms: C_3  and  C_4
REMARK    4  A    between atoms: C_7  and  O_8
REMARK    5  A    between atoms: O_8  and  C_9
REMARK    6  A    between atoms: C_17  and  O_18
REMARK    7  A    between atoms: C_21  and  C_22
REMARK    8  A    between atoms: C_22  and  C_23
REMARK    9  A    between atoms: C_23  and  C_24
REMARK                            x       y       z     vdW  Elec       q    Type
REMARK                         _______ _______ _______ _____ _____    ______ ____
ROOT
ATOM      1  C   UNL     1      -0.227  11.018  20.588  0.00  0.00    +0.000 A 
ATOM      2  C   UNL     1       0.544   9.984  19.985  0.00  0.00    +0.000 A 
ATOM      3 CL   UNL     1       1.699   9.168  20.993  0.00  0.00    +0.000 Cl
ATOM      4  C   UNL     1       0.366   9.671  18.618  0.00  0.00    +0.000 A 
ATOM      5  C   UNL     1      -0.549  10.423  17.861  0.00  0.00    +0.000 A 
ATOM      6  C   UNL     1      -1.314  11.412  18.463  0.00  0.00    +0.000 A 
ATOM      7  C   UNL     1      -1.175  11.697  19.809  0.00  0.00    +0.000 A 
ATOM      8  O   UNL     1      -1.931  12.714  20.342  0.00  0.00    +0.000 OA
ATOM      9  C   UNL     1      -3.308  12.558  20.355  0.00  0.00    +0.000 A 
ATOM     10  C   UNL     1      -3.925  13.015  21.527  0.00  0.00    +0.000 A 
ATOM     11 CL   UNL     1      -3.005  13.745  22.809  0.00  0.00    +0.000 Cl
ATOM     12  C   UNL     1      -5.300  12.876  21.705  0.00  0.00    +0.000 A 
ATOM     13  C   UNL     1      -6.094  12.328  20.693  0.00  0.00    +0.000 A 
ATOM     14 CL   UNL     1      -7.801  12.186  21.001  0.00  0.00    +0.000 Cl
ATOM     15  C   UNL     1      -5.520  11.886  19.469  0.00  0.00    +0.000 A 
ATOM     16  C   UNL     1      -4.098  12.001  19.313  0.00  0.00    +0.000 A 
ATOM     17  C   UNL     1      -3.421  11.464  18.086  0.00  0.00    +0.000 C 
ATOM     18  O   UNL     1      -3.850  10.537  17.413  0.00  0.00    +0.000 OA
ATOM     19  O   UNL     1      -2.266  12.120  17.761  0.00  0.00    +0.000 OA
ENDROOT
BRANCH   4  20
ATOM     20  O   UNL     1       0.953   8.711  17.838  0.00  0.00    +0.000 OA
ATOM     21  C   UNL     1       2.358   8.647  17.669  0.00  0.00    +0.000 C 
ENDBRANCH   4  20
BRANCH  12  22
ATOM     22  O   UNL     1      -5.884  13.270  22.886  0.00  0.00    +0.000 OA
ATOM     23  H   UNL     1      -6.605  13.896  22.680  0.00  0.00    +0.000 HD
ENDBRANCH  12  22
BRANCH   1  24
ATOM     24  C   UNL     1      -0.010  11.462  22.019  0.00  0.00    +0.000 C 
BRANCH  24  26
ATOM     25  C   UNL     1      -0.364   9.458  23.501  0.00  0.00    +0.000 C 
ATOM     26  C   UNL     1      -0.978  10.733  22.953  0.00  0.00    +0.000 C 
ENDBRANCH  24  26
ENDBRANCH   1  24
BRANCH  15  27
ATOM     27  C   UNL     1      -6.448  11.307  18.404  0.00  0.00    +0.000 C 
BRANCH  27  28
ATOM     28  C   UNL     1      -7.267  12.321  17.591  0.00  0.00    +0.000 C 
ATOM     29  C   UNL     1      -6.469  13.478  17.014  0.00  0.00    +0.000 C 
ENDBRANCH  27  28
ENDBRANCH  15  27
TORSDOF 6
ENDMDL
MODEL 5
REMARK VINA RESULT:      -6.2      3.470      6.331
REMARK  Name = 
REMARK  9 active torsions:
REMARK  status: ('A' for Active; 'I' for Inactive)
REMARK    1  A    between atoms: C_1  and  C_2
REMARK    2  A    between atoms: C_2  and  C_3
REMARK    3  A    between atoms: C_3  and  C_4
REMARK    4  A    between atoms: C_7  and  O_8
REMARK    5  A    between atoms: O_8  and  C_9
REMARK    6  A    between atoms: C_17  and  O_18
REMARK    7  A    between atoms: C_21  and  C_22
REMARK    8  A    between atoms: C_22  and  C_23
REMARK    9  A    between atoms: C_23  and  C_24
REMARK                            x       y       z     vdW  Elec       q    Type
REMARK                         _______ _______ _______ _____ _____    ______ ____
ROOT
ATOM      1  C   UNL     1      -1.981  13.265  21.148  0.00  0.00    +0.000 A 
ATOM      2  C   UNL     1      -3.218  13.223  21.851  0.00  0.00    +0.000 A 
ATOM      3 CL   UNL     1      -4.487  14.265  21.281  0.00  0.00    +0.000 Cl
ATOM      4  C   UNL     1      -3.372  12.374  22.970  0.00  0.00    +0.000 A 
ATOM      5  C   UNL     1      -2.272  11.609  23.399  0.00  0.00    +0.000 A 
ATOM      6  C   UNL     1      -1.078  11.637  22.694  0.00  0.00    +0.000 A 
ATOM      7  C   UNL     1      -0.934  12.435  21.573  0.00  0.00    +0.000 A 
ATOM      8  O   UNL     1       0.285  12.453  20.938  0.00  0.00    +0.000 OA
ATOM      9  C   UNL     1       0.726  11.277  20.353  0.00  0.00    +0.000 A 
ATOM     10  C   UNL     1       1.353  11.454  19.112  0.00  0.00    +0.000 A 
ATOM     11 CL   UNL     1       1.573  13.037  18.427  0.00  0.00    +0.000 Cl
ATOM     12  C   UNL     1       1.803  10.356  18.381  0.00  0.00    +0.000 A 
ATOM     13  C   UNL     1       1.684   9.063  18.899  0.00  0.00    +0.000 A 
ATOM     14 CL   UNL     1       2.265   7.749  17.916  0.00  0.00    +0.000 Cl
ATOM     15  C   UNL     1       1.091   8.834  20.170  0.00  0.00    +0.000 A 
ATOM     16  C   UNL     1       0.599   9.970  20.897  0.00  0.00    +0.000 A 
ATOM     17  C   UNL     1      -0.124   9.786  22.200  0.00  0.00    +0.000 C 
ATOM     18  O   UNL     1      -0.754   8.781  22.501  0.00  0.00    +0.000 OA
ATOM     19  O   UNL     1      -0.006  10.848  23.052  0.00  0.00    +0.000 OA
ENDROOT
BRANCH   4  20
ATOM     20  O   UNL     1      -4.457  12.137  23.770  0.00  0.00    +0.000 OA
ATOM     21  C   UNL     1      -4.535  12.648  25.089  0.00  0.00    +0.000 C 
ENDBRANCH   4  20
BRANCH  12  22
ATOM     22  O   UNL     1       2.359  10.539  17.137  0.00  0.00    +0.000 OA
ATOM     23  H   UNL     1       3.322  10.396  17.205  0.00  0.00    +0.000 HD
ENDBRANCH  12  22
BRANCH   1  24
ATOM     24  C   UNL     1      -1.729  14.226  20.005  0.00  0.00    +0.000 C 
BRANCH  24  26
ATOM     25  C   UNL     1      -0.059  16.083  19.689  0.00  0.00    +0.000 C 
ATOM     26  C   UNL     1      -1.201  15.559  20.539  0.00  0.00    +0.000 C 
ENDBRANCH  24  26
ENDBRANCH   1  24
BRANCH  15  27
ATOM     27  C   UNL     1       1.002   7.397  20.678  0.00  0.00    +0.000 C 
BRANCH  27  28
ATOM     28  C   UNL     1       2.209   6.494  20.380  0.00  0.00    +0.000 C 
ATOM     29  C   UNL     1       2.002   5.021  20.687  0.00  0.00    +0.000 C 
ENDBRANCH  27  28
ENDBRANCH  15  27
TORSDOF 6
ENDMDL
MODEL 6
REMARK VINA RESULT:      -6.2      4.134      6.874
REMARK  Name = 
REMARK  9 active torsions:
REMARK  status: ('A' for Active; 'I' for Inactive)
REMARK    1  A    between atoms: C_1  and  C_2
REMARK    2  A    between atoms: C_2  and  C_3
REMARK    3  A    between atoms: C_3  and  C_4
REMARK    4  A    between atoms: C_7  and  O_8
REMARK    5  A    between atoms: O_8  and  C_9
REMARK    6  A    between atoms: C_17  and  O_18
REMARK    7  A    between atoms: C_21  and  C_22
REMARK    8  A    between atoms: C_22  and  C_23
REMARK    9  A    between atoms: C_23  and  C_24
REMARK                            x       y       z     vdW  Elec       q    Type
REMARK                         _______ _______ _______ _____ _____    ______ ____
ROOT
ATOM      1  C   UNL     1      -1.010  16.145  21.187  0.00  0.00    +0.000 A 
ATOM      2  C   UNL     1      -2.261  16.511  21.759  0.00  0.00    +0.000 A 
ATOM      3 CL   UNL     1      -3.011  17.960  21.161  0.00  0.00    +0.000 Cl
ATOM      4  C   UNL     1      -2.835  15.719  22.780  0.00  0.00    +0.000 A 
ATOM      5  C   UNL     1      -2.130  14.595  23.246  0.00  0.00    +0.000 A 
ATOM      6  C   UNL     1      -0.924  14.231  22.665  0.00  0.00    +0.000 A 
ATOM      7  C   UNL     1      -0.376  14.979  21.637  0.00  0.00    +0.000 A 
ATOM      8  O   UNL     1       0.841  14.593  21.128  0.00  0.00    +0.000 OA
ATOM      9  C   UNL     1       0.915  13.366  20.488  0.00  0.00    +0.000 A 
ATOM     10  C   UNL     1       1.711  13.369  19.334  0.00  0.00    +0.000 A 
ATOM     11 CL   UNL     1       2.548  14.802  18.816  0.00  0.00    +0.000 Cl
ATOM     12  C   UNL     1       1.838  12.219  18.558  0.00  0.00    +0.000 A 
ATOM     13  C   UNL     1       1.215  11.029  18.946  0.00  0.00    +0.000 A 
ATOM     14 CL   UNL     1       1.421   9.643  17.914  0.00  0.00    +0.000 Cl
ATOM     15  C   UNL     1       0.429  10.965  20.129  0.00  0.00    +0.000 A 
ATOM     16  C   UNL     1       0.277  12.165  20.901  0.00  0.00    +0.000 A 
ATOM     17  C   UNL     1      -0.618  12.187  22.107  0.00  0.00    +0.000 C 
ATOM     18  O   UNL     1      -1.589  11.459  22.256  0.00  0.00    +0.000 OA
ATOM     19  O   UNL     1      -0.244  13.097  23.055  0.00  0.00    +0.000 OA
ENDROOT
BRANCH   4  20
ATOM     20  O   UNL     1      -4.024  15.845  23.446  0.00  0.00    +0.000 OA
ATOM     21  C   UNL     1      -4.097  16.432  24.733  0.00  0.00    +0.000 C 
ENDBRANCH   4  20
BRANCH  12  22
ATOM     22  O   UNL     1       2.570  12.252  17.394  0.00  0.00    +0.000 OA
ATOM     23  H   UNL     1       3.248  11.550  17.436  0.00  0.00    +0.000 HD
ENDBRANCH  12  22
BRANCH   1  24
ATOM     24  C   UNL     1      -0.304  17.007  20.162  0.00  0.00    +0.000 C 
BRANCH  24  26
ATOM     25  C   UNL     1      -0.427  17.665  17.735  0.00  0.00    +0.000 C 
ATOM     26  C   UNL     1      -0.678  16.563  18.747  0.00  0.00    +0.000 C 
ENDBRANCH  24  26
ENDBRANCH   1  24
BRANCH  15  27
ATOM     27  C   UNL     1      -0.213   9.630  20.499  0.00  0.00    +0.000 C 
BRANCH  27  28
ATOM     28  C   UNL     1       0.697   8.606  21.194  0.00  0.00    +0.000 C 
ATOM     29  C   UNL     1       1.395   9.111  22.446  0.00  0.00    +0.000 C 
ENDBRANCH  27  28
ENDBRANCH  15  27
TORSDOF 6
ENDMDL
MODEL 7
REMARK VINA RESULT:      -6.1      2.645      5.003
REMARK  Name = 
REMARK  9 active torsions:
REMARK  status: ('A' for Active; 'I' for Inactive)
REMARK    1  A    between atoms: C_1  and  C_2
REMARK    2  A    between atoms: C_2  and  C_3
REMARK    3  A    between atoms: C_3  and  C_4
REMARK    4  A    between atoms: C_7  and  O_8
REMARK    5  A    between atoms: O_8  and  C_9
REMARK    6  A    between atoms: C_17  and  O_18
REMARK    7  A    between atoms: C_21  and  C_22
REMARK    8  A    between atoms: C_22  and  C_23
REMARK    9  A    between atoms: C_23  and  C_24
REMARK                            x       y       z     vdW  Elec       q    Type
REMARK                         _______ _______ _______ _____ _____    ______ ____
ROOT
ATOM      1  C   UNL     1       0.152  13.024  19.900  0.00  0.00    +0.000 A 
ATOM      2  C   UNL     1       0.828  14.001  20.684  0.00  0.00    +0.000 A 
ATOM      3 CL   UNL     1       2.290  14.670  20.026  0.00  0.00    +0.000 Cl
ATOM      4  C   UNL     1       0.316  14.378  21.946  0.00  0.00    +0.000 A 
ATOM      5  C   UNL     1      -0.842  13.741  22.428  0.00  0.00    +0.000 A 
ATOM      6  C   UNL     1      -1.508  12.808  21.647  0.00  0.00    +0.000 A 
ATOM      7  C   UNL     1      -1.035  12.465  20.393  0.00  0.00    +0.000 A 
ATOM      8  O   UNL     1      -1.714  11.505  19.681  0.00  0.00    +0.000 OA
ATOM      9  C   UNL     1      -3.012  11.789  19.288  0.00  0.00    +0.000 A 
ATOM     10  C   UNL     1      -3.328  11.351  17.995  0.00  0.00    +0.000 A 
ATOM     11 CL   UNL     1      -2.170  10.493  17.021  0.00  0.00    +0.000 Cl
ATOM     12  C   UNL     1      -4.582  11.611  17.444  0.00  0.00    +0.000 A 
ATOM     13  C   UNL     1      -5.563  12.266  18.195  0.00  0.00    +0.000 A 
ATOM     14 CL   UNL     1      -7.098  12.557  17.427  0.00  0.00    +0.000 Cl
ATOM     15  C   UNL     1      -5.305  12.695  19.526  0.00  0.00    +0.000 A 
ATOM     16  C   UNL     1      -3.998  12.453  20.068  0.00  0.00    +0.000 A 
ATOM     17  C   UNL     1      -3.631  12.967  21.430  0.00  0.00    +0.000 C 
ATOM     18  O   UNL     1      -4.133  13.953  21.952  0.00  0.00    +0.000 OA
ATOM     19  O   UNL     1      -2.681  12.217  22.065  0.00  0.00    +0.000 OA
ENDROOT
BRANCH   4  20
ATOM     20  O   UNL     1       0.760  15.305  22.850  0.00  0.00    +0.000 OA
ATOM     21  C   UNL     1      -0.103  16.291  23.389  0.00  0.00    +0.000 C 
ENDBRANCH   4  20
BRANCH  12  22
ATOM     22  O   UNL     1      -4.857  11.233  16.152  0.00  0.00    +0.000 OA
ATOM     23  H   UNL     1      -4.046  10.856  15.761  0.00  0.00    +0.000 HD
ENDBRANCH  12  22
BRANCH   1  24
ATOM     24  C   UNL     1       0.706  12.512  18.587  0.00  0.00    +0.000 C 
BRANCH  24  26
ATOM     25  C   UNL     1       1.215  10.064  18.294  0.00  0.00    +0.000 C 
ATOM     26  C   UNL     1       1.714  11.389  18.838  0.00  0.00    +0.000 C 
ENDBRANCH  24  26
ENDBRANCH   1  24
BRANCH  15  27
ATOM     27  C   UNL     1      -6.425  13.395  20.290  0.00  0.00    +0.000 C 
BRANCH  27  28
ATOM     28  C   UNL     1      -7.252  12.517  21.242  0.00  0.00    +0.000 C 
ATOM     29  C   UNL     1      -7.489  11.095  20.764  0.00  0.00    +0.000 C 
ENDBRANCH  27  28
ENDBRANCH  15  27
TORSDOF 6
ENDMDL
MODEL 8
REMARK VINA RESULT:      -6.1      2.703      6.175
REMARK  Name = 
REMARK  9 active torsions:
REMARK  status: ('A' for Active; 'I' for Inactive)
REMARK    1  A    between atoms: C_1  and  C_2
REMARK    2  A    between atoms: C_2  and  C_3
REMARK    3  A    between atoms: C_3  and  C_4
REMARK    4  A    between atoms: C_7  and  O_8
REMARK    5  A    between atoms: O_8  and  C_9
REMARK    6  A    between atoms: C_17  and  O_18
REMARK    7  A    between atoms: C_21  and  C_22
REMARK    8  A    between atoms: C_22  and  C_23
REMARK    9  A    between atoms: C_23  and  C_24
REMARK                            x       y       z     vdW  Elec       q    Type
REMARK                         _______ _______ _______ _____ _____    ______ ____
ROOT
ATOM      1  C   UNL     1      -5.895  12.137  20.426  0.00  0.00    +0.000 A 
ATOM      2  C   UNL     1      -6.352  12.287  21.766  0.00  0.00    +0.000 A 
ATOM      3 CL   UNL     1      -7.916  11.635  22.146  0.00  0.00    +0.000 Cl
ATOM      4  C   UNL     1      -5.552  12.959  22.719  0.00  0.00    +0.000 A 
ATOM      5  C   UNL     1      -4.324  13.509  22.309  0.00  0.00    +0.000 A 
ATOM      6  C   UNL     1      -3.875  13.336  21.008  0.00  0.00    +0.000 A 
ATOM      7  C   UNL     1      -4.634  12.644  20.081  0.00  0.00    +0.000 A 
ATOM      8  O   UNL     1      -4.157  12.538  18.797  0.00  0.00    +0.000 OA
ATOM      9  C   UNL     1      -2.982  11.830  18.599  0.00  0.00    +0.000 A 
ATOM     10  C   UNL     1      -2.985  11.022  17.453  0.00  0.00    +0.000 A 
ATOM     11 CL   UNL     1      -4.353  10.979  16.380  0.00  0.00    +0.000 Cl
ATOM     12  C   UNL     1      -1.892  10.212  17.153  0.00  0.00    +0.000 A 
ATOM     13  C   UNL     1      -0.751  10.233  17.962  0.00  0.00    +0.000 A 
ATOM     14 CL   UNL     1       0.566   9.186  17.518  0.00  0.00    +0.000 Cl
ATOM     15  C   UNL     1      -0.684  11.065  19.113  0.00  0.00    +0.000 A 
ATOM     16  C   UNL     1      -1.831  11.867  19.432  0.00  0.00    +0.000 A 
ATOM     17  C   UNL     1      -1.859  12.692  20.686  0.00  0.00    +0.000 C 
ATOM     18  O   UNL     1      -1.233  12.422  21.701  0.00  0.00    +0.000 OA
ATOM     19  O   UNL     1      -2.646  13.806  20.596  0.00  0.00    +0.000 OA
ENDROOT
BRANCH   4  20
ATOM     20  O   UNL     1      -5.756  13.192  24.052  0.00  0.00    +0.000 OA
ATOM     21  C   UNL     1      -5.076  12.451  25.049  0.00  0.00    +0.000 C 
ENDBRANCH   4  20
BRANCH  12  22
ATOM     22  O   UNL     1      -1.933   9.378  16.062  0.00  0.00    +0.000 OA
ATOM     23  H   UNL     1      -1.568   8.510  16.323  0.00  0.00    +0.000 HD
ENDBRANCH  12  22
BRANCH   1  24
ATOM     24  C   UNL     1      -6.750  11.514  19.343  0.00  0.00    +0.000 C 
BRANCH  24  26
ATOM     25  C   UNL     1      -7.285   9.133  19.964  0.00  0.00    +0.000 C 
ATOM     26  C   UNL     1      -6.378  10.041  19.155  0.00  0.00    +0.000 C 
ENDBRANCH  24  26
ENDBRANCH   1  24
BRANCH  15  27
ATOM     27  C   UNL     1       0.596  11.045  19.945  0.00  0.00    +0.000 C 
BRANCH  27  28
ATOM     28  C   UNL     1       1.547  12.237  19.759  0.00  0.00    +0.000 C 
ATOM     29  C   UNL     1       2.175  12.351  18.380  0.00  0.00    +0.000 C 
ENDBRANCH  27  28
ENDBRANCH  15  27
TORSDOF 6
ENDMDL
MODEL 9
REMARK VINA RESULT:      -6.0      9.747     12.245
REMARK  Name = 
REMARK  9 active torsions:
REMARK  status: ('A' for Active; 'I' for Inactive)
REMARK    1  A    between atoms: C_1  and  C_2
REMARK    2  A    between atoms: C_2  and  C_3
REMARK    3  A    between atoms: C_3  and  C_4
REMARK    4  A    between atoms: C_7  and  O_8
REMARK    5  A    between atoms: O_8  and  C_9
REMARK    6  A    between atoms: C_17  and  O_18
REMARK    7  A    between atoms: C_21  and  C_22
REMARK    8  A    between atoms: C_22  and  C_23
REMARK    9  A    between atoms: C_23  and  C_24
REMARK                            x       y       z     vdW  Elec       q    Type
REMARK                         _______ _______ _______ _____ _____    ______ ____
ROOT
ATOM      1  C   UNL     1       6.129  15.210  21.137  0.00  0.00    +0.000 A 
ATOM      2  C   UNL     1       5.332  14.310  21.900  0.00  0.00    +0.000 A 
ATOM      3 CL   UNL     1       3.619  14.328  21.608  0.00  0.00    +0.000 Cl
ATOM      4  C   UNL     1       5.935  13.465  22.860  0.00  0.00    +0.000 A 
ATOM      5  C   UNL     1       7.322  13.561  23.074  0.00  0.00    +0.000 A 
ATOM      6  C   UNL     1       8.094  14.421  22.307  0.00  0.00    +0.000 A 
ATOM      7  C   UNL     1       7.516  15.222  21.338  0.00  0.00    +0.000 A 
ATOM      8  O   UNL     1       8.325  16.084  20.638  0.00  0.00    +0.000 OA
ATOM      9  C   UNL     1       9.305  15.536  19.826  0.00  0.00    +0.000 A 
ATOM     10  C   UNL     1       9.465  16.192  18.598  0.00  0.00    +0.000 A 
ATOM     11 CL   UNL     1       8.521  17.594  18.191  0.00  0.00    +0.000 Cl
ATOM     12  C   UNL     1      10.378  15.722  17.656  0.00  0.00    +0.000 A 
ATOM     13  C   UNL     1      11.189  14.619  17.943  0.00  0.00    +0.000 A 
ATOM     14 CL   UNL     1      12.297  14.095  16.708  0.00  0.00    +0.000 Cl
ATOM     15  C   UNL     1      11.092  13.943  19.191  0.00  0.00    +0.000 A 
ATOM     16  C   UNL     1      10.123  14.415  20.138  0.00  0.00    +0.000 A 
ATOM     17  C   UNL     1       9.904  13.686  21.432  0.00  0.00    +0.000 C 
ATOM     18  O   UNL     1      10.109  12.491  21.591  0.00  0.00    +0.000 OA
ATOM     19  O   UNL     1       9.464  14.487  22.449  0.00  0.00    +0.000 OA
ENDROOT
BRANCH   4  20
ATOM     20  O   UNL     1       5.393  12.508  23.674  0.00  0.00    +0.000 OA
ATOM     21  C   UNL     1       6.205  11.630  24.433  0.00  0.00    +0.000 C 
ENDBRANCH   4  20
BRANCH  12  22
ATOM     22  O   UNL     1      10.480  16.336  16.430  0.00  0.00    +0.000 OA
ATOM     23  H   UNL     1      11.339  16.095  16.034  0.00  0.00    +0.000 HD
ENDBRANCH  12  22
BRANCH   1  24
ATOM     24  C   UNL     1       5.526  16.205  20.168  0.00  0.00    +0.000 C 
BRANCH  24  26
ATOM     25  C   UNL     1       3.738  17.873  20.762  0.00  0.00    +0.000 C 
ATOM     26  C   UNL     1       5.207  17.518  20.885  0.00  0.00    +0.000 C 
ENDBRANCH  24  26
ENDBRANCH   1  24
BRANCH  15  27
ATOM     27  C   UNL     1      12.015  12.753  19.441  0.00  0.00    +0.000 C 
BRANCH  27  28
ATOM     28  C   UNL     1      11.720  11.481  18.631  0.00  0.00    +0.000 C 
ATOM     29  C   UNL     1      10.246  11.164  18.444  0.00  0.00    +0.000 C 
ENDBRANCH  27  28
ENDBRANCH  15  27
TORSDOF 6
ENDMDL
