MODEL 1
REMARK VINA RESULT:      -7.4      0.000      0.000
REMARK  Name = 
REMARK  5 active torsions:
REMARK  status: ('A' for Active; 'I' for Inactive)
REMARK    1  A    between atoms: N_1  and  C_2
REMARK    2  A    between atoms: N_10  and  C_11
REMARK    3  A    between atoms: C_13  and  C_14
REMARK    4  A    between atoms: C_14  and  O_15
REMARK    5  A    between atoms: C_16  and  O_17
REMARK                            x       y       z     vdW  Elec       q    Type
REMARK                         _______ _______ _______ _____ _____    ______ ____
ROOT
ATOM      1  C   UNL     1       6.890   5.922  16.406  0.00  0.00    +0.000 A 
ATOM      2  N   UNL     1       6.644   5.379  15.200  0.00  0.00    +0.000 NA
ATOM      3  C   UNL     1       5.627   4.500  15.091  0.00  0.00    +0.000 A 
ATOM      4  N   UNL     1       4.783   4.083  16.052  0.00  0.00    +0.000 NA
ATOM      5  C   UNL     1       5.076   4.638  17.238  0.00  0.00    +0.000 A 
ATOM      6  C   UNL     1       6.107   5.529  17.498  0.00  0.00    +0.000 A 
ATOM      7  C   UNL     1       6.048   5.832  18.888  0.00  0.00    +0.000 A 
ATOM      8  C   UNL     1       4.983   5.141  19.423  0.00  0.00    +0.000 A 
ATOM      9  N   UNL     1       4.372   4.447  18.402  0.00  0.00    +0.000 N 
ENDROOT
BRANCH   9  10
ATOM     10  C   UNL     1       3.106   3.740  18.467  0.00  0.00    +0.000 C 
ATOM     11  O   UNL     1       2.216   4.421  19.391  0.00  0.00    +0.000 OA
ATOM     12  C   UNL     1       1.412   3.431  20.061  0.00  0.00    +0.000 C 
ATOM     13  C   UNL     1       1.718   2.078  19.405  0.00  0.00    +0.000 C 
ATOM     14  C   UNL     1       3.134   2.260  18.847  0.00  0.00    +0.000 C 
ATOM     15  F   UNL     1       3.317   1.469  17.761  0.00  0.00    +0.000 F 
ATOM     16 CL   UNL     1       4.361   1.825  20.073  0.00  0.00    +0.000 Cl
BRANCH  13  17
ATOM     17  O   UNL     1       0.760   1.820  18.356  0.00  0.00    +0.000 OA
ATOM     18  H   UNL     1       1.213   1.514  17.551  0.00  0.00    +0.000 HD
ENDBRANCH  13  17
BRANCH  12  19
ATOM     19  C   UNL     1       1.687   3.482  21.566  0.00  0.00    +0.000 C 
BRANCH  19  20
ATOM     20  O   UNL     1       1.568   2.183  22.123  0.00  0.00    +0.000 OA
ATOM     21  H   UNL     1       0.632   1.914  22.073  0.00  0.00    +0.000 HD
ENDBRANCH  19  20
ENDBRANCH  12  19
ENDBRANCH   9  10
BRANCH   1  22
ATOM     22  N   UNL     1       7.915   6.855  16.491  0.00  0.00    +0.000 N 
ATOM     23  H   UNL     1       8.794   6.415  16.739  0.00  0.00    +0.000 HD
ATOM     24  H   UNL     1       7.683   7.718  16.958  0.00  0.00    +0.000 HD
ENDBRANCH   1  22
TORSDOF 5
ENDMDL
MODEL 2
REMARK VINA RESULT:      -7.2      3.414      5.891
REMARK  Name = 
REMARK  5 active torsions:
REMARK  status: ('A' for Active; 'I' for Inactive)
REMARK    1  A    between atoms: N_1  and  C_2
REMARK    2  A    between atoms: N_10  and  C_11
REMARK    3  A    between atoms: C_13  and  C_14
REMARK    4  A    between atoms: C_14  and  O_15
REMARK    5  A    between atoms: C_16  and  O_17
REMARK                            x       y       z     vdW  Elec       q    Type
REMARK                         _______ _______ _______ _____ _____    ______ ____
ROOT
ATOM      1  C   UNL     1       1.568   2.846  19.953  0.00  0.00    +0.000 A 
ATOM      2  N   UNL     1       1.501   1.771  19.149  0.00  0.00    +0.000 NA
ATOM      3  C   UNL     1       2.405   1.658  18.154  0.00  0.00    +0.000 A 
ATOM      4  N   UNL     1       3.412   2.496  17.849  0.00  0.00    +0.000 NA
ATOM      5  C   UNL     1       3.431   3.560  18.666  0.00  0.00    +0.000 A 
ATOM      6  C   UNL     1       2.548   3.815  19.705  0.00  0.00    +0.000 A 
ATOM      7  C   UNL     1       2.937   5.059  20.279  0.00  0.00    +0.000 A 
ATOM      8  C   UNL     1       4.046   5.508  19.593  0.00  0.00    +0.000 A 
ATOM      9  N   UNL     1       4.363   4.568  18.639  0.00  0.00    +0.000 N 
ENDROOT
BRANCH   9  10
ATOM     10  C   UNL     1       5.560   4.532  17.818  0.00  0.00    +0.000 C 
ATOM     11  O   UNL     1       6.701   4.967  18.604  0.00  0.00    +0.000 OA
ATOM     12  C   UNL     1       7.602   5.686  17.739  0.00  0.00    +0.000 C 
ATOM     13  C   UNL     1       7.057   5.558  16.310  0.00  0.00    +0.000 C 
ATOM     14  C   UNL     1       5.556   5.331  16.515  0.00  0.00    +0.000 C 
ATOM     15  F   UNL     1       5.044   4.609  15.488  0.00  0.00    +0.000 F 
ATOM     16 CL   UNL     1       4.684   6.891  16.596  0.00  0.00    +0.000 Cl
BRANCH  13  17
ATOM     17  O   UNL     1       7.682   4.434  15.653  0.00  0.00    +0.000 OA
ATOM     18  H   UNL     1       8.568   4.275  16.025  0.00  0.00    +0.000 HD
ENDBRANCH  13  17
BRANCH  12  19
ATOM     19  C   UNL     1       7.746   7.127  18.235  0.00  0.00    +0.000 C 
BRANCH  19  20
ATOM     20  O   UNL     1       7.837   8.012  17.130  0.00  0.00    +0.000 OA
ATOM     21  H   UNL     1       7.543   8.894  17.422  0.00  0.00    +0.000 HD
ENDBRANCH  19  20
ENDBRANCH  12  19
ENDBRANCH   9  10
BRANCH   1  22
ATOM     22  N   UNL     1       0.655   2.925  20.997  0.00  0.00    +0.000 N 
ATOM     23  H   UNL     1       0.545   2.030  21.457  0.00  0.00    +0.000 HD
ATOM     24  H   UNL     1      -0.182   3.453  20.806  0.00  0.00    +0.000 HD
ENDBRANCH   1  22
TORSDOF 5
ENDMDL
MODEL 3
REMARK VINA RESULT:      -7.1      3.355      5.757
REMARK  Name = 
REMARK  5 active torsions:
REMARK  status: ('A' for Active; 'I' for Inactive)
REMARK    1  A    between atoms: N_1  and  C_2
REMARK    2  A    between atoms: N_10  and  C_11
REMARK    3  A    between atoms: C_13  and  C_14
REMARK    4  A    between atoms: C_14  and  O_15
REMARK    5  A    between atoms: C_16  and  O_17
REMARK                            x       y       z     vdW  Elec       q    Type
REMARK                         _______ _______ _______ _____ _____    ______ ____
ROOT
ATOM      1  C   UNL     1       2.294   2.923  20.606  0.00  0.00    +0.000 A 
ATOM      2  N   UNL     1       3.281   2.341  21.308  0.00  0.00    +0.000 NA
ATOM      3  C   UNL     1       4.519   2.317  20.774  0.00  0.00    +0.000 A 
ATOM      4  N   UNL     1       4.924   2.825  19.595  0.00  0.00    +0.000 NA
ATOM      5  C   UNL     1       3.904   3.381  18.923  0.00  0.00    +0.000 A 
ATOM      6  C   UNL     1       2.583   3.448  19.340  0.00  0.00    +0.000 A 
ATOM      7  C   UNL     1       1.858   4.103  18.305  0.00  0.00    +0.000 A 
ATOM      8  C   UNL     1       2.753   4.431  17.309  0.00  0.00    +0.000 A 
ATOM      9  N   UNL     1       4.004   4.023  17.713  0.00  0.00    +0.000 N 
ENDROOT
BRANCH   9  10
ATOM     10  C   UNL     1       5.269   4.330  17.070  0.00  0.00    +0.000 C 
ATOM     11  O   UNL     1       6.360   4.061  17.989  0.00  0.00    +0.000 OA
ATOM     12  C   UNL     1       7.399   5.031  17.758  0.00  0.00    +0.000 C 
ATOM     13  C   UNL     1       6.990   5.850  16.527  0.00  0.00    +0.000 C 
ATOM     14  C   UNL     1       5.462   5.740  16.512  0.00  0.00    +0.000 C 
ATOM     15  F   UNL     1       4.994   5.844  15.244  0.00  0.00    +0.000 F 
ATOM     16 CL   UNL     1       4.722   7.040  17.492  0.00  0.00    +0.000 Cl
BRANCH  13  17
ATOM     17  O   UNL     1       7.579   5.270  15.343  0.00  0.00    +0.000 OA
ATOM     18  H   UNL     1       8.399   4.799  15.569  0.00  0.00    +0.000 HD
ENDBRANCH  13  17
BRANCH  12  19
ATOM     19  C   UNL     1       7.616   5.861  19.027  0.00  0.00    +0.000 C 
BRANCH  19  20
ATOM     20  O   UNL     1       6.971   5.239  20.127  0.00  0.00    +0.000 OA
ATOM     21  H   UNL     1       7.279   4.316  20.178  0.00  0.00    +0.000 HD
ENDBRANCH  19  20
ENDBRANCH  12  19
ENDBRANCH   9  10
BRANCH   1  22
ATOM     22  N   UNL     1       1.034   2.974  21.190  0.00  0.00    +0.000 N 
ATOM     23  H   UNL     1       1.070   3.415  22.101  0.00  0.00    +0.000 HD
ATOM     24  H   UNL     1       0.477   2.139  21.101  0.00  0.00    +0.000 HD
ENDBRANCH   1  22
TORSDOF 5
ENDMDL
MODEL 4
REMARK VINA RESULT:      -7.1      2.081      3.027
REMARK  Name = 
REMARK  5 active torsions:
REMARK  status: ('A' for Active; 'I' for Inactive)
REMARK    1  A    between atoms: N_1  and  C_2
REMARK    2  A    between atoms: N_10  and  C_11
REMARK    3  A    between atoms: C_13  and  C_14
REMARK    4  A    between atoms: C_14  and  O_15
REMARK    5  A    between atoms: C_16  and  O_17
REMARK                            x       y       z     vdW  Elec       q    Type
REMARK                         _______ _______ _______ _____ _____    ______ ____
ROOT
ATOM      1  C   UNL     1       7.174   5.612  15.703  0.00  0.00    +0.000 A 
ATOM      2  N   UNL     1       7.611   6.662  16.420  0.00  0.00    +0.000 NA
ATOM      3  C   UNL     1       6.997   6.939  17.588  0.00  0.00    +0.000 A 
ATOM      4  N   UNL     1       5.977   6.278  18.167  0.00  0.00    +0.000 NA
ATOM      5  C   UNL     1       5.565   5.250  17.410  0.00  0.00    +0.000 A 
ATOM      6  C   UNL     1       6.084   4.874  16.180  0.00  0.00    +0.000 A 
ATOM      7  C   UNL     1       5.329   3.749  15.741  0.00  0.00    +0.000 A 
ATOM      8  C   UNL     1       4.397   3.465  16.715  0.00  0.00    +0.000 A 
ATOM      9  N   UNL     1       4.575   4.359  17.746  0.00  0.00    +0.000 N 
ENDROOT
BRANCH   9  10
ATOM     10  C   UNL     1       3.946   4.315  19.054  0.00  0.00    +0.000 C 
ATOM     11  O   UNL     1       3.689   2.935  19.423  0.00  0.00    +0.000 OA
ATOM     12  C   UNL     1       2.463   2.887  20.180  0.00  0.00    +0.000 C 
ATOM     13  C   UNL     1       2.021   4.338  20.418  0.00  0.00    +0.000 C 
ATOM     14  C   UNL     1       2.652   5.103  19.250  0.00  0.00    +0.000 C 
ATOM     15  F   UNL     1       2.898   6.388  19.608  0.00  0.00    +0.000 F 
ATOM     16 CL   UNL     1       1.559   5.114  17.834  0.00  0.00    +0.000 Cl
BRANCH  13  17
ATOM     17  O   UNL     1       2.526   4.794  21.691  0.00  0.00    +0.000 OA
ATOM     18  H   UNL     1       2.309   4.154  22.391  0.00  0.00    +0.000 HD
ENDBRANCH  13  17
BRANCH  12  19
ATOM     19  C   UNL     1       1.437   2.026  19.439  0.00  0.00    +0.000 C 
BRANCH  19  20
ATOM     20  O   UNL     1       1.993   1.552  18.223  0.00  0.00    +0.000 OA
ATOM     21  H   UNL     1       1.268   1.195  17.676  0.00  0.00    +0.000 HD
ENDBRANCH  19  20
ENDBRANCH  12  19
ENDBRANCH   9  10
BRANCH   1  22
ATOM     22  N   UNL     1       7.845   5.318  14.522  0.00  0.00    +0.000 N 
ATOM     23  H   UNL     1       8.627   5.946  14.378  0.00  0.00    +0.000 HD
ATOM     24  H   UNL     1       7.260   5.117  13.725  0.00  0.00    +0.000 HD
ENDBRANCH   1  22
TORSDOF 5
ENDMDL
MODEL 5
REMARK VINA RESULT:      -7.0      3.395      5.754
REMARK  Name = 
REMARK  5 active torsions:
REMARK  status: ('A' for Active; 'I' for Inactive)
REMARK    1  A    between atoms: N_1  and  C_2
REMARK    2  A    between atoms: N_10  and  C_11
REMARK    3  A    between atoms: C_13  and  C_14
REMARK    4  A    between atoms: C_14  and  O_15
REMARK    5  A    between atoms: C_16  and  O_17
REMARK                            x       y       z     vdW  Elec       q    Type
REMARK                         _______ _______ _______ _____ _____    ______ ____
ROOT
ATOM      1  C   UNL     1       1.420   3.045  19.601  0.00  0.00    +0.000 A 
ATOM      2  N   UNL     1       1.671   1.757  19.308  0.00  0.00    +0.000 NA
ATOM      3  C   UNL     1       2.731   1.473  18.525  0.00  0.00    +0.000 A 
ATOM      4  N   UNL     1       3.617   2.331  17.985  0.00  0.00    +0.000 NA
ATOM      5  C   UNL     1       3.319   3.603  18.291  0.00  0.00    +0.000 A 
ATOM      6  C   UNL     1       2.247   4.035  19.056  0.00  0.00    +0.000 A 
ATOM      7  C   UNL     1       2.318   5.457  19.097  0.00  0.00    +0.000 A 
ATOM      8  C   UNL     1       3.430   5.842  18.381  0.00  0.00    +0.000 A 
ATOM      9  N   UNL     1       4.056   4.703  17.927  0.00  0.00    +0.000 N 
ENDROOT
BRANCH   9  10
ATOM     10  C   UNL     1       5.360   4.621  17.294  0.00  0.00    +0.000 C 
ATOM     11  O   UNL     1       6.374   4.364  18.302  0.00  0.00    +0.000 OA
ATOM     12  C   UNL     1       7.582   5.049  17.917  0.00  0.00    +0.000 C 
ATOM     13  C   UNL     1       7.344   5.638  16.520  0.00  0.00    +0.000 C 
ATOM     14  C   UNL     1       5.823   5.813  16.457  0.00  0.00    +0.000 C 
ATOM     15  F   UNL     1       5.392   5.720  15.174  0.00  0.00    +0.000 F 
ATOM     16 CL   UNL     1       5.340   7.411  17.098  0.00  0.00    +0.000 Cl
BRANCH  13  17
ATOM     17  O   UNL     1       7.818   4.713  15.519  0.00  0.00    +0.000 OA
ATOM     18  H   UNL     1       8.665   5.018  15.149  0.00  0.00    +0.000 HD
ENDBRANCH  13  17
BRANCH  12  19
ATOM     19  C   UNL     1       7.946   6.082  18.987  0.00  0.00    +0.000 C 
BRANCH  19  20
ATOM     20  O   UNL     1       7.932   5.476  20.269  0.00  0.00    +0.000 OA
ATOM     21  H   UNL     1       8.718   5.781  20.758  0.00  0.00    +0.000 HD
ENDBRANCH  19  20
ENDBRANCH  12  19
ENDBRANCH   9  10
BRANCH   1  22
ATOM     22  N   UNL     1       0.347   3.315  20.441  0.00  0.00    +0.000 N 
ATOM     23  H   UNL     1      -0.307   3.956  20.008  0.00  0.00    +0.000 HD
ATOM     24  H   UNL     1       0.580   3.475  21.409  0.00  0.00    +0.000 HD
ENDBRANCH   1  22
TORSDOF 5
ENDMDL
MODEL 6
REMARK VINA RESULT:      -7.0      3.694      4.832
REMARK  Name = 
REMARK  5 active torsions:
REMARK  status: ('A' for Active; 'I' for Inactive)
REMARK    1  A    between atoms: N_1  and  C_2
REMARK    2  A    between atoms: N_10  and  C_11
REMARK    3  A    between atoms: C_13  and  C_14
REMARK    4  A    between atoms: C_14  and  O_15
REMARK    5  A    between atoms: C_16  and  O_17
REMARK                            x       y       z     vdW  Elec       q    Type
REMARK                         _______ _______ _______ _____ _____    ______ ____
ROOT
ATOM      1  C   UNL     1       1.827   9.319  18.729  0.00  0.00    +0.000 A 
ATOM      2  N   UNL     1       1.112   9.539  19.846  0.00  0.00    +0.000 NA
ATOM      3  C   UNL     1       0.959   8.522  20.719  0.00  0.00    +0.000 A 
ATOM      4  N   UNL     1       1.453   7.273  20.632  0.00  0.00    +0.000 NA
ATOM      5  C   UNL     1       2.146   7.096  19.497  0.00  0.00    +0.000 A 
ATOM      6  C   UNL     1       2.354   8.042  18.504  0.00  0.00    +0.000 A 
ATOM      7  C   UNL     1       3.121   7.407  17.486  0.00  0.00    +0.000 A 
ATOM      8  C   UNL     1       3.373   6.115  17.895  0.00  0.00    +0.000 A 
ATOM      9  N   UNL     1       2.809   5.947  19.140  0.00  0.00    +0.000 N 
ENDROOT
BRANCH   9  10
ATOM     10  C   UNL     1       2.986   4.814  20.029  0.00  0.00    +0.000 C 
ATOM     11  O   UNL     1       4.190   4.091  19.661  0.00  0.00    +0.000 OA
ATOM     12  C   UNL     1       3.968   2.687  19.897  0.00  0.00    +0.000 C 
ATOM     13  C   UNL     1       2.605   2.553  20.589  0.00  0.00    +0.000 C 
ATOM     14  C   UNL     1       1.845   3.802  20.132  0.00  0.00    +0.000 C 
ATOM     15  F   UNL     1       0.935   4.169  21.068  0.00  0.00    +0.000 F 
ATOM     16 CL   UNL     1       0.978   3.492  18.598  0.00  0.00    +0.000 Cl
BRANCH  13  17
ATOM     17  O   UNL     1       2.790   2.535  22.021  0.00  0.00    +0.000 OA
ATOM     18  H   UNL     1       3.736   2.587  22.241  0.00  0.00    +0.000 HD
ENDBRANCH  13  17
BRANCH  12  19
ATOM     19  C   UNL     1       4.085   1.922  18.576  0.00  0.00    +0.000 C 
BRANCH  19  20
ATOM     20  O   UNL     1       4.509   2.799  17.545  0.00  0.00    +0.000 OA
ATOM     21  H   UNL     1       3.977   2.613  16.750  0.00  0.00    +0.000 HD
ENDBRANCH  19  20
ENDBRANCH  12  19
ENDBRANCH   9  10
BRANCH   1  22
ATOM     22  N   UNL     1       2.007  10.389  17.861  0.00  0.00    +0.000 N 
ATOM     23  H   UNL     1       2.740  10.198  17.189  0.00  0.00    +0.000 HD
ATOM     24  H   UNL     1       1.997  11.304  18.287  0.00  0.00    +0.000 HD
ENDBRANCH   1  22
TORSDOF 5
ENDMDL
MODEL 7
REMARK VINA RESULT:      -6.9      1.967      3.016
REMARK  Name = 
REMARK  5 active torsions:
REMARK  status: ('A' for Active; 'I' for Inactive)
REMARK    1  A    between atoms: N_1  and  C_2
REMARK    2  A    between atoms: N_10  and  C_11
REMARK    3  A    between atoms: C_13  and  C_14
REMARK    4  A    between atoms: C_14  and  O_15
REMARK    5  A    between atoms: C_16  and  O_17
REMARK                            x       y       z     vdW  Elec       q    Type
REMARK                         _______ _______ _______ _____ _____    ______ ____
ROOT
ATOM      1  C   UNL     1       7.040   5.363  16.671  0.00  0.00    +0.000 A 
ATOM      2  N   UNL     1       7.759   5.852  17.697  0.00  0.00    +0.000 NA
ATOM      3  C   UNL     1       7.258   5.734  18.943  0.00  0.00    +0.000 A 
ATOM      4  N   UNL     1       6.099   5.162  19.321  0.00  0.00    +0.000 NA
ATOM      5  C   UNL     1       5.411   4.703  18.266  0.00  0.00    +0.000 A 
ATOM      6  C   UNL     1       5.792   4.784  16.935  0.00  0.00    +0.000 A 
ATOM      7  C   UNL     1       4.749   4.188  16.171  0.00  0.00    +0.000 A 
ATOM      8  C   UNL     1       3.784   3.748  17.051  0.00  0.00    +0.000 A 
ATOM      9  N   UNL     1       4.215   4.030  18.328  0.00  0.00    +0.000 N 
ENDROOT
BRANCH   9  10
ATOM     10  C   UNL     1       3.612   3.578  19.568  0.00  0.00    +0.000 C 
ATOM     11  O   UNL     1       3.020   2.266  19.372  0.00  0.00    +0.000 OA
ATOM     12  C   UNL     1       1.832   2.177  20.182  0.00  0.00    +0.000 C 
ATOM     13  C   UNL     1       1.770   3.448  21.039  0.00  0.00    +0.000 C 
ATOM     14  C   UNL     1       2.558   4.475  20.218  0.00  0.00    +0.000 C 
ATOM     15  F   UNL     1       3.124   5.398  21.036  0.00  0.00    +0.000 F 
ATOM     16 CL   UNL     1       1.486   5.325  19.067  0.00  0.00    +0.000 Cl
BRANCH  13  17
ATOM     17  O   UNL     1       2.390   3.199  22.319  0.00  0.00    +0.000 OA
ATOM     18  H   UNL     1       1.712   3.042  22.999  0.00  0.00    +0.000 HD
ENDBRANCH  13  17
BRANCH  12  19
ATOM     19  C   UNL     1       0.614   1.962  19.280  0.00  0.00    +0.000 C 
BRANCH  19  20
ATOM     20  O   UNL     1       1.025   1.863  17.926  0.00  0.00    +0.000 OA
ATOM     21  H   UNL     1       1.917   2.250  17.850  0.00  0.00    +0.000 HD
ENDBRANCH  19  20
ENDBRANCH  12  19
ENDBRANCH   9  10
BRANCH   1  22
ATOM     22  N   UNL     1       7.590   5.456  15.399  0.00  0.00    +0.000 N 
ATOM     23  H   UNL     1       8.602   5.409  15.432  0.00  0.00    +0.000 HD
ATOM     24  H   UNL     1       7.180   6.151  14.795  0.00  0.00    +0.000 HD
ENDBRANCH   1  22
TORSDOF 5
ENDMDL
MODEL 8
REMARK VINA RESULT:      -6.8      2.244      3.145
REMARK  Name = 
REMARK  5 active torsions:
REMARK  status: ('A' for Active; 'I' for Inactive)
REMARK    1  A    between atoms: N_1  and  C_2
REMARK    2  A    between atoms: N_10  and  C_11
REMARK    3  A    between atoms: C_13  and  C_14
REMARK    4  A    between atoms: C_14  and  O_15
REMARK    5  A    between atoms: C_16  and  O_17
REMARK                            x       y       z     vdW  Elec       q    Type
REMARK                         _______ _______ _______ _____ _____    ______ ____
ROOT
ATOM      1  C   UNL     1       7.002   6.607  17.784  0.00  0.00    +0.000 A 
ATOM      2  N   UNL     1       7.923   6.246  18.695  0.00  0.00    +0.000 NA
ATOM      3  C   UNL     1       7.535   5.462  19.721  0.00  0.00    +0.000 A 
ATOM      4  N   UNL     1       6.310   4.959  19.964  0.00  0.00    +0.000 NA
ATOM      5  C   UNL     1       5.423   5.357  19.041  0.00  0.00    +0.000 A 
ATOM      6  C   UNL     1       5.678   6.183  17.956  0.00  0.00    +0.000 A 
ATOM      7  C   UNL     1       4.444   6.349  17.266  0.00  0.00    +0.000 A 
ATOM      8  C   UNL     1       3.490   5.611  17.931  0.00  0.00    +0.000 A 
ATOM      9  N   UNL     1       4.104   4.978  18.988  0.00  0.00    +0.000 N 
ENDROOT
BRANCH   9  10
ATOM     10  C   UNL     1       3.529   3.953  19.841  0.00  0.00    +0.000 C 
ATOM     11  O   UNL     1       3.063   2.846  19.025  0.00  0.00    +0.000 OA
ATOM     12  C   UNL     1       1.877   2.300  19.635  0.00  0.00    +0.000 C 
ATOM     13  C   UNL     1       1.690   3.013  20.981  0.00  0.00    +0.000 C 
ATOM     14  C   UNL     1       2.391   4.360  20.776  0.00  0.00    +0.000 C 
ATOM     15  F   UNL     1       2.859   4.831  21.958  0.00  0.00    +0.000 F 
ATOM     16 CL   UNL     1       1.260   5.568  20.098  0.00  0.00    +0.000 Cl
BRANCH  13  17
ATOM     17  O   UNL     1       2.314   2.240  22.029  0.00  0.00    +0.000 OA
ATOM     18  H   UNL     1       1.914   2.452  22.890  0.00  0.00    +0.000 HD
ENDBRANCH  13  17
BRANCH  12  19
ATOM     19  C   UNL     1       0.695   2.441  18.673  0.00  0.00    +0.000 C 
BRANCH  19  20
ATOM     20  O   UNL     1       1.041   3.309  17.606  0.00  0.00    +0.000 OA
ATOM     21  H   UNL     1       0.246   3.815  17.355  0.00  0.00    +0.000 HD
ENDBRANCH  19  20
ENDBRANCH  12  19
ENDBRANCH   9  10
BRANCH   1  22
ATOM     22  N   UNL     1       7.428   7.381  16.712  0.00  0.00    +0.000 N 
ATOM     23  H   UNL     1       6.842   8.199  16.594  0.00  0.00    +0.000 HD
ATOM     24  H   UNL     1       7.687   6.873  15.881  0.00  0.00    +0.000 HD
ENDBRANCH   1  22
TORSDOF 5
ENDMDL
MODEL 9
REMARK VINA RESULT:      -6.7      2.331      3.111
REMARK  Name = 
REMARK  5 active torsions:
REMARK  status: ('A' for Active; 'I' for Inactive)
REMARK    1  A    between atoms: N_1  and  C_2
REMARK    2  A    between atoms: N_10  and  C_11
REMARK    3  A    between atoms: C_13  and  C_14
REMARK    4  A    between atoms: C_14  and  O_15
REMARK    5  A    between atoms: C_16  and  O_17
REMARK                            x       y       z     vdW  Elec       q    Type
REMARK                         _______ _______ _______ _____ _____    ______ ____
ROOT
ATOM      1  C   UNL     1       7.238   6.737  17.744  0.00  0.00    +0.000 A 
ATOM      2  N   UNL     1       8.096   6.236  18.651  0.00  0.00    +0.000 NA
ATOM      3  C   UNL     1       7.598   5.491  19.658  0.00  0.00    +0.000 A 
ATOM      4  N   UNL     1       6.315   5.153  19.886  0.00  0.00    +0.000 NA
ATOM      5  C   UNL     1       5.496   5.686  18.966  0.00  0.00    +0.000 A 
ATOM      6  C   UNL     1       5.869   6.492  17.901  0.00  0.00    +0.000 A 
ATOM      7  C   UNL     1       4.673   6.837  17.208  0.00  0.00    +0.000 A 
ATOM      8  C   UNL     1       3.623   6.220  17.853  0.00  0.00    +0.000 A 
ATOM      9  N   UNL     1       4.138   5.489  18.899  0.00  0.00    +0.000 N 
ENDROOT
BRANCH   9  10
ATOM     10  C   UNL     1       3.425   4.534  19.728  0.00  0.00    +0.000 C 
ATOM     11  O   UNL     1       4.099   3.249  19.680  0.00  0.00    +0.000 OA
ATOM     12  C   UNL     1       3.103   2.210  19.751  0.00  0.00    +0.000 C 
ATOM     13  C   UNL     1       1.753   2.893  20.009  0.00  0.00    +0.000 C 
ATOM     14  C   UNL     1       1.944   4.299  19.432  0.00  0.00    +0.000 C 
ATOM     15  F   UNL     1       1.156   5.188  20.086  0.00  0.00    +0.000 F 
ATOM     16 CL   UNL     1       1.512   4.337  17.697  0.00  0.00    +0.000 Cl
BRANCH  13  17
ATOM     17  O   UNL     1       1.493   2.929  21.429  0.00  0.00    +0.000 OA
ATOM     18  H   UNL     1       1.572   3.840  21.765  0.00  0.00    +0.000 HD
ENDBRANCH  13  17
BRANCH  12  19
ATOM     19  C   UNL     1       3.152   1.366  18.475  0.00  0.00    +0.000 C 
BRANCH  19  20
ATOM     20  O   UNL     1       4.364   0.630  18.428  0.00  0.00    +0.000 OA
ATOM     21  H   UNL     1       4.405   0.061  19.219  0.00  0.00    +0.000 HD
ENDBRANCH  19  20
ENDBRANCH  12  19
ENDBRANCH   9  10
BRANCH   1  22
ATOM     22  N   UNL     1       7.773   7.468  16.690  0.00  0.00    +0.000 N 
ATOM     23  H   UNL     1       7.828   8.453  16.918  0.00  0.00    +0.000 HD
ATOM     24  H   UNL     1       7.436   7.223  15.772  0.00  0.00    +0.000 HD
ENDBRANCH   1  22
TORSDOF 5
ENDMDL
