MODEL 1
REMARK VINA RESULT:      -8.8      0.000      0.000
REMARK  Name = 
REMARK  4 active torsions:
REMARK  status: ('A' for Active; 'I' for Inactive)
REMARK    1  A    between atoms: C_2  and  C_22
REMARK    2  A    between atoms: N_3  and  C_4
REMARK    3  A    between atoms: C_8  and  C_9
REMARK    4  A    between atoms: C_9  and  C_10
REMARK                            x       y       z     vdW  Elec       q    Type
REMARK                         _______ _______ _______ _____ _____    ______ ____
ROOT
ATOM      1  C   UNL     1       7.791   7.897  17.917  0.00  0.00    +0.000 A 
ATOM      2  C   UNL     1       8.318   6.994  18.840  0.00  0.00    +0.000 A 
ATOM      3  C   UNL     1       7.719   5.751  19.051  0.00  0.00    +0.000 A 
ATOM      4  C   UNL     1       6.589   5.388  18.326  0.00  0.00    +0.000 A 
ATOM      5  C   UNL     1       6.041   6.272  17.390  0.00  0.00    +0.000 A 
ATOM      6  C   UNL     1       6.625   7.544  17.221  0.00  0.00    +0.000 A 
ENDROOT
BRANCH   1   9
ATOM      7  O   UNL     1       9.088   9.702  19.775  0.00  0.00    +0.000 OA
ATOM      8  C   UNL     1       8.968   9.990  18.586  0.00  0.00    +0.000 C 
ATOM      9  N   UNL     1       8.383   9.151  17.645  0.00  0.00    +0.000 N 
ATOM     10  H   UNL     1       8.495   9.418  16.674  0.00  0.00    +0.000 HD
BRANCH   8  11
ATOM     11  C   UNL     1       9.508  11.252  18.089  0.00  0.00    +0.000 A 
ATOM     12  C   UNL     1      10.851  11.515  17.873  0.00  0.00    +0.000 A 
ATOM     13  C   UNL     1      11.093  12.841  17.427  0.00  0.00    +0.000 A 
ATOM     14  C   UNL     1       9.925  13.559  17.315  0.00  0.00    +0.000 A 
ATOM     15  S   UNL     1       8.549  12.621  17.726  0.00  0.00    +0.000 S 
ENDBRANCH   8  11
ENDBRANCH   1   9
BRANCH   5  16
ATOM     16  C   UNL     1       4.850   5.848  16.558  0.00  0.00    +0.000 C 
BRANCH  16  17
ATOM     17  C   UNL     1       3.944   4.850  17.269  0.00  0.00    +0.000 A 
ATOM     18  N   UNL     1       4.032   3.610  16.885  0.00  0.00    +0.000 NA
ATOM     19  N   UNL     1       3.238   2.702  17.508  0.00  0.00    +0.000 N 
ATOM     20  C   UNL     1       2.338   2.967  18.502  0.00  0.00    +0.000 A 
ATOM     21  O   UNL     1       1.609   2.103  18.976  0.00  0.00    +0.000 OA
ATOM     22  C   UNL     1       2.305   4.371  18.987  0.00  0.00    +0.000 A 
ATOM     23  C   UNL     1       3.054   5.312  18.386  0.00  0.00    +0.000 A 
ATOM     24  C   UNL     1       3.031   6.751  18.824  0.00  0.00    +0.000 C 
ATOM     25  C   UNL     1       1.905   7.078  19.813  0.00  0.00    +0.000 C 
ATOM     26  C   UNL     1       1.747   5.976  20.853  0.00  0.00    +0.000 C 
ATOM     27  C   UNL     1       1.425   4.643  20.176  0.00  0.00    +0.000 C 
ATOM     28  H   UNL     1       3.280   1.749  17.163  0.00  0.00    +0.000 HD
ENDBRANCH  16  17
ENDBRANCH   5  16
TORSDOF 4
ENDMDL
MODEL 2
REMARK VINA RESULT:      -8.6      3.632      6.957
REMARK  Name = 
REMARK  4 active torsions:
REMARK  status: ('A' for Active; 'I' for Inactive)
REMARK    1  A    between atoms: C_2  and  C_22
REMARK    2  A    between atoms: N_3  and  C_4
REMARK    3  A    between atoms: C_8  and  C_9
REMARK    4  A    between atoms: C_9  and  C_10
REMARK                            x       y       z     vdW  Elec       q    Type
REMARK                         _______ _______ _______ _____ _____    ______ ____
ROOT
ATOM      1  C   UNL     1       1.783   5.022  20.541  0.00  0.00    +0.000 A 
ATOM      2  C   UNL     1       0.949   3.912  20.677  0.00  0.00    +0.000 A 
ATOM      3  C   UNL     1       1.398   2.632  20.349  0.00  0.00    +0.000 A 
ATOM      4  C   UNL     1       2.699   2.443  19.895  0.00  0.00    +0.000 A 
ATOM      5  C   UNL     1       3.559   3.538  19.753  0.00  0.00    +0.000 A 
ATOM      6  C   UNL     1       3.079   4.832  20.040  0.00  0.00    +0.000 A 
ENDROOT
BRANCH   1   9
ATOM      7  O   UNL     1       2.336   7.498  19.142  0.00  0.00    +0.000 OA
ATOM      8  C   UNL     1       1.703   7.490  20.196  0.00  0.00    +0.000 C 
ATOM      9  N   UNL     1       1.382   6.331  20.893  0.00  0.00    +0.000 N 
ATOM     10  H   UNL     1       0.716   6.432  21.649  0.00  0.00    +0.000 HD
BRANCH   8  11
ATOM     11  C   UNL     1       1.197   8.744  20.747  0.00  0.00    +0.000 A 
ATOM     12  C   UNL     1       0.938   8.978  22.087  0.00  0.00    +0.000 A 
ATOM     13  C   UNL     1       0.412  10.274  22.334  0.00  0.00    +0.000 A 
ATOM     14  C   UNL     1       0.282  10.997  21.170  0.00  0.00    +0.000 A 
ATOM     15  S   UNL     1       0.816  10.115  19.800  0.00  0.00    +0.000 S 
ENDBRANCH   8  11
ENDBRANCH   1   9
BRANCH   5  16
ATOM     16  C   UNL     1       4.993   3.321  19.321  0.00  0.00    +0.000 C 
BRANCH  16  17
ATOM     17  C   UNL     1       5.339   4.020  18.011  0.00  0.00    +0.000 A 
ATOM     18  N   UNL     1       4.695   3.622  16.952  0.00  0.00    +0.000 NA
ATOM     19  N   UNL     1       4.982   4.234  15.776  0.00  0.00    +0.000 N 
ATOM     20  C   UNL     1       5.898   5.231  15.590  0.00  0.00    +0.000 A 
ATOM     21  O   UNL     1       6.149   5.695  14.483  0.00  0.00    +0.000 OA
ATOM     22  C   UNL     1       6.567   5.733  16.817  0.00  0.00    +0.000 A 
ATOM     23  C   UNL     1       6.335   5.142  18.003  0.00  0.00    +0.000 A 
ATOM     24  C   UNL     1       7.012   5.597  19.267  0.00  0.00    +0.000 C 
ATOM     25  C   UNL     1       8.157   6.590  19.032  0.00  0.00    +0.000 C 
ATOM     26  C   UNL     1       7.788   7.617  17.971  0.00  0.00    +0.000 C 
ATOM     27  C   UNL     1       7.468   6.925  16.645  0.00  0.00    +0.000 C 
ATOM     28  H   UNL     1       4.511   3.878  14.951  0.00  0.00    +0.000 HD
ENDBRANCH  16  17
ENDBRANCH   5  16
TORSDOF 4
ENDMDL
MODEL 3
REMARK VINA RESULT:      -8.4      3.854      7.199
REMARK  Name = 
REMARK  4 active torsions:
REMARK  status: ('A' for Active; 'I' for Inactive)
REMARK    1  A    between atoms: C_2  and  C_22
REMARK    2  A    between atoms: N_3  and  C_4
REMARK    3  A    between atoms: C_8  and  C_9
REMARK    4  A    between atoms: C_9  and  C_10
REMARK                            x       y       z     vdW  Elec       q    Type
REMARK                         _______ _______ _______ _____ _____    ______ ____
ROOT
ATOM      1  C   UNL     1       1.855   5.071  20.316  0.00  0.00    +0.000 A 
ATOM      2  C   UNL     1       0.974   4.013  20.094  0.00  0.00    +0.000 A 
ATOM      3  C   UNL     1       1.437   2.770  19.663  0.00  0.00    +0.000 A 
ATOM      4  C   UNL     1       2.798   2.563  19.463  0.00  0.00    +0.000 A 
ATOM      5  C   UNL     1       3.706   3.605  19.682  0.00  0.00    +0.000 A 
ATOM      6  C   UNL     1       3.222   4.871  20.069  0.00  0.00    +0.000 A 
ENDROOT
BRANCH   1   9
ATOM      7  O   UNL     1       2.211   7.655  19.055  0.00  0.00    +0.000 OA
ATOM      8  C   UNL     1       1.659   7.551  20.149  0.00  0.00    +0.000 C 
ATOM      9  N   UNL     1       1.434   6.336  20.786  0.00  0.00    +0.000 N 
ATOM     10  H   UNL     1       0.823   6.358  21.593  0.00  0.00    +0.000 HD
BRANCH   8  11
ATOM     11  C   UNL     1       1.150   8.743  20.820  0.00  0.00    +0.000 A 
ATOM     12  C   UNL     1       0.890   8.844  22.177  0.00  0.00    +0.000 A 
ATOM     13  C   UNL     1       0.361  10.108  22.550  0.00  0.00    +0.000 A 
ATOM     14  C   UNL     1       0.229  10.941  21.463  0.00  0.00    +0.000 A 
ATOM     15  S   UNL     1       0.766  10.200  20.013  0.00  0.00    +0.000 S 
ENDBRANCH   8  11
ENDBRANCH   1   9
BRANCH   5  16
ATOM     16  C   UNL     1       5.191   3.358  19.525  0.00  0.00    +0.000 C 
BRANCH  16  17
ATOM     17  C   UNL     1       5.919   4.493  18.814  0.00  0.00    +0.000 A 
ATOM     18  N   UNL     1       6.617   5.295  19.565  0.00  0.00    +0.000 NA
ATOM     19  N   UNL     1       7.277   6.311  18.954  0.00  0.00    +0.000 N 
ATOM     20  C   UNL     1       7.274   6.583  17.614  0.00  0.00    +0.000 A 
ATOM     21  O   UNL     1       7.847   7.557  17.140  0.00  0.00    +0.000 OA
ATOM     22  C   UNL     1       6.541   5.614  16.759  0.00  0.00    +0.000 A 
ATOM     23  C   UNL     1       5.849   4.606  17.320  0.00  0.00    +0.000 A 
ATOM     24  C   UNL     1       5.069   3.619  16.496  0.00  0.00    +0.000 C 
ATOM     25  C   UNL     1       4.922   4.022  15.023  0.00  0.00    +0.000 C 
ATOM     26  C   UNL     1       6.225   4.589  14.475  0.00  0.00    +0.000 C 
ATOM     27  C   UNL     1       6.650   5.822  15.274  0.00  0.00    +0.000 C 
ATOM     28  H   UNL     1       7.775   6.957  19.556  0.00  0.00    +0.000 HD
ENDBRANCH  16  17
ENDBRANCH   5  16
TORSDOF 4
ENDMDL
MODEL 4
REMARK VINA RESULT:      -8.3      1.501      2.290
REMARK  Name = 
REMARK  4 active torsions:
REMARK  status: ('A' for Active; 'I' for Inactive)
REMARK    1  A    between atoms: C_2  and  C_22
REMARK    2  A    between atoms: N_3  and  C_4
REMARK    3  A    between atoms: C_8  and  C_9
REMARK    4  A    between atoms: C_9  and  C_10
REMARK                            x       y       z     vdW  Elec       q    Type
REMARK                         _______ _______ _______ _____ _____    ______ ____
ROOT
ATOM      1  C   UNL     1       7.884   8.195  17.969  0.00  0.00    +0.000 A 
ATOM      2  C   UNL     1       8.513   7.208  18.729  0.00  0.00    +0.000 A 
ATOM      3  C   UNL     1       7.897   5.977  18.960  0.00  0.00    +0.000 A 
ATOM      4  C   UNL     1       6.645   5.712  18.418  0.00  0.00    +0.000 A 
ATOM      5  C   UNL     1       5.991   6.681  17.649  0.00  0.00    +0.000 A 
ATOM      6  C   UNL     1       6.602   7.938  17.463  0.00  0.00    +0.000 A 
ENDROOT
BRANCH   1   9
ATOM      7  O   UNL     1       9.166  10.030  19.809  0.00  0.00    +0.000 OA
ATOM      8  C   UNL     1       9.062  10.296  18.613  0.00  0.00    +0.000 C 
ATOM      9  N   UNL     1       8.485   9.442  17.681  0.00  0.00    +0.000 N 
ATOM     10  H   UNL     1       8.610   9.689  16.707  0.00  0.00    +0.000 HD
BRANCH   8  11
ATOM     11  C   UNL     1       9.612  11.547  18.098  0.00  0.00    +0.000 A 
ATOM     12  C   UNL     1      10.909  11.719  17.643  0.00  0.00    +0.000 A 
ATOM     13  C   UNL     1      11.185  13.052  17.240  0.00  0.00    +0.000 A 
ATOM     14  C   UNL     1      10.087  13.866  17.399  0.00  0.00    +0.000 A 
ATOM     15  S   UNL     1       8.732  13.010  18.011  0.00  0.00    +0.000 S 
ENDBRANCH   8  11
ENDBRANCH   1   9
BRANCH   5  16
ATOM     16  C   UNL     1       4.658   6.364  17.008  0.00  0.00    +0.000 C 
BRANCH  16  17
ATOM     17  C   UNL     1       3.596   5.929  18.011  0.00  0.00    +0.000 A 
ATOM     18  N   UNL     1       3.016   6.877  18.690  0.00  0.00    +0.000 NA
ATOM     19  N   UNL     1       2.063   6.513  19.586  0.00  0.00    +0.000 N 
ATOM     20  C   UNL     1       1.656   5.237  19.855  0.00  0.00    +0.000 A 
ATOM     21  O   UNL     1       0.830   4.980  20.724  0.00  0.00    +0.000 OA
ATOM     22  C   UNL     1       2.266   4.173  19.017  0.00  0.00    +0.000 A 
ATOM     23  C   UNL     1       3.232   4.479  18.134  0.00  0.00    +0.000 A 
ATOM     24  C   UNL     1       3.899   3.430  17.286  0.00  0.00    +0.000 C 
ATOM     25  C   UNL     1       3.570   1.993  17.707  0.00  0.00    +0.000 C 
ATOM     26  C   UNL     1       2.095   1.845  18.057  0.00  0.00    +0.000 C 
ATOM     27  C   UNL     1       1.721   2.784  19.205  0.00  0.00    +0.000 C 
ATOM     28  H   UNL     1       1.657   7.257  20.144  0.00  0.00    +0.000 HD
ENDBRANCH  16  17
ENDBRANCH   5  16
TORSDOF 4
ENDMDL
MODEL 5
REMARK VINA RESULT:      -8.2      5.532      7.946
REMARK  Name = 
REMARK  4 active torsions:
REMARK  status: ('A' for Active; 'I' for Inactive)
REMARK    1  A    between atoms: C_2  and  C_22
REMARK    2  A    between atoms: N_3  and  C_4
REMARK    3  A    between atoms: C_8  and  C_9
REMARK    4  A    between atoms: C_9  and  C_10
REMARK                            x       y       z     vdW  Elec       q    Type
REMARK                         _______ _______ _______ _____ _____    ______ ____
ROOT
ATOM      1  C   UNL     1       0.243   9.781  19.866  0.00  0.00    +0.000 A 
ATOM      2  C   UNL     1       0.578  10.000  18.531  0.00  0.00    +0.000 A 
ATOM      3  C   UNL     1       1.534   9.210  17.891  0.00  0.00    +0.000 A 
ATOM      4  C   UNL     1       2.159   8.176  18.579  0.00  0.00    +0.000 A 
ATOM      5  C   UNL     1       1.839   7.930  19.919  0.00  0.00    +0.000 A 
ATOM      6  C   UNL     1       0.908   8.765  20.569  0.00  0.00    +0.000 A 
ENDROOT
BRANCH   1   9
ATOM      7  O   UNL     1       0.622  12.035  21.646  0.00  0.00    +0.000 OA
ATOM      8  C   UNL     1      -0.500  11.591  21.412  0.00  0.00    +0.000 C 
ATOM      9  N   UNL     1      -0.744  10.533  20.544  0.00  0.00    +0.000 N 
ATOM     10  H   UNL     1      -1.712  10.368  20.298  0.00  0.00    +0.000 HD
BRANCH   8  11
ATOM     11  C   UNL     1      -1.669  12.220  22.019  0.00  0.00    +0.000 A 
ATOM     12  C   UNL     1      -2.254  11.830  23.213  0.00  0.00    +0.000 A 
ATOM     13  C   UNL     1      -3.405  12.592  23.543  0.00  0.00    +0.000 A 
ATOM     14  C   UNL     1      -3.672  13.546  22.588  0.00  0.00    +0.000 A 
ATOM     15  S   UNL     1      -2.519  13.528  21.318  0.00  0.00    +0.000 S 
ENDBRANCH   8  11
ENDBRANCH   1   9
BRANCH   5  16
ATOM     16  C   UNL     1       2.473   6.763  20.645  0.00  0.00    +0.000 C 
BRANCH  16  17
ATOM     17  C   UNL     1       2.073   5.408  20.071  0.00  0.00    +0.000 A 
ATOM     18  N   UNL     1       0.947   4.909  20.493  0.00  0.00    +0.000 NA
ATOM     19  N   UNL     1       0.568   3.706  19.993  0.00  0.00    +0.000 N 
ATOM     20  C   UNL     1       1.263   2.955  19.086  0.00  0.00    +0.000 A 
ATOM     21  O   UNL     1       0.885   1.846  18.725  0.00  0.00    +0.000 OA
ATOM     22  C   UNL     1       2.503   3.572  18.552  0.00  0.00    +0.000 A 
ATOM     23  C   UNL     1       2.935   4.750  19.035  0.00  0.00    +0.000 A 
ATOM     24  C   UNL     1       4.201   5.398  18.544  0.00  0.00    +0.000 C 
ATOM     25  C   UNL     1       5.063   4.484  17.664  0.00  0.00    +0.000 C 
ATOM     26  C   UNL     1       4.205   3.687  16.691  0.00  0.00    +0.000 C 
ATOM     27  C   UNL     1       3.199   2.821  17.450  0.00  0.00    +0.000 C 
ATOM     28  H   UNL     1      -0.285   3.306  20.369  0.00  0.00    +0.000 HD
ENDBRANCH  16  17
ENDBRANCH   5  16
TORSDOF 4
ENDMDL
MODEL 6
REMARK VINA RESULT:      -8.2      5.411      7.754
REMARK  Name = 
REMARK  4 active torsions:
REMARK  status: ('A' for Active; 'I' for Inactive)
REMARK    1  A    between atoms: C_2  and  C_22
REMARK    2  A    between atoms: N_3  and  C_4
REMARK    3  A    between atoms: C_8  and  C_9
REMARK    4  A    between atoms: C_9  and  C_10
REMARK                            x       y       z     vdW  Elec       q    Type
REMARK                         _______ _______ _______ _____ _____    ______ ____
ROOT
ATOM      1  C   UNL     1       0.403   9.900  20.013  0.00  0.00    +0.000 A 
ATOM      2  C   UNL     1       0.556  10.177  18.655  0.00  0.00    +0.000 A 
ATOM      3  C   UNL     1       1.344   9.362  17.841  0.00  0.00    +0.000 A 
ATOM      4  C   UNL     1       1.979   8.246  18.375  0.00  0.00    +0.000 A 
ATOM      5  C   UNL     1       1.840   7.942  19.733  0.00  0.00    +0.000 A 
ATOM      6  C   UNL     1       1.081   8.799  20.557  0.00  0.00    +0.000 A 
ENDROOT
BRANCH   1   9
ATOM      7  O   UNL     1       1.108  12.315  21.450  0.00  0.00    +0.000 OA
ATOM      8  C   UNL     1      -0.010  11.815  21.556  0.00  0.00    +0.000 C 
ATOM      9  N   UNL     1      -0.413  10.676  20.868  0.00  0.00    +0.000 N 
ATOM     10  H   UNL     1      -1.402  10.458  20.901  0.00  0.00    +0.000 HD
BRANCH   8  11
ATOM     11  C   UNL     1      -1.014  12.456  22.400  0.00  0.00    +0.000 A 
ATOM     12  C   UNL     1      -2.167  11.848  22.870  0.00  0.00    +0.000 A 
ATOM     13  C   UNL     1      -2.984  12.721  23.635  0.00  0.00    +0.000 A 
ATOM     14  C   UNL     1      -2.432  13.977  23.730  0.00  0.00    +0.000 A 
ATOM     15  S   UNL     1      -0.926  14.084  22.916  0.00  0.00    +0.000 S 
ENDBRANCH   8  11
ENDBRANCH   1   9
BRANCH   5  16
ATOM     16  C   UNL     1       2.479   6.691  20.296  0.00  0.00    +0.000 C 
BRANCH  16  17
ATOM     17  C   UNL     1       3.096   5.797  19.227  0.00  0.00    +0.000 A 
ATOM     18  N   UNL     1       4.180   6.238  18.657  0.00  0.00    +0.000 NA
ATOM     19  N   UNL     1       4.751   5.456  17.705  0.00  0.00    +0.000 N 
ATOM     20  C   UNL     1       4.289   4.244  17.276  0.00  0.00    +0.000 A 
ATOM     21  O   UNL     1       4.826   3.622  16.366  0.00  0.00    +0.000 OA
ATOM     22  C   UNL     1       3.099   3.715  17.990  0.00  0.00    +0.000 A 
ATOM     23  C   UNL     1       2.483   4.462  18.922  0.00  0.00    +0.000 A 
ATOM     24  C   UNL     1       1.258   3.979  19.650  0.00  0.00    +0.000 C 
ATOM     25  C   UNL     1       0.644   2.707  19.052  0.00  0.00    +0.000 C 
ATOM     26  C   UNL     1       1.723   1.707  18.658  0.00  0.00    +0.000 C 
ATOM     27  C   UNL     1       2.670   2.320  17.625  0.00  0.00    +0.000 C 
ATOM     28  H   UNL     1       5.565   5.836  17.234  0.00  0.00    +0.000 HD
ENDBRANCH  16  17
ENDBRANCH   5  16
TORSDOF 4
ENDMDL
MODEL 7
REMARK VINA RESULT:      -8.2      3.882      6.822
REMARK  Name = 
REMARK  4 active torsions:
REMARK  status: ('A' for Active; 'I' for Inactive)
REMARK    1  A    between atoms: C_2  and  C_22
REMARK    2  A    between atoms: N_3  and  C_4
REMARK    3  A    between atoms: C_8  and  C_9
REMARK    4  A    between atoms: C_9  and  C_10
REMARK                            x       y       z     vdW  Elec       q    Type
REMARK                         _______ _______ _______ _____ _____    ______ ____
ROOT
ATOM      1  C   UNL     1       2.034   5.603  20.135  0.00  0.00    +0.000 A 
ATOM      2  C   UNL     1       1.116   4.634  20.539  0.00  0.00    +0.000 A 
ATOM      3  C   UNL     1       1.462   3.282  20.562  0.00  0.00    +0.000 A 
ATOM      4  C   UNL     1       2.742   2.883  20.195  0.00  0.00    +0.000 A 
ATOM      5  C   UNL     1       3.685   3.834  19.789  0.00  0.00    +0.000 A 
ATOM      6  C   UNL     1       3.310   5.191  19.723  0.00  0.00    +0.000 A 
ENDROOT
BRANCH   1   9
ATOM      7  O   UNL     1       2.130   7.442  17.899  0.00  0.00    +0.000 OA
ATOM      8  C   UNL     1       1.830   7.827  19.028  0.00  0.00    +0.000 C 
ATOM      9  N   UNL     1       1.739   6.986  20.130  0.00  0.00    +0.000 N 
ATOM     10  H   UNL     1       1.319   7.380  20.963  0.00  0.00    +0.000 HD
BRANCH   8  11
ATOM     11  C   UNL     1       1.493   9.230  19.248  0.00  0.00    +0.000 A 
ATOM     12  C   UNL     1       1.695  10.252  18.335  0.00  0.00    +0.000 A 
ATOM     13  C   UNL     1       1.312  11.526  18.832  0.00  0.00    +0.000 A 
ATOM     14  C   UNL     1       0.827  11.443  20.117  0.00  0.00    +0.000 A 
ATOM     15  S   UNL     1       0.817   9.831  20.700  0.00  0.00    +0.000 S 
ENDBRANCH   8  11
ENDBRANCH   1   9
BRANCH   5  16
ATOM     16  C   UNL     1       5.096   3.402  19.453  0.00  0.00    +0.000 C 
BRANCH  16  17
ATOM     17  C   UNL     1       5.905   4.486  18.749  0.00  0.00    +0.000 A 
ATOM     18  N   UNL     1       6.605   5.276  19.511  0.00  0.00    +0.000 NA
ATOM     19  N   UNL     1       7.337   6.245  18.906  0.00  0.00    +0.000 N 
ATOM     20  C   UNL     1       7.405   6.482  17.562  0.00  0.00    +0.000 A 
ATOM     21  O   UNL     1       8.042   7.418  17.091  0.00  0.00    +0.000 OA
ATOM     22  C   UNL     1       6.668   5.525  16.698  0.00  0.00    +0.000 A 
ATOM     23  C   UNL     1       5.907   4.563  17.250  0.00  0.00    +0.000 A 
ATOM     24  C   UNL     1       5.120   3.590  16.415  0.00  0.00    +0.000 C 
ATOM     25  C   UNL     1       5.058   3.961  14.928  0.00  0.00    +0.000 C 
ATOM     26  C   UNL     1       6.408   4.456  14.426  0.00  0.00    +0.000 C 
ATOM     27  C   UNL     1       6.852   5.689  15.214  0.00  0.00    +0.000 C 
ATOM     28  H   UNL     1       7.836   6.884  19.515  0.00  0.00    +0.000 HD
ENDBRANCH  16  17
ENDBRANCH   5  16
TORSDOF 4
ENDMDL
MODEL 8
REMARK VINA RESULT:      -8.1      5.059      7.828
REMARK  Name = 
REMARK  4 active torsions:
REMARK  status: ('A' for Active; 'I' for Inactive)
REMARK    1  A    between atoms: C_2  and  C_22
REMARK    2  A    between atoms: N_3  and  C_4
REMARK    3  A    between atoms: C_8  and  C_9
REMARK    4  A    between atoms: C_9  and  C_10
REMARK                            x       y       z     vdW  Elec       q    Type
REMARK                         _______ _______ _______ _____ _____    ______ ____
ROOT
ATOM      1  C   UNL     1       0.452   9.638  19.658  0.00  0.00    +0.000 A 
ATOM      2  C   UNL     1       0.876   9.980  18.374  0.00  0.00    +0.000 A 
ATOM      3  C   UNL     1       1.866   9.241  17.725  0.00  0.00    +0.000 A 
ATOM      4  C   UNL     1       2.436   8.137  18.349  0.00  0.00    +0.000 A 
ATOM      5  C   UNL     1       2.027   7.768  19.635  0.00  0.00    +0.000 A 
ATOM      6  C   UNL     1       1.062   8.551  20.301  0.00  0.00    +0.000 A 
ENDROOT
BRANCH   1   9
ATOM      7  O   UNL     1       0.731  11.725  21.650  0.00  0.00    +0.000 OA
ATOM      8  C   UNL     1      -0.376  11.312  21.311  0.00  0.00    +0.000 C 
ATOM      9  N   UNL     1      -0.571  10.336  20.340  0.00  0.00    +0.000 N 
ATOM     10  H   UNL     1      -1.524  10.202  20.023  0.00  0.00    +0.000 HD
BRANCH   8  11
ATOM     11  C   UNL     1      -1.578  11.894  21.900  0.00  0.00    +0.000 A 
ATOM     12  C   UNL     1      -1.975  11.739  23.218  0.00  0.00    +0.000 A 
ATOM     13  C   UNL     1      -3.208  12.381  23.508  0.00  0.00    +0.000 A 
ATOM     14  C   UNL     1      -3.722  13.012  22.398  0.00  0.00    +0.000 A 
ATOM     15  S   UNL     1      -2.703  12.842  21.029  0.00  0.00    +0.000 S 
ENDBRANCH   8  11
ENDBRANCH   1   9
BRANCH   5  16
ATOM     16  C   UNL     1       2.602   6.528  20.285  0.00  0.00    +0.000 C 
BRANCH  16  17
ATOM     17  C   UNL     1       2.552   5.299  19.385  0.00  0.00    +0.000 A 
ATOM     18  N   UNL     1       1.417   4.664  19.332  0.00  0.00    +0.000 NA
ATOM     19  N   UNL     1       1.347   3.570  18.533  0.00  0.00    +0.000 N 
ATOM     20  C   UNL     1       2.365   3.058  17.777  0.00  0.00    +0.000 A 
ATOM     21  O   UNL     1       2.245   2.026  17.126  0.00  0.00    +0.000 OA
ATOM     22  C   UNL     1       3.630   3.836  17.783  0.00  0.00    +0.000 A 
ATOM     23  C   UNL     1       3.757   4.913  18.578  0.00  0.00    +0.000 A 
ATOM     24  C   UNL     1       5.028   5.715  18.638  0.00  0.00    +0.000 C 
ATOM     25  C   UNL     1       6.215   5.047  17.931  0.00  0.00    +0.000 C 
ATOM     26  C   UNL     1       5.788   4.419  16.611  0.00  0.00    +0.000 C 
ATOM     27  C   UNL     1       4.706   3.363  16.846  0.00  0.00    +0.000 C 
ATOM     28  H   UNL     1       0.473   3.056  18.541  0.00  0.00    +0.000 HD
ENDBRANCH  16  17
ENDBRANCH   5  16
TORSDOF 4
ENDMDL
MODEL 9
REMARK VINA RESULT:      -8.0      6.364      9.210
REMARK  Name = 
REMARK  4 active torsions:
REMARK  status: ('A' for Active; 'I' for Inactive)
REMARK    1  A    between atoms: C_2  and  C_22
REMARK    2  A    between atoms: N_3  and  C_4
REMARK    3  A    between atoms: C_8  and  C_9
REMARK    4  A    between atoms: C_9  and  C_10
REMARK                            x       y       z     vdW  Elec       q    Type
REMARK                         _______ _______ _______ _____ _____    ______ ____
ROOT
ATOM      1  C   UNL     1       1.455   8.428  20.201  0.00  0.00    +0.000 A 
ATOM      2  C   UNL     1       1.035   8.223  21.515  0.00  0.00    +0.000 A 
ATOM      3  C   UNL     1       0.262   9.176  22.179  0.00  0.00    +0.000 A 
ATOM      4  C   UNL     1      -0.115  10.346  21.528  0.00  0.00    +0.000 A 
ATOM      5  C   UNL     1       0.289  10.577  20.208  0.00  0.00    +0.000 A 
ATOM      6  C   UNL     1       1.110   9.629  19.564  0.00  0.00    +0.000 A 
ENDROOT
BRANCH   1   9
ATOM      7  O   UNL     1       1.555   5.558  20.590  0.00  0.00    +0.000 OA
ATOM      8  C   UNL     1       2.239   6.108  19.730  0.00  0.00    +0.000 C 
ATOM      9  N   UNL     1       2.209   7.475  19.478  0.00  0.00    +0.000 N 
ATOM     10  H   UNL     1       2.681   7.788  18.638  0.00  0.00    +0.000 HD
BRANCH   8  11
ATOM     11  C   UNL     1       3.102   5.306  18.869  0.00  0.00    +0.000 A 
ATOM     12  C   UNL     1       2.669   4.535  17.801  0.00  0.00    +0.000 A 
ATOM     13  C   UNL     1       3.721   3.825  17.165  0.00  0.00    +0.000 A 
ATOM     14  C   UNL     1       4.934   4.071  17.767  0.00  0.00    +0.000 A 
ATOM     15  S   UNL     1       4.794   5.172  19.074  0.00  0.00    +0.000 S 
ENDBRANCH   8  11
ENDBRANCH   1   9
BRANCH   5  16
ATOM     16  C   UNL     1      -0.177  11.820  19.482  0.00  0.00    +0.000 C 
BRANCH  16  17
ATOM     17  C   UNL     1      -1.695  11.958  19.439  0.00  0.00    +0.000 A 
ATOM     18  N   UNL     1      -2.242  12.646  20.399  0.00  0.00    +0.000 NA
ATOM     19  N   UNL     1      -3.592  12.787  20.379  0.00  0.00    +0.000 N 
ATOM     20  C   UNL     1      -4.442  12.265  19.445  0.00  0.00    +0.000 A 
ATOM     21  O   UNL     1      -5.660  12.383  19.527  0.00  0.00    +0.000 OA
ATOM     22  C   UNL     1      -3.800  11.552  18.312  0.00  0.00    +0.000 A 
ATOM     23  C   UNL     1      -2.469  11.363  18.300  0.00  0.00    +0.000 A 
ATOM     24  C   UNL     1      -1.778  10.622  17.187  0.00  0.00    +0.000 C 
ATOM     25  C   UNL     1      -2.739   9.893  16.240  0.00  0.00    +0.000 C 
ATOM     26  C   UNL     1      -3.957  10.749  15.924  0.00  0.00    +0.000 C 
ATOM     27  C   UNL     1      -4.714  11.099  17.207  0.00  0.00    +0.000 C 
ATOM     28  H   UNL     1      -4.009  13.281  21.161  0.00  0.00    +0.000 HD
ENDBRANCH  16  17
ENDBRANCH   5  16
TORSDOF 4
ENDMDL
