MODEL 1
REMARK VINA RESULT:      -7.1      0.000      0.000
REMARK  Name = 
REMARK  3 active torsions:
REMARK  status: ('A' for Active; 'I' for Inactive)
REMARK    1  A    between atoms: C_1  and  O_2
REMARK    2  A    between atoms: O_2  and  C_3
REMARK    3  A    between atoms: C_7  and  C_8
REMARK                            x       y       z     vdW  Elec       q    Type
REMARK                         _______ _______ _______ _____ _____    ______ ____
ROOT
ATOM      1  C   UNL     1       3.730   4.006  18.680  0.00  0.00    +0.000 A 
ATOM      2  C   UNL     1       3.038   4.570  19.765  0.00  0.00    +0.000 A 
ATOM      3  C   UNL     1       2.669   5.908  19.644  0.00  0.00    +0.000 A 
ATOM      4  O   UNL     1       1.939   6.617  20.555  0.00  0.00    +0.000 OA
ATOM      5  C   UNL     1       1.756   7.865  20.030  0.00  0.00    +0.000 A 
ATOM      6  C   UNL     1       2.403   7.962  18.814  0.00  0.00    +0.000 A 
ATOM      7  C   UNL     1       2.986   6.703  18.553  0.00  0.00    +0.000 A 
ATOM      8  C   UNL     1       3.737   6.152  17.502  0.00  0.00    +0.000 A 
ATOM      9  C   UNL     1       4.098   4.799  17.579  0.00  0.00    +0.000 A 
ATOM     10 BR   UNL     1       5.064   4.073  16.110  0.00  0.00    +0.000 Br
ENDROOT
BRANCH   5  11
ATOM     11  C   UNL     1       0.970   8.971  20.627  0.00  0.00    +0.000 A 
ATOM     12  C   UNL     1       0.779   9.210  21.979  0.00  0.00    +0.000 A 
ATOM     13  N   UNL     1      -0.015  10.316  22.004  0.00  0.00    +0.000 N 
ATOM     14  N   UNL     1      -0.538  11.047  23.016  0.00  0.00    +0.000 NA
ATOM     15  C   UNL     1      -1.214  11.997  22.428  0.00  0.00    +0.000 A 
ATOM     16 BR   UNL     1      -2.109  13.274  23.426  0.00  0.00    +0.000 Br
ATOM     17  S   UNL     1      -1.258  12.053  20.660  0.00  0.00    +0.000 S 
ATOM     18  C   UNL     1      -0.258  10.668  20.719  0.00  0.00    +0.000 A 
ATOM     19  N   UNL     1       0.308   9.899  19.837  0.00  0.00    +0.000 NA
ENDBRANCH   5  11
BRANCH   1  21
ATOM     20  C   UNL     1       3.065   1.783  18.264  0.00  0.00    +0.000 C 
ATOM     21  O   UNL     1       4.098   2.682  18.657  0.00  0.00    +0.000 OA
ENDBRANCH   1  21
TORSDOF 2
ENDMDL
MODEL 2
REMARK VINA RESULT:      -7.1      1.522      1.595
REMARK  Name = 
REMARK  3 active torsions:
REMARK  status: ('A' for Active; 'I' for Inactive)
REMARK    1  A    between atoms: C_1  and  O_2
REMARK    2  A    between atoms: O_2  and  C_3
REMARK    3  A    between atoms: C_7  and  C_8
REMARK                            x       y       z     vdW  Elec       q    Type
REMARK                         _______ _______ _______ _____ _____    ______ ____
ROOT
ATOM      1  C   UNL     1       4.601   4.645  18.836  0.00  0.00    +0.000 A 
ATOM      2  C   UNL     1       3.737   5.329  19.708  0.00  0.00    +0.000 A 
ATOM      3  C   UNL     1       3.159   6.501  19.224  0.00  0.00    +0.000 A 
ATOM      4  O   UNL     1       2.249   7.271  19.888  0.00  0.00    +0.000 OA
ATOM      5  C   UNL     1       1.901   8.289  19.045  0.00  0.00    +0.000 A 
ATOM      6  C   UNL     1       2.620   8.191  17.870  0.00  0.00    +0.000 A 
ATOM      7  C   UNL     1       3.427   7.036  17.973  0.00  0.00    +0.000 A 
ATOM      8  C   UNL     1       4.343   6.384  17.133  0.00  0.00    +0.000 A 
ATOM      9  C   UNL     1       4.919   5.186  17.579  0.00  0.00    +0.000 A 
ATOM     10 BR   UNL     1       6.111   4.300  16.389  0.00  0.00    +0.000 Br
ENDROOT
BRANCH   5  11
ATOM     11  C   UNL     1       0.894   9.347  19.299  0.00  0.00    +0.000 A 
ATOM     12  C   UNL     1       0.528   9.856  20.536  0.00  0.00    +0.000 A 
ATOM     13  N   UNL     1      -0.427  10.779  20.237  0.00  0.00    +0.000 N 
ATOM     14  N   UNL     1      -1.161  11.620  21.001  0.00  0.00    +0.000 NA
ATOM     15  C   UNL     1      -1.913  12.272  20.156  0.00  0.00    +0.000 A 
ATOM     16 BR   UNL     1      -3.096  13.567  20.748  0.00  0.00    +0.000 Br
ATOM     17  S   UNL     1      -1.781  11.907  18.430  0.00  0.00    +0.000 S 
ATOM     18  C   UNL     1      -0.587  10.773  18.892  0.00  0.00    +0.000 A 
ATOM     19  N   UNL     1       0.181   9.933  18.265  0.00  0.00    +0.000 NA
ENDBRANCH   5  11
BRANCH   1  21
ATOM     20  C   UNL     1       4.289   2.472  19.698  0.00  0.00    +0.000 C 
ATOM     21  O   UNL     1       5.188   3.450  19.179  0.00  0.00    +0.000 OA
ENDBRANCH   1  21
TORSDOF 2
ENDMDL
MODEL 3
REMARK VINA RESULT:      -6.8      1.296      1.921
REMARK  Name = 
REMARK  3 active torsions:
REMARK  status: ('A' for Active; 'I' for Inactive)
REMARK    1  A    between atoms: C_1  and  O_2
REMARK    2  A    between atoms: O_2  and  C_3
REMARK    3  A    between atoms: C_7  and  C_8
REMARK                            x       y       z     vdW  Elec       q    Type
REMARK                         _______ _______ _______ _____ _____    ______ ____
ROOT
ATOM      1  C   UNL     1       4.072   4.774  18.211  0.00  0.00    +0.000 A 
ATOM      2  C   UNL     1       3.650   6.109  18.086  0.00  0.00    +0.000 A 
ATOM      3  C   UNL     1       2.766   6.579  19.054  0.00  0.00    +0.000 A 
ATOM      4  O   UNL     1       2.293   7.856  19.146  0.00  0.00    +0.000 OA
ATOM      5  C   UNL     1       1.502   7.907  20.260  0.00  0.00    +0.000 A 
ATOM      6  C   UNL     1       1.438   6.658  20.846  0.00  0.00    +0.000 A 
ATOM      7  C   UNL     1       2.257   5.798  20.082  0.00  0.00    +0.000 A 
ATOM      8  C   UNL     1       2.629   4.447  20.161  0.00  0.00    +0.000 A 
ATOM      9  C   UNL     1       3.542   3.951  19.219  0.00  0.00    +0.000 A 
ATOM     10 BR   UNL     1       4.066   2.131  19.394  0.00  0.00    +0.000 Br
ENDROOT
BRANCH   5  11
ATOM     11  C   UNL     1       0.817   9.102  20.807  0.00  0.00    +0.000 A 
ATOM     12  C   UNL     1       0.653   9.417  22.147  0.00  0.00    +0.000 A 
ATOM     13  N   UNL     1      -0.043  10.587  22.122  0.00  0.00    +0.000 N 
ATOM     14  N   UNL     1      -0.496  11.405  23.100  0.00  0.00    +0.000 NA
ATOM     15  C   UNL     1      -1.092  12.382  22.471  0.00  0.00    +0.000 A 
ATOM     16 BR   UNL     1      -1.870  13.775  23.410  0.00  0.00    +0.000 Br
ATOM     17  S   UNL     1      -1.140  12.361  20.703  0.00  0.00    +0.000 S 
ATOM     18  C   UNL     1      -0.261  10.900  20.823  0.00  0.00    +0.000 A 
ATOM     19  N   UNL     1       0.233  10.046  19.976  0.00  0.00    +0.000 NA
ENDBRANCH   5  11
BRANCH   1  21
ATOM     20  C   UNL     1       6.321   4.683  17.509  0.00  0.00    +0.000 C 
ATOM     21  O   UNL     1       4.984   4.213  17.350  0.00  0.00    +0.000 OA
ENDBRANCH   1  21
TORSDOF 2
ENDMDL
MODEL 4
REMARK VINA RESULT:      -6.7      1.476      1.742
REMARK  Name = 
REMARK  3 active torsions:
REMARK  status: ('A' for Active; 'I' for Inactive)
REMARK    1  A    between atoms: C_1  and  O_2
REMARK    2  A    between atoms: O_2  and  C_3
REMARK    3  A    between atoms: C_7  and  C_8
REMARK                            x       y       z     vdW  Elec       q    Type
REMARK                         _______ _______ _______ _____ _____    ______ ____
ROOT
ATOM      1  C   UNL     1       4.004   3.872  17.633  0.00  0.00    +0.000 A 
ATOM      2  C   UNL     1       3.122   4.438  18.570  0.00  0.00    +0.000 A 
ATOM      3  C   UNL     1       2.949   5.819  18.513  0.00  0.00    +0.000 A 
ATOM      4  O   UNL     1       2.093   6.546  19.289  0.00  0.00    +0.000 OA
ATOM      5  C   UNL     1       2.193   7.846  18.878  0.00  0.00    +0.000 A 
ATOM      6  C   UNL     1       3.141   7.950  17.879  0.00  0.00    +0.000 A 
ATOM      7  C   UNL     1       3.627   6.648  17.631  0.00  0.00    +0.000 A 
ATOM      8  C   UNL     1       4.558   6.085  16.744  0.00  0.00    +0.000 A 
ATOM      9  C   UNL     1       4.732   4.694  16.755  0.00  0.00    +0.000 A 
ATOM     10 BR   UNL     1       5.959   3.962  15.499  0.00  0.00    +0.000 Br
ENDROOT
BRANCH   5  11
ATOM     11  C   UNL     1       1.409   8.998  19.383  0.00  0.00    +0.000 A 
ATOM     12  C   UNL     1       1.030  10.117  18.659  0.00  0.00    +0.000 A 
ATOM     13  N   UNL     1       0.350  10.875  19.564  0.00  0.00    +0.000 N 
ATOM     14  N   UNL     1      -0.276  12.070  19.472  0.00  0.00    +0.000 NA
ATOM     15  C   UNL     1      -0.753  12.291  20.668  0.00  0.00    +0.000 A 
ATOM     16 BR   UNL     1      -1.719  13.829  21.030  0.00  0.00    +0.000 Br
ATOM     17  S   UNL     1      -0.471  11.094  21.940  0.00  0.00    +0.000 S 
ATOM     18  C   UNL     1       0.361  10.204  20.740  0.00  0.00    +0.000 A 
ATOM     19  N   UNL     1       0.982   9.063  20.701  0.00  0.00    +0.000 NA
ENDBRANCH   5  11
BRANCH   1  21
ATOM     20  C   UNL     1       3.355   1.732  18.377  0.00  0.00    +0.000 C 
ATOM     21  O   UNL     1       4.214   2.517  17.554  0.00  0.00    +0.000 OA
ENDBRANCH   1  21
TORSDOF 2
ENDMDL
MODEL 5
REMARK VINA RESULT:      -6.6      1.413      1.659
REMARK  Name = 
REMARK  3 active torsions:
REMARK  status: ('A' for Active; 'I' for Inactive)
REMARK    1  A    between atoms: C_1  and  O_2
REMARK    2  A    between atoms: O_2  and  C_3
REMARK    3  A    between atoms: C_7  and  C_8
REMARK                            x       y       z     vdW  Elec       q    Type
REMARK                         _______ _______ _______ _____ _____    ______ ____
ROOT
ATOM      1  C   UNL     1       4.035   4.872  18.702  0.00  0.00    +0.000 A 
ATOM      2  C   UNL     1       3.275   5.523  19.688  0.00  0.00    +0.000 A 
ATOM      3  C   UNL     1       2.737   6.763  19.347  0.00  0.00    +0.000 A 
ATOM      4  O   UNL     1       1.921   7.519  20.138  0.00  0.00    +0.000 OA
ATOM      5  C   UNL     1       1.580   8.625  19.410  0.00  0.00    +0.000 A 
ATOM      6  C   UNL     1       2.211   8.592  18.182  0.00  0.00    +0.000 A 
ATOM      7  C   UNL     1       2.952   7.391  18.129  0.00  0.00    +0.000 A 
ATOM      8  C   UNL     1       3.769   6.767  17.174  0.00  0.00    +0.000 A 
ATOM      9  C   UNL     1       4.300   5.504  17.474  0.00  0.00    +0.000 A 
ATOM     10 BR   UNL     1       5.355   4.664  16.132  0.00  0.00    +0.000 Br
ENDROOT
BRANCH   5  11
ATOM     11  C   UNL     1       0.657   9.709  19.825  0.00  0.00    +0.000 A 
ATOM     12  C   UNL     1      -0.373  10.248  19.070  0.00  0.00    +0.000 A 
ATOM     13  N   UNL     1      -0.901  11.206  19.880  0.00  0.00    +0.000 N 
ATOM     14  N   UNL     1      -1.932  12.070  19.727  0.00  0.00    +0.000 NA
ATOM     15  C   UNL     1      -1.970  12.746  20.844  0.00  0.00    +0.000 A 
ATOM     16 BR   UNL     1      -3.250  14.058  21.109  0.00  0.00    +0.000 Br
ATOM     17  S   UNL     1      -0.785  12.387  22.107  0.00  0.00    +0.000 S 
ATOM     18  C   UNL     1      -0.187  11.201  21.031  0.00  0.00    +0.000 A 
ATOM     19  N   UNL     1       0.768  10.320  21.064  0.00  0.00    +0.000 NA
ENDBRANCH   5  11
BRANCH   1  21
ATOM     20  C   UNL     1       3.614   2.567  18.957  0.00  0.00    +0.000 C 
ATOM     21  O   UNL     1       4.571   3.622  18.899  0.00  0.00    +0.000 OA
ENDBRANCH   1  21
TORSDOF 2
ENDMDL
MODEL 6
REMARK VINA RESULT:      -6.6      2.427      2.814
REMARK  Name = 
REMARK  3 active torsions:
REMARK  status: ('A' for Active; 'I' for Inactive)
REMARK    1  A    between atoms: C_1  and  O_2
REMARK    2  A    between atoms: O_2  and  C_3
REMARK    3  A    between atoms: C_7  and  C_8
REMARK                            x       y       z     vdW  Elec       q    Type
REMARK                         _______ _______ _______ _____ _____    ______ ____
ROOT
ATOM      1  C   UNL     1       2.607   4.600  19.875  0.00  0.00    +0.000 A 
ATOM      2  C   UNL     1       2.113   5.745  20.523  0.00  0.00    +0.000 A 
ATOM      3  C   UNL     1       2.059   6.916  19.769  0.00  0.00    +0.000 A 
ATOM      4  O   UNL     1       1.555   8.111  20.193  0.00  0.00    +0.000 OA
ATOM      5  C   UNL     1       1.642   8.975  19.137  0.00  0.00    +0.000 A 
ATOM      6  C   UNL     1       2.241   8.344  18.064  0.00  0.00    +0.000 A 
ATOM      7  C   UNL     1       2.504   7.014  18.459  0.00  0.00    +0.000 A 
ATOM      8  C   UNL     1       3.060   5.883  17.840  0.00  0.00    +0.000 A 
ATOM      9  C   UNL     1       3.100   4.681  18.562  0.00  0.00    +0.000 A 
ATOM     10 BR   UNL     1       3.807   3.156  17.670  0.00  0.00    +0.000 Br
ENDROOT
BRANCH   5  11
ATOM     11  C   UNL     1       1.161  10.377  19.095  0.00  0.00    +0.000 A 
ATOM     12  C   UNL     1       1.831  11.461  18.552  0.00  0.00    +0.000 A 
ATOM     13  N   UNL     1       0.988  12.508  18.774  0.00  0.00    +0.000 N 
ATOM     14  N   UNL     1       1.061  13.824  18.471  0.00  0.00    +0.000 NA
ATOM     15  C   UNL     1      -0.049  14.336  18.933  0.00  0.00    +0.000 A 
ATOM     16 BR   UNL     1      -0.409  16.141  18.736  0.00  0.00    +0.000 Br
ATOM     17  S   UNL     1      -1.210  13.277  19.745  0.00  0.00    +0.000 S 
ATOM     18  C   UNL     1      -0.098  12.020  19.420  0.00  0.00    +0.000 A 
ATOM     19  N   UNL     1      -0.059  10.741  19.644  0.00  0.00    +0.000 NA
ENDBRANCH   5  11
BRANCH   1  21
ATOM     20  C   UNL     1       1.414   2.925  21.029  0.00  0.00    +0.000 C 
ATOM     21  O   UNL     1       2.657   3.375  20.496  0.00  0.00    +0.000 OA
ENDBRANCH   1  21
TORSDOF 2
ENDMDL
MODEL 7
REMARK VINA RESULT:      -6.6      1.324      1.473
REMARK  Name = 
REMARK  3 active torsions:
REMARK  status: ('A' for Active; 'I' for Inactive)
REMARK    1  A    between atoms: C_1  and  O_2
REMARK    2  A    between atoms: O_2  and  C_3
REMARK    3  A    between atoms: C_7  and  C_8
REMARK                            x       y       z     vdW  Elec       q    Type
REMARK                         _______ _______ _______ _____ _____    ______ ____
ROOT
ATOM      1  C   UNL     1       2.732   4.134  19.442  0.00  0.00    +0.000 A 
ATOM      2  C   UNL     1       2.098   4.833  20.484  0.00  0.00    +0.000 A 
ATOM      3  C   UNL     1       1.943   6.207  20.312  0.00  0.00    +0.000 A 
ATOM      4  O   UNL     1       1.301   7.048  21.174  0.00  0.00    +0.000 OA
ATOM      5  C   UNL     1       1.329   8.292  20.608  0.00  0.00    +0.000 A 
ATOM      6  C   UNL     1       2.024   8.249  19.415  0.00  0.00    +0.000 A 
ATOM      7  C   UNL     1       2.416   6.908  19.212  0.00  0.00    +0.000 A 
ATOM      8  C   UNL     1       3.109   6.214  18.207  0.00  0.00    +0.000 A 
ATOM      9  C   UNL     1       3.255   4.826  18.335  0.00  0.00    +0.000 A 
ATOM     10 BR   UNL     1       4.148   3.912  16.926  0.00  0.00    +0.000 Br
ENDROOT
BRANCH   5  11
ATOM     11  C   UNL     1       0.702   9.525  21.143  0.00  0.00    +0.000 A 
ATOM     12  C   UNL     1       1.124  10.826  20.922  0.00  0.00    +0.000 A 
ATOM     13  N   UNL     1       0.239  11.579  21.632  0.00  0.00    +0.000 N 
ATOM     14  N   UNL     1       0.105  12.914  21.809  0.00  0.00    +0.000 NA
ATOM     15  C   UNL     1      -0.932  13.046  22.592  0.00  0.00    +0.000 A 
ATOM     16 BR   UNL     1      -1.517  14.725  23.109  0.00  0.00    +0.000 Br
ATOM     17  S   UNL     1      -1.779  11.596  23.148  0.00  0.00    +0.000 S 
ATOM     18  C   UNL     1      -0.630  10.727  22.226  0.00  0.00    +0.000 A 
ATOM     19  N   UNL     1      -0.408   9.472  21.971  0.00  0.00    +0.000 NA
ENDBRANCH   5  11
BRANCH   1  21
ATOM     20  C   UNL     1       1.706   2.024  19.213  0.00  0.00    +0.000 C 
ATOM     21  O   UNL     1       2.893   2.770  19.471  0.00  0.00    +0.000 OA
ENDBRANCH   1  21
TORSDOF 2
ENDMDL
MODEL 8
REMARK VINA RESULT:      -6.5      1.880      2.028
REMARK  Name = 
REMARK  3 active torsions:
REMARK  status: ('A' for Active; 'I' for Inactive)
REMARK    1  A    between atoms: C_1  and  O_2
REMARK    2  A    between atoms: O_2  and  C_3
REMARK    3  A    between atoms: C_7  and  C_8
REMARK                            x       y       z     vdW  Elec       q    Type
REMARK                         _______ _______ _______ _____ _____    ______ ____
ROOT
ATOM      1  C   UNL     1       2.659   4.253  19.797  0.00  0.00    +0.000 A 
ATOM      2  C   UNL     1       2.083   5.282  20.561  0.00  0.00    +0.000 A 
ATOM      3  C   UNL     1       2.031   6.544  19.975  0.00  0.00    +0.000 A 
ATOM      4  O   UNL     1       1.456   7.653  20.525  0.00  0.00    +0.000 OA
ATOM      5  C   UNL     1       1.576   8.658  19.607  0.00  0.00    +0.000 A 
ATOM      6  C   UNL     1       2.263   8.202  18.499  0.00  0.00    +0.000 A 
ATOM      7  C   UNL     1       2.552   6.838  18.723  0.00  0.00    +0.000 A 
ATOM      8  C   UNL     1       3.188   5.822  17.993  0.00  0.00    +0.000 A 
ATOM      9  C   UNL     1       3.229   4.532  18.542  0.00  0.00    +0.000 A 
ATOM     10 BR   UNL     1       4.047   3.169  17.498  0.00  0.00    +0.000 Br
ENDROOT
BRANCH   5  11
ATOM     11  C   UNL     1       1.045  10.038  19.727  0.00  0.00    +0.000 A 
ATOM     12  C   UNL     1       0.820  10.734  20.904  0.00  0.00    +0.000 A 
ATOM     13  N   UNL     1       0.324  11.930  20.483  0.00  0.00    +0.000 N 
ATOM     14  N   UNL     1      -0.076  13.041  21.145  0.00  0.00    +0.000 NA
ATOM     15  C   UNL     1      -0.452  13.871  20.209  0.00  0.00    +0.000 A 
ATOM     16 BR   UNL     1      -1.075  15.560  20.640  0.00  0.00    +0.000 Br
ATOM     17  S   UNL     1      -0.350  13.362  18.518  0.00  0.00    +0.000 S 
ATOM     18  C   UNL     1       0.271  11.892  19.130  0.00  0.00    +0.000 A 
ATOM     19  N   UNL     1       0.693  10.778  18.609  0.00  0.00    +0.000 NA
ENDBRANCH   5  11
BRANCH   1  21
ATOM     20  C   UNL     1       2.275   2.768  21.586  0.00  0.00    +0.000 C 
ATOM     21  O   UNL     1       2.718   2.955  20.244  0.00  0.00    +0.000 OA
ENDBRANCH   1  21
TORSDOF 2
ENDMDL
MODEL 9
REMARK VINA RESULT:      -6.4      1.654      2.228
REMARK  Name = 
REMARK  3 active torsions:
REMARK  status: ('A' for Active; 'I' for Inactive)
REMARK    1  A    between atoms: C_1  and  O_2
REMARK    2  A    between atoms: O_2  and  C_3
REMARK    3  A    between atoms: C_7  and  C_8
REMARK                            x       y       z     vdW  Elec       q    Type
REMARK                         _______ _______ _______ _____ _____    ______ ____
ROOT
ATOM      1  C   UNL     1       3.798   4.950  18.150  0.00  0.00    +0.000 A 
ATOM      2  C   UNL     1       3.396   6.293  18.051  0.00  0.00    +0.000 A 
ATOM      3  C   UNL     1       2.588   6.782  19.075  0.00  0.00    +0.000 A 
ATOM      4  O   UNL     1       2.148   8.069  19.195  0.00  0.00    +0.000 OA
ATOM      5  C   UNL     1       1.435   8.136  20.359  0.00  0.00    +0.000 A 
ATOM      6  C   UNL     1       1.385   6.890  20.951  0.00  0.00    +0.000 A 
ATOM      7  C   UNL     1       2.133   6.013  20.136  0.00  0.00    +0.000 A 
ATOM      8  C   UNL     1       2.481   4.654  20.193  0.00  0.00    +0.000 A 
ATOM      9  C   UNL     1       3.319   4.139  19.194  0.00  0.00    +0.000 A 
ATOM     10 BR   UNL     1       3.817   2.308  19.337  0.00  0.00    +0.000 Br
ENDROOT
BRANCH   5  11
ATOM     11  C   UNL     1       0.812   9.346  20.948  0.00  0.00    +0.000 A 
ATOM     12  C   UNL     1       1.182  10.661  20.712  0.00  0.00    +0.000 A 
ATOM     13  N   UNL     1       0.326  11.382  21.488  0.00  0.00    +0.000 N 
ATOM     14  N   UNL     1       0.168  12.711  21.687  0.00  0.00    +0.000 NA
ATOM     15  C   UNL     1      -0.818  12.807  22.539  0.00  0.00    +0.000 A 
ATOM     16 BR   UNL     1      -1.413  14.465  23.111  0.00  0.00    +0.000 Br
ATOM     17  S   UNL     1      -1.584  11.329  23.136  0.00  0.00    +0.000 S 
ATOM     18  C   UNL     1      -0.477  10.501  22.130  0.00  0.00    +0.000 A 
ATOM     19  N   UNL     1      -0.238   9.255  21.848  0.00  0.00    +0.000 NA
ENDBRANCH   5  11
BRANCH   1  21
ATOM     20  C   UNL     1       5.969   4.883  17.234  0.00  0.00    +0.000 C 
ATOM     21  O   UNL     1       4.639   4.369  17.232  0.00  0.00    +0.000 OA
ENDBRANCH   1  21
TORSDOF 2
ENDMDL
