MODEL 1
REMARK VINA RESULT:      -6.7      0.000      0.000
REMARK  Name = 
REMARK  10 active torsions:
REMARK  status: ('A' for Active; 'I' for Inactive)
REMARK    1  A    between atoms: C_1  and  C_2
REMARK    2  A    between atoms: C_2  and  O_3
REMARK    3  A    between atoms: O_3  and  C_4
REMARK    4  A    between atoms: N_6  and  C_7
REMARK    5  A    between atoms: C_7  and  N_8
REMARK    6  A    between atoms: C_7  and  C_17
REMARK    7  A    between atoms: C_7  and  C_21
REMARK    8  A    between atoms: C_12  and  S_13
REMARK    9  A    between atoms: S_13  and  C_14
REMARK   10  A    between atoms: C_14  and  C_15
REMARK                            x       y       z     vdW  Elec       q    Type
REMARK                         _______ _______ _______ _____ _____    ______ ____
ROOT
ATOM      1  C   UNL     1       3.257   4.666  18.062  0.00  0.00    +0.000 C 
ENDROOT
BRANCH   1   2
ATOM      2  N   UNL     1       3.145   6.152  17.828  0.00  0.00    +0.000 N 
ATOM      3  C   UNL     1       2.520   6.897  18.782  0.00  0.00    +0.000 A 
ATOM      4  N   UNL     1       2.134   6.458  19.960  0.00  0.00    +0.000 NA
ATOM      5  N   UNL     1       1.501   7.429  20.709  0.00  0.00    +0.000 NA
ATOM      6  C   UNL     1       1.438   8.578  20.074  0.00  0.00    +0.000 A 
ATOM      7  S   UNL     1       2.129   8.550  18.506  0.00  0.00    +0.000 S 
ATOM      8  H   UNL     1       2.888   6.390  16.876  0.00  0.00    +0.000 HD
BRANCH   6   9
ATOM      9  S   UNL     1       0.689  10.004  20.755  0.00  0.00    +0.000 S 
BRANCH   9  10
ATOM     10  C   UNL     1       0.593   9.539  22.511  0.00  0.00    +0.000 C 
ATOM     11  C   UNL     1      -0.703  10.053  23.117  0.00  0.00    +0.000 C 
ENDBRANCH   9  10
ENDBRANCH   6   9
ENDBRANCH   1   2
BRANCH   1  14
ATOM     12  C   UNL     1       4.949   5.046  16.323  0.00  0.00    +0.000 C 
ATOM     13  O   UNL     1       5.453   5.961  16.952  0.00  0.00    +0.000 OA
ATOM     14  N   UNL     1       3.912   4.290  16.788  0.00  0.00    +0.000 N 
ATOM     15  H   UNL     1       3.413   3.761  16.090  0.00  0.00    +0.000 HD
BRANCH  12  16
ATOM     16  O   UNL     1       5.232   4.683  15.055  0.00  0.00    +0.000 OA
BRANCH  16  18
ATOM     17  C   UNL     1       6.722   4.011  13.324  0.00  0.00    +0.000 C 
ATOM     18  C   UNL     1       6.624   4.480  14.762  0.00  0.00    +0.000 C 
ENDBRANCH  16  18
ENDBRANCH  12  16
ENDBRANCH   1  14
BRANCH   1  19
ATOM     19  C   UNL     1       1.841   3.962  18.203  0.00  0.00    +0.000 C 
ATOM     20  F   UNL     1       1.904   2.642  17.865  0.00  0.00    +0.000 F 
ATOM     21  F   UNL     1       1.251   4.026  19.407  0.00  0.00    +0.000 F 
ATOM     22  F   UNL     1       0.953   4.475  17.303  0.00  0.00    +0.000 F 
ENDBRANCH   1  19
BRANCH   1  23
ATOM     23  C   UNL     1       4.166   4.315  19.324  0.00  0.00    +0.000 C 
ATOM     24  F   UNL     1       5.096   3.364  19.027  0.00  0.00    +0.000 F 
ATOM     25  F   UNL     1       4.923   5.383  19.708  0.00  0.00    +0.000 F 
ATOM     26  F   UNL     1       3.518   3.891  20.423  0.00  0.00    +0.000 F 
ENDBRANCH   1  23
TORSDOF 8
ENDMDL
MODEL 2
REMARK VINA RESULT:      -6.7      1.139      1.190
REMARK  Name = 
REMARK  10 active torsions:
REMARK  status: ('A' for Active; 'I' for Inactive)
REMARK    1  A    between atoms: C_1  and  C_2
REMARK    2  A    between atoms: C_2  and  O_3
REMARK    3  A    between atoms: O_3  and  C_4
REMARK    4  A    between atoms: N_6  and  C_7
REMARK    5  A    between atoms: C_7  and  N_8
REMARK    6  A    between atoms: C_7  and  C_17
REMARK    7  A    between atoms: C_7  and  C_21
REMARK    8  A    between atoms: C_12  and  S_13
REMARK    9  A    between atoms: S_13  and  C_14
REMARK   10  A    between atoms: C_14  and  C_15
REMARK                            x       y       z     vdW  Elec       q    Type
REMARK                         _______ _______ _______ _____ _____    ______ ____
ROOT
ATOM      1  C   UNL     1       4.418   4.904  17.554  0.00  0.00    +0.000 C 
ENDROOT
BRANCH   1   2
ATOM      2  N   UNL     1       3.973   6.326  17.323  0.00  0.00    +0.000 N 
ATOM      3  C   UNL     1       3.188   6.905  18.274  0.00  0.00    +0.000 A 
ATOM      4  N   UNL     1       2.904   6.385  19.448  0.00  0.00    +0.000 NA
ATOM      5  N   UNL     1       2.061   7.182  20.196  0.00  0.00    +0.000 NA
ATOM      6  C   UNL     1       1.743   8.290  19.563  0.00  0.00    +0.000 A 
ATOM      7  S   UNL     1       2.433   8.427  18.001  0.00  0.00    +0.000 S 
ATOM      8  H   UNL     1       3.674   6.504  16.370  0.00  0.00    +0.000 HD
BRANCH   6   9
ATOM      9  S   UNL     1       0.684   9.505  20.243  0.00  0.00    +0.000 S 
BRANCH   9  10
ATOM     10  C   UNL     1       1.051   9.331  22.016  0.00  0.00    +0.000 C 
ATOM     11  C   UNL     1      -0.234   9.392  22.825  0.00  0.00    +0.000 C 
ENDBRANCH   9  10
ENDBRANCH   6   9
ENDBRANCH   1   2
BRANCH   1  14
ATOM     12  C   UNL     1       5.876   5.611  15.707  0.00  0.00    +0.000 C 
ATOM     13  O   UNL     1       6.209   6.623  16.301  0.00  0.00    +0.000 OA
ATOM     14  N   UNL     1       5.058   4.657  16.241  0.00  0.00    +0.000 N 
ATOM     15  H   UNL     1       4.642   4.021  15.578  0.00  0.00    +0.000 HD
BRANCH  12  16
ATOM     16  O   UNL     1       6.150   5.297  14.425  0.00  0.00    +0.000 OA
BRANCH  16  18
ATOM     17  C   UNL     1       6.406   3.760  12.625  0.00  0.00    +0.000 C 
ATOM     18  C   UNL     1       6.079   3.899  14.099  0.00  0.00    +0.000 C 
ENDBRANCH  16  18
ENDBRANCH  12  16
ENDBRANCH   1  14
BRANCH   1  19
ATOM     19  C   UNL     1       3.200   3.913  17.788  0.00  0.00    +0.000 C 
ATOM     20  F   UNL     1       3.473   2.665  17.312  0.00  0.00    +0.000 F 
ATOM     21  F   UNL     1       2.779   3.762  19.054  0.00  0.00    +0.000 F 
ATOM     22  F   UNL     1       2.114   4.298  17.057  0.00  0.00    +0.000 F 
ENDBRANCH   1  19
BRANCH   1  23
ATOM     23  C   UNL     1       5.459   4.779  18.755  0.00  0.00    +0.000 C 
ATOM     24  F   UNL     1       6.595   4.129  18.373  0.00  0.00    +0.000 F 
ATOM     25  F   UNL     1       5.917   6.002  19.150  0.00  0.00    +0.000 F 
ATOM     26  F   UNL     1       5.016   4.161  19.864  0.00  0.00    +0.000 F 
ENDBRANCH   1  23
TORSDOF 8
ENDMDL
MODEL 3
REMARK VINA RESULT:      -6.6      1.103      1.518
REMARK  Name = 
REMARK  10 active torsions:
REMARK  status: ('A' for Active; 'I' for Inactive)
REMARK    1  A    between atoms: C_1  and  C_2
REMARK    2  A    between atoms: C_2  and  O_3
REMARK    3  A    between atoms: O_3  and  C_4
REMARK    4  A    between atoms: N_6  and  C_7
REMARK    5  A    between atoms: C_7  and  N_8
REMARK    6  A    between atoms: C_7  and  C_17
REMARK    7  A    between atoms: C_7  and  C_21
REMARK    8  A    between atoms: C_12  and  S_13
REMARK    9  A    between atoms: S_13  and  C_14
REMARK   10  A    between atoms: C_14  and  C_15
REMARK                            x       y       z     vdW  Elec       q    Type
REMARK                         _______ _______ _______ _____ _____    ______ ____
ROOT
ATOM      1  C   UNL     1       3.253   4.684  18.086  0.00  0.00    +0.000 C 
ENDROOT
BRANCH   1   2
ATOM      2  N   UNL     1       3.156   6.138  17.699  0.00  0.00    +0.000 N 
ATOM      3  C   UNL     1       2.548   6.986  18.576  0.00  0.00    +0.000 A 
ATOM      4  N   UNL     1       2.168   6.677  19.796  0.00  0.00    +0.000 NA
ATOM      5  N   UNL     1       1.553   7.727  20.446  0.00  0.00    +0.000 NA
ATOM      6  C   UNL     1       1.497   8.805  19.695  0.00  0.00    +0.000 A 
ATOM      7  S   UNL     1       2.174   8.607  18.133  0.00  0.00    +0.000 S 
ATOM      8  H   UNL     1       2.892   6.280  16.730  0.00  0.00    +0.000 HD
BRANCH   6   9
ATOM      9  S   UNL     1       0.770  10.303  20.231  0.00  0.00    +0.000 S 
BRANCH   9  10
ATOM     10  C   UNL     1       0.066  10.923  18.673  0.00  0.00    +0.000 C 
ATOM     11  C   UNL     1      -1.328  10.353  18.466  0.00  0.00    +0.000 C 
ENDBRANCH   9  10
ENDBRANCH   6   9
ENDBRANCH   1   2
BRANCH   1  14
ATOM     12  C   UNL     1       4.894   4.834  16.264  0.00  0.00    +0.000 C 
ATOM     13  O   UNL     1       5.448   5.788  16.783  0.00  0.00    +0.000 OA
ATOM     14  N   UNL     1       3.851   4.163  16.834  0.00  0.00    +0.000 N 
ATOM     15  H   UNL     1       3.312   3.585  16.208  0.00  0.00    +0.000 HD
BRANCH  12  16
ATOM     16  O   UNL     1       5.121   4.339  15.030  0.00  0.00    +0.000 OA
BRANCH  16  18
ATOM     17  C   UNL     1       6.574   3.923  13.190  0.00  0.00    +0.000 C 
ATOM     18  C   UNL     1       6.500   4.120  14.692  0.00  0.00    +0.000 C 
ENDBRANCH  16  18
ENDBRANCH  12  16
ENDBRANCH   1  14
BRANCH   1  19
ATOM     19  C   UNL     1       1.833   4.027  18.353  0.00  0.00    +0.000 C 
ATOM     20  F   UNL     1       1.874   2.672  18.208  0.00  0.00    +0.000 F 
ATOM     21  F   UNL     1       1.268   4.272  19.546  0.00  0.00    +0.000 F 
ATOM     22  F   UNL     1       0.932   4.418  17.405  0.00  0.00    +0.000 F 
ENDBRANCH   1  19
BRANCH   1  23
ATOM     23  C   UNL     1       4.205   4.450  19.343  0.00  0.00    +0.000 C 
ATOM     24  F   UNL     1       3.499   4.072  20.447  0.00  0.00    +0.000 F 
ATOM     25  F   UNL     1       5.053   3.401  19.141  0.00  0.00    +0.000 F 
ATOM     26  F   UNL     1       4.968   5.493  19.712  0.00  0.00    +0.000 F 
ENDBRANCH   1  23
TORSDOF 8
ENDMDL
MODEL 4
REMARK VINA RESULT:      -6.6      4.279      7.344
REMARK  Name = 
REMARK  10 active torsions:
REMARK  status: ('A' for Active; 'I' for Inactive)
REMARK    1  A    between atoms: C_1  and  C_2
REMARK    2  A    between atoms: C_2  and  O_3
REMARK    3  A    between atoms: O_3  and  C_4
REMARK    4  A    between atoms: N_6  and  C_7
REMARK    5  A    between atoms: C_7  and  N_8
REMARK    6  A    between atoms: C_7  and  C_17
REMARK    7  A    between atoms: C_7  and  C_21
REMARK    8  A    between atoms: C_12  and  S_13
REMARK    9  A    between atoms: S_13  and  C_14
REMARK   10  A    between atoms: C_14  and  C_15
REMARK                            x       y       z     vdW  Elec       q    Type
REMARK                         _______ _______ _______ _____ _____    ______ ____
ROOT
ATOM      1  C   UNL     1       5.918   4.924  18.287  0.00  0.00    +0.000 C 
ENDROOT
BRANCH   1   2
ATOM      2  N   UNL     1       5.832   3.917  17.167  0.00  0.00    +0.000 N 
ATOM      3  C   UNL     1       6.323   4.282  15.950  0.00  0.00    +0.000 A 
ATOM      4  N   UNL     1       7.000   5.382  15.699  0.00  0.00    +0.000 NA
ATOM      5  N   UNL     1       7.347   5.504  14.370  0.00  0.00    +0.000 NA
ATOM      6  C   UNL     1       6.928   4.482  13.656  0.00  0.00    +0.000 A 
ATOM      7  S   UNL     1       6.061   3.308  14.555  0.00  0.00    +0.000 S 
ATOM      8  H   UNL     1       4.942   3.432  17.130  0.00  0.00    +0.000 HD
BRANCH   6   9
ATOM      9  S   UNL     1       7.205   4.345  11.934  0.00  0.00    +0.000 S 
BRANCH   9  10
ATOM     10  C   UNL     1       6.272   2.830  11.554  0.00  0.00    +0.000 C 
ATOM     11  C   UNL     1       7.218   1.736  11.088  0.00  0.00    +0.000 C 
ENDBRANCH   9  10
ENDBRANCH   6   9
ENDBRANCH   1   2
BRANCH   1  14
ATOM     12  C   UNL     1       4.283   3.315  19.166  0.00  0.00    +0.000 C 
ATOM     13  O   UNL     1       3.749   3.196  18.076  0.00  0.00    +0.000 OA
ATOM     14  N   UNL     1       5.393   4.078  19.384  0.00  0.00    +0.000 N 
ATOM     15  H   UNL     1       5.576   4.314  20.347  0.00  0.00    +0.000 HD
BRANCH  12  16
ATOM     16  O   UNL     1       3.841   2.824  20.342  0.00  0.00    +0.000 OA
BRANCH  16  18
ATOM     17  C   UNL     1       2.151   4.357  21.021  0.00  0.00    +0.000 C 
ATOM     18  C   UNL     1       2.427   2.936  20.570  0.00  0.00    +0.000 C 
ENDBRANCH  16  18
ENDBRANCH  12  16
ENDBRANCH   1  14
BRANCH   1  19
ATOM     19  C   UNL     1       4.985   6.186  18.046  0.00  0.00    +0.000 C 
ATOM     20  F   UNL     1       4.212   6.451  19.138  0.00  0.00    +0.000 F 
ATOM     21  F   UNL     1       5.596   7.335  17.714  0.00  0.00    +0.000 F 
ATOM     22  F   UNL     1       4.069   5.932  17.067  0.00  0.00    +0.000 F 
ENDBRANCH   1  19
BRANCH   1  23
ATOM     23  C   UNL     1       7.414   5.400  18.565  0.00  0.00    +0.000 C 
ATOM     24  F   UNL     1       7.628   5.642  19.890  0.00  0.00    +0.000 F 
ATOM     25  F   UNL     1       8.314   4.415  18.279  0.00  0.00    +0.000 F 
ATOM     26  F   UNL     1       7.822   6.495  17.902  0.00  0.00    +0.000 F 
ENDBRANCH   1  23
TORSDOF 8
ENDMDL
MODEL 5
REMARK VINA RESULT:      -6.6      1.018      1.214
REMARK  Name = 
REMARK  10 active torsions:
REMARK  status: ('A' for Active; 'I' for Inactive)
REMARK    1  A    between atoms: C_1  and  C_2
REMARK    2  A    between atoms: C_2  and  O_3
REMARK    3  A    between atoms: O_3  and  C_4
REMARK    4  A    between atoms: N_6  and  C_7
REMARK    5  A    between atoms: C_7  and  N_8
REMARK    6  A    between atoms: C_7  and  C_17
REMARK    7  A    between atoms: C_7  and  C_21
REMARK    8  A    between atoms: C_12  and  S_13
REMARK    9  A    between atoms: S_13  and  C_14
REMARK   10  A    between atoms: C_14  and  C_15
REMARK                            x       y       z     vdW  Elec       q    Type
REMARK                         _______ _______ _______ _____ _____    ______ ____
ROOT
ATOM      1  C   UNL     1       3.646   3.720  18.138  0.00  0.00    +0.000 C 
ENDROOT
BRANCH   1   2
ATOM      2  N   UNL     1       3.634   5.194  17.817  0.00  0.00    +0.000 N 
ATOM      3  C   UNL     1       2.950   6.019  18.658  0.00  0.00    +0.000 A 
ATOM      4  N   UNL     1       2.420   5.665  19.809  0.00  0.00    +0.000 NA
ATOM      5  N   UNL     1       1.762   6.703  20.435  0.00  0.00    +0.000 NA
ATOM      6  C   UNL     1       1.823   7.816  19.738  0.00  0.00    +0.000 A 
ATOM      7  S   UNL     1       2.673   7.669  18.257  0.00  0.00    +0.000 S 
ATOM      8  H   UNL     1       3.490   5.389  16.832  0.00  0.00    +0.000 HD
BRANCH   6   9
ATOM      9  S   UNL     1       1.079   9.310  20.260  0.00  0.00    +0.000 S 
BRANCH   9  10
ATOM     10  C   UNL     1       1.148   9.118  22.068  0.00  0.00    +0.000 C 
ATOM     11  C   UNL     1      -0.230   9.339  22.670  0.00  0.00    +0.000 C 
ENDBRANCH   9  10
ENDBRANCH   6   9
ENDBRANCH   1   2
BRANCH   1  14
ATOM     12  C   UNL     1       5.580   4.041  16.658  0.00  0.00    +0.000 C 
ATOM     13  O   UNL     1       5.918   5.053  17.248  0.00  0.00    +0.000 OA
ATOM     14  N   UNL     1       4.525   3.262  17.038  0.00  0.00    +0.000 N 
ATOM     15  H   UNL     1       4.181   2.624  16.336  0.00  0.00    +0.000 HD
BRANCH  12  16
ATOM     16  O   UNL     1       6.091   3.567  15.504  0.00  0.00    +0.000 OA
BRANCH  16  18
ATOM     17  C   UNL     1       6.033   3.726  13.128  0.00  0.00    +0.000 C 
ATOM     18  C   UNL     1       6.158   4.510  14.421  0.00  0.00    +0.000 C 
ENDBRANCH  16  18
ENDBRANCH  12  16
ENDBRANCH   1  14
BRANCH   1  19
ATOM     19  C   UNL     1       2.206   3.059  18.029  0.00  0.00    +0.000 C 
ATOM     20  F   UNL     1       1.765   2.620  19.242  0.00  0.00    +0.000 F 
ATOM     21  F   UNL     1       1.229   3.821  17.512  0.00  0.00    +0.000 F 
ATOM     22  F   UNL     1       2.252   1.919  17.280  0.00  0.00    +0.000 F 
ENDBRANCH   1  19
BRANCH   1  23
ATOM     23  C   UNL     1       4.276   3.415  19.570  0.00  0.00    +0.000 C 
ATOM     24  F   UNL     1       4.859   2.182  19.612  0.00  0.00    +0.000 F 
ATOM     25  F   UNL     1       5.310   4.258  19.853  0.00  0.00    +0.000 F 
ATOM     26  F   UNL     1       3.434   3.478  20.616  0.00  0.00    +0.000 F 
ENDBRANCH   1  23
TORSDOF 8
ENDMDL
MODEL 6
REMARK VINA RESULT:      -6.6      3.896      4.994
REMARK  Name = 
REMARK  10 active torsions:
REMARK  status: ('A' for Active; 'I' for Inactive)
REMARK    1  A    between atoms: C_1  and  C_2
REMARK    2  A    between atoms: C_2  and  O_3
REMARK    3  A    between atoms: O_3  and  C_4
REMARK    4  A    between atoms: N_6  and  C_7
REMARK    5  A    between atoms: C_7  and  N_8
REMARK    6  A    between atoms: C_7  and  C_17
REMARK    7  A    between atoms: C_7  and  C_21
REMARK    8  A    between atoms: C_12  and  S_13
REMARK    9  A    between atoms: S_13  and  C_14
REMARK   10  A    between atoms: C_14  and  C_15
REMARK                            x       y       z     vdW  Elec       q    Type
REMARK                         _______ _______ _______ _____ _____    ______ ____
ROOT
ATOM      1  C   UNL     1       6.658   6.123  17.724  0.00  0.00    +0.000 C 
ENDROOT
BRANCH   1   2
ATOM      2  N   UNL     1       5.207   6.276  18.105  0.00  0.00    +0.000 N 
ATOM      3  C   UNL     1       4.476   5.139  18.281  0.00  0.00    +0.000 A 
ATOM      4  N   UNL     1       4.960   3.916  18.291  0.00  0.00    +0.000 NA
ATOM      5  N   UNL     1       3.982   2.958  18.461  0.00  0.00    +0.000 NA
ATOM      6  C   UNL     1       2.787   3.491  18.584  0.00  0.00    +0.000 A 
ATOM      7  S   UNL     1       2.768   5.201  18.481  0.00  0.00    +0.000 S 
ATOM      8  H   UNL     1       4.729   7.003  17.585  0.00  0.00    +0.000 HD
BRANCH   6   9
ATOM      9  S   UNL     1       1.336   2.538  18.805  0.00  0.00    +0.000 S 
BRANCH   9  10
ATOM     10  C   UNL     1       0.717   3.209  20.378  0.00  0.00    +0.000 C 
ATOM     11  C   UNL     1       1.553   2.686  21.535  0.00  0.00    +0.000 C 
ENDBRANCH   9  10
ENDBRANCH   6   9
ENDBRANCH   1   2
BRANCH   1  14
ATOM     12  C   UNL     1       5.701   5.756  15.491  0.00  0.00    +0.000 C 
ATOM     13  O   UNL     1       5.223   6.878  15.465  0.00  0.00    +0.000 OA
ATOM     14  N   UNL     1       6.480   5.291  16.511  0.00  0.00    +0.000 N 
ATOM     15  H   UNL     1       6.586   4.289  16.555  0.00  0.00    +0.000 HD
BRANCH  12  16
ATOM     16  O   UNL     1       5.479   4.760  14.610  0.00  0.00    +0.000 OA
BRANCH  16  18
ATOM     17  C   UNL     1       6.131   3.517  12.687  0.00  0.00    +0.000 C 
ATOM     18  C   UNL     1       6.631   4.307  13.881  0.00  0.00    +0.000 C 
ENDBRANCH  16  18
ENDBRANCH  12  16
ENDBRANCH   1  14
BRANCH   1  19
ATOM     19  C   UNL     1       7.501   5.349  18.825  0.00  0.00    +0.000 C 
ATOM     20  F   UNL     1       8.627   6.038  19.166  0.00  0.00    +0.000 F 
ATOM     21  F   UNL     1       6.868   5.048  19.970  0.00  0.00    +0.000 F 
ATOM     22  F   UNL     1       7.988   4.176  18.326  0.00  0.00    +0.000 F 
ENDBRANCH   1  19
BRANCH   1  23
ATOM     23  C   UNL     1       7.351   7.519  17.392  0.00  0.00    +0.000 C 
ATOM     24  F   UNL     1       6.430   8.508  17.206  0.00  0.00    +0.000 F 
ATOM     25  F   UNL     1       8.090   7.976  18.444  0.00  0.00    +0.000 F 
ATOM     26  F   UNL     1       8.161   7.541  16.319  0.00  0.00    +0.000 F 
ENDBRANCH   1  23
TORSDOF 8
ENDMDL
MODEL 7
REMARK VINA RESULT:      -6.6      1.420      1.700
REMARK  Name = 
REMARK  10 active torsions:
REMARK  status: ('A' for Active; 'I' for Inactive)
REMARK    1  A    between atoms: C_1  and  C_2
REMARK    2  A    between atoms: C_2  and  O_3
REMARK    3  A    between atoms: O_3  and  C_4
REMARK    4  A    between atoms: N_6  and  C_7
REMARK    5  A    between atoms: C_7  and  N_8
REMARK    6  A    between atoms: C_7  and  C_17
REMARK    7  A    between atoms: C_7  and  C_21
REMARK    8  A    between atoms: C_12  and  S_13
REMARK    9  A    between atoms: S_13  and  C_14
REMARK   10  A    between atoms: C_14  and  C_15
REMARK                            x       y       z     vdW  Elec       q    Type
REMARK                         _______ _______ _______ _____ _____    ______ ____
ROOT
ATOM      1  C   UNL     1       3.941   5.112  17.608  0.00  0.00    +0.000 C 
ENDROOT
BRANCH   1   2
ATOM      2  N   UNL     1       3.582   6.548  17.319  0.00  0.00    +0.000 N 
ATOM      3  C   UNL     1       2.859   7.221  18.258  0.00  0.00    +0.000 A 
ATOM      4  N   UNL     1       2.571   6.775  19.461  0.00  0.00    +0.000 NA
ATOM      5  N   UNL     1       1.801   7.660  20.188  0.00  0.00    +0.000 NA
ATOM      6  C   UNL     1       1.538   8.755  19.510  0.00  0.00    +0.000 A 
ATOM      7  S   UNL     1       2.196   8.774  17.928  0.00  0.00    +0.000 S 
ATOM      8  H   UNL     1       3.271   6.701  16.365  0.00  0.00    +0.000 HD
BRANCH   6   9
ATOM      9  S   UNL     1       0.576  10.067  20.153  0.00  0.00    +0.000 S 
BRANCH   9  10
ATOM     10  C   UNL     1      -0.063  10.811  18.622  0.00  0.00    +0.000 C 
ATOM     11  C   UNL     1      -1.469  10.307  18.343  0.00  0.00    +0.000 C 
ENDBRANCH   9  10
ENDBRANCH   6   9
ENDBRANCH   1   2
BRANCH   1  14
ATOM     12  C   UNL     1       5.511   5.740  15.826  0.00  0.00    +0.000 C 
ATOM     13  O   UNL     1       5.803   6.781  16.392  0.00  0.00    +0.000 OA
ATOM     14  N   UNL     1       4.663   4.808  16.351  0.00  0.00    +0.000 N 
ATOM     15  H   UNL     1       4.291   4.140  15.693  0.00  0.00    +0.000 HD
BRANCH  12  16
ATOM     16  O   UNL     1       5.867   5.368  14.580  0.00  0.00    +0.000 OA
BRANCH  16  18
ATOM     17  C   UNL     1       6.155   3.642  12.966  0.00  0.00    +0.000 C 
ATOM     18  C   UNL     1       6.279   3.999  14.434  0.00  0.00    +0.000 C 
ENDBRANCH  16  18
ENDBRANCH  12  16
ENDBRANCH   1  14
BRANCH   1  19
ATOM     19  C   UNL     1       2.663   4.183  17.769  0.00  0.00    +0.000 C 
ATOM     20  F   UNL     1       2.495   3.785  19.062  0.00  0.00    +0.000 F 
ATOM     21  F   UNL     1       1.490   4.694  17.365  0.00  0.00    +0.000 F 
ATOM     22  F   UNL     1       2.831   3.007  17.097  0.00  0.00    +0.000 F 
ENDBRANCH   1  19
BRANCH   1  23
ATOM     23  C   UNL     1       4.883   4.966  18.886  0.00  0.00    +0.000 C 
ATOM     24  F   UNL     1       5.781   3.950  18.736  0.00  0.00    +0.000 F 
ATOM     25  F   UNL     1       5.677   6.063  19.051  0.00  0.00    +0.000 F 
ATOM     26  F   UNL     1       4.263   4.762  20.061  0.00  0.00    +0.000 F 
ENDBRANCH   1  23
TORSDOF 8
ENDMDL
MODEL 8
REMARK VINA RESULT:      -6.6      1.746      1.896
REMARK  Name = 
REMARK  10 active torsions:
REMARK  status: ('A' for Active; 'I' for Inactive)
REMARK    1  A    between atoms: C_1  and  C_2
REMARK    2  A    between atoms: C_2  and  O_3
REMARK    3  A    between atoms: O_3  and  C_4
REMARK    4  A    between atoms: N_6  and  C_7
REMARK    5  A    between atoms: C_7  and  N_8
REMARK    6  A    between atoms: C_7  and  C_17
REMARK    7  A    between atoms: C_7  and  C_21
REMARK    8  A    between atoms: C_12  and  S_13
REMARK    9  A    between atoms: S_13  and  C_14
REMARK   10  A    between atoms: C_14  and  C_15
REMARK                            x       y       z     vdW  Elec       q    Type
REMARK                         _______ _______ _______ _____ _____    ______ ____
ROOT
ATOM      1  C   UNL     1       4.652   4.769  17.448  0.00  0.00    +0.000 C 
ENDROOT
BRANCH   1   2
ATOM      2  N   UNL     1       4.157   6.171  17.192  0.00  0.00    +0.000 N 
ATOM      3  C   UNL     1       3.367   6.746  18.143  0.00  0.00    +0.000 A 
ATOM      4  N   UNL     1       3.117   6.243  19.332  0.00  0.00    +0.000 NA
ATOM      5  N   UNL     1       2.259   7.029  20.074  0.00  0.00    +0.000 NA
ATOM      6  C   UNL     1       1.896   8.111  19.422  0.00  0.00    +0.000 A 
ATOM      7  S   UNL     1       2.558   8.236  17.847  0.00  0.00    +0.000 S 
ATOM      8  H   UNL     1       3.838   6.318  16.241  0.00  0.00    +0.000 HD
BRANCH   6   9
ATOM      9  S   UNL     1       0.807   9.306  20.091  0.00  0.00    +0.000 S 
BRANCH   9  10
ATOM     10  C   UNL     1       0.488  10.340  18.629  0.00  0.00    +0.000 C 
ATOM     11  C   UNL     1      -0.980  10.259  18.243  0.00  0.00    +0.000 C 
ENDBRANCH   9  10
ENDBRANCH   6   9
ENDBRANCH   1   2
BRANCH   1  14
ATOM     12  C   UNL     1       6.101   5.486  15.598  0.00  0.00    +0.000 C 
ATOM     13  O   UNL     1       6.414   6.509  16.183  0.00  0.00    +0.000 OA
ATOM     14  N   UNL     1       5.299   4.522  16.139  0.00  0.00    +0.000 N 
ATOM     15  H   UNL     1       4.896   3.873  15.481  0.00  0.00    +0.000 HD
BRANCH  12  16
ATOM     16  O   UNL     1       6.384   5.165  14.320  0.00  0.00    +0.000 OA
BRANCH  16  18
ATOM     17  C   UNL     1       6.418   3.666  12.470  0.00  0.00    +0.000 C 
ATOM     18  C   UNL     1       5.906   3.883  13.881  0.00  0.00    +0.000 C 
ENDBRANCH  16  18
ENDBRANCH  12  16
ENDBRANCH   1  14
BRANCH   1  19
ATOM     19  C   UNL     1       3.469   3.741  17.702  0.00  0.00    +0.000 C 
ATOM     20  F   UNL     1       3.825   2.474  17.344  0.00  0.00    +0.000 F 
ATOM     21  F   UNL     1       2.987   3.670  18.952  0.00  0.00    +0.000 F 
ATOM     22  F   UNL     1       2.408   4.012  16.887  0.00  0.00    +0.000 F 
ENDBRANCH   1  19
BRANCH   1  23
ATOM     23  C   UNL     1       5.697   4.703  18.650  0.00  0.00    +0.000 C 
ATOM     24  F   UNL     1       6.876   4.139  18.262  0.00  0.00    +0.000 F 
ATOM     25  F   UNL     1       6.067   5.949  19.062  0.00  0.00    +0.000 F 
ATOM     26  F   UNL     1       5.296   4.041  19.750  0.00  0.00    +0.000 F 
ENDBRANCH   1  23
TORSDOF 8
ENDMDL
MODEL 9
REMARK VINA RESULT:      -6.6      0.297      1.112
REMARK  Name = 
REMARK  10 active torsions:
REMARK  status: ('A' for Active; 'I' for Inactive)
REMARK    1  A    between atoms: C_1  and  C_2
REMARK    2  A    between atoms: C_2  and  O_3
REMARK    3  A    between atoms: O_3  and  C_4
REMARK    4  A    between atoms: N_6  and  C_7
REMARK    5  A    between atoms: C_7  and  N_8
REMARK    6  A    between atoms: C_7  and  C_17
REMARK    7  A    between atoms: C_7  and  C_21
REMARK    8  A    between atoms: C_12  and  S_13
REMARK    9  A    between atoms: S_13  and  C_14
REMARK   10  A    between atoms: C_14  and  C_15
REMARK                            x       y       z     vdW  Elec       q    Type
REMARK                         _______ _______ _______ _____ _____    ______ ____
ROOT
ATOM      1  C   UNL     1       3.362   4.884  17.933  0.00  0.00    +0.000 C 
ENDROOT
BRANCH   1   2
ATOM      2  N   UNL     1       3.180   6.370  17.750  0.00  0.00    +0.000 N 
ATOM      3  C   UNL     1       2.544   7.056  18.740  0.00  0.00    +0.000 A 
ATOM      4  N   UNL     1       2.203   6.563  19.911  0.00  0.00    +0.000 NA
ATOM      5  N   UNL     1       1.545   7.480  20.704  0.00  0.00    +0.000 NA
ATOM      6  C   UNL     1       1.418   8.645  20.109  0.00  0.00    +0.000 A 
ATOM      7  S   UNL     1       2.075   8.698  18.527  0.00  0.00    +0.000 S 
ATOM      8  H   UNL     1       2.892   6.627  16.812  0.00  0.00    +0.000 HD
BRANCH   6   9
ATOM      9  S   UNL     1       0.622  10.014  20.852  0.00  0.00    +0.000 S 
BRANCH   9  10
ATOM     10  C   UNL     1       0.016   9.266  22.395  0.00  0.00    +0.000 C 
ATOM     11  C   UNL     1      -0.835  10.266  23.161  0.00  0.00    +0.000 C 
ENDBRANCH   9  10
ENDBRANCH   6   9
ENDBRANCH   1   2
BRANCH   1  14
ATOM     12  C   UNL     1       5.051   5.366  16.216  0.00  0.00    +0.000 C 
ATOM     13  O   UNL     1       5.551   6.248  16.894  0.00  0.00    +0.000 OA
ATOM     14  N   UNL     1       4.018   4.581  16.640  0.00  0.00    +0.000 N 
ATOM     15  H   UNL     1       3.521   4.088  15.914  0.00  0.00    +0.000 HD
BRANCH  12  16
ATOM     16  O   UNL     1       5.335   5.074  14.930  0.00  0.00    +0.000 OA
BRANCH  16  18
ATOM     17  C   UNL     1       6.439   3.815  13.238  0.00  0.00    +0.000 C 
ATOM     18  C   UNL     1       6.344   4.071  14.729  0.00  0.00    +0.000 C 
ENDBRANCH  16  18
ENDBRANCH  12  16
ENDBRANCH   1  14
BRANCH   1  19
ATOM     19  C   UNL     1       1.981   4.111  18.065  0.00  0.00    +0.000 C 
ATOM     20  F   UNL     1       1.019   4.671  17.278  0.00  0.00    +0.000 F 
ATOM     21  F   UNL     1       1.995   2.798  17.788  0.00  0.00    +0.000 F 
ATOM     22  F   UNL     1       1.472   4.241  19.325  0.00  0.00    +0.000 F 
ENDBRANCH   1  19
BRANCH   1  23
ATOM     23  C   UNL     1       4.301   4.534  19.173  0.00  0.00    +0.000 C 
ATOM     24  F   UNL     1       3.595   3.972  20.197  0.00  0.00    +0.000 F 
ATOM     25  F   UNL     1       5.212   3.570  18.856  0.00  0.00    +0.000 F 
ATOM     26  F   UNL     1       4.995   5.557  19.700  0.00  0.00    +0.000 F 
ENDBRANCH   1  23
TORSDOF 8
ENDMDL
