MODEL 1
REMARK VINA RESULT:      -7.2      0.000      0.000
REMARK  Name = 
REMARK  9 active torsions:
REMARK  status: ('A' for Active; 'I' for Inactive)
REMARK    1  A    between atoms: N_1  and  N_2
REMARK    2  A    between atoms: C_3  and  S_4
REMARK    3  A    between atoms: S_4  and  C_5
REMARK    4  A    between atoms: C_5  and  C_6
REMARK    5  A    between atoms: N_8  and  C_9
REMARK    6  A    between atoms: C_9  and  C_10
REMARK    7  A    between atoms: C_17  and  C_18
REMARK    8  A    between atoms: C_21  and  O_22
REMARK    9  A    between atoms: O_22  and  C_23
REMARK                            x       y       z     vdW  Elec       q    Type
REMARK                         _______ _______ _______ _____ _____    ______ ____
ROOT
ATOM      1  N   UNL     1       3.176   5.020  19.995  0.00  0.00    +0.000 N 
ATOM      2  C   UNL     1       2.943   3.694  20.277  0.00  0.00    +0.000 A 
ATOM      3  N   UNL     1       1.710   3.537  20.697  0.00  0.00    +0.000 NA
ATOM      4  N   UNL     1       1.106   4.776  20.676  0.00  0.00    +0.000 NA
ATOM      5  C   UNL     1       1.970   5.670  20.212  0.00  0.00    +0.000 A 
ENDROOT
BRANCH   5   6
ATOM      6  C   UNL     1       1.697   7.100  20.023  0.00  0.00    +0.000 A 
ATOM      7  C   UNL     1       1.964   7.699  18.781  0.00  0.00    +0.000 A 
ATOM      8  C   UNL     1       1.710   9.056  18.568  0.00  0.00    +0.000 A 
ATOM      9  C   UNL     1       1.174   9.847  19.587  0.00  0.00    +0.000 A 
ATOM     10  C   UNL     1       0.948   9.280  20.839  0.00  0.00    +0.000 A 
ATOM     11  C   UNL     1       1.211   7.918  21.051  0.00  0.00    +0.000 A 
BRANCH   9  12
ATOM     12  O   UNL     1       0.959  11.156  19.257  0.00  0.00    +0.000 OA
BRANCH  12  13
ATOM     13  C   UNL     1      -0.389  11.507  18.991  0.00  0.00    +0.000 C 
ATOM     14  F   UNL     1      -1.027  10.437  18.459  0.00  0.00    +0.000 F 
ATOM     15  F   UNL     1      -0.983  11.762  20.184  0.00  0.00    +0.000 F 
ENDBRANCH  12  13
ENDBRANCH   9  12
ENDBRANCH   5   6
BRANCH   1  16
ATOM     16  N   UNL     1       4.438   5.619  19.620  0.00  0.00    +0.000 N 
ATOM     17  H   UNL     1       4.420   5.878  18.633  0.00  0.00    +0.000 HD
ATOM     18  H   UNL     1       5.200   4.948  19.708  0.00  0.00    +0.000 HD
ENDBRANCH   1  16
BRANCH   2  19
ATOM     19  S   UNL     1       4.156   2.461  20.150  0.00  0.00    +0.000 S 
BRANCH  19  20
ATOM     20  C   UNL     1       3.648   1.658  18.600  0.00  0.00    +0.000 C 
BRANCH  20  21
ATOM     21  C   UNL     1       3.630   2.676  17.470  0.00  0.00    +0.000 C 
ATOM     22  O   UNL     1       2.595   3.015  16.905  0.00  0.00    +0.000 OA
ATOM     23  N   UNL     1       4.873   3.165  17.113  0.00  0.00    +0.000 N 
ATOM     24  H   UNL     1       5.633   3.087  17.778  0.00  0.00    +0.000 HD
BRANCH  23  25
ATOM     25  C   UNL     1       5.025   4.182  16.083  0.00  0.00    +0.000 C 
BRANCH  25  26
ATOM     26  C   UNL     1       6.277   5.042  16.292  0.00  0.00    +0.000 C 
ATOM     27  C   UNL     1       6.971   4.834  17.629  0.00  0.00    +0.000 C 
ATOM     28  C   UNL     1       7.637   6.170  17.851  0.00  0.00    +0.000 C 
ATOM     29  C   UNL     1       6.629   7.135  17.267  0.00  0.00    +0.000 C 
ATOM     30  O   UNL     1       5.934   6.443  16.220  0.00  0.00    +0.000 OA
ENDBRANCH  25  26
ENDBRANCH  23  25
ENDBRANCH  20  21
ENDBRANCH  19  20
ENDBRANCH   2  19
TORSDOF 9
ENDMDL
MODEL 2
REMARK VINA RESULT:      -7.1      2.924      4.720
REMARK  Name = 
REMARK  9 active torsions:
REMARK  status: ('A' for Active; 'I' for Inactive)
REMARK    1  A    between atoms: N_1  and  N_2
REMARK    2  A    between atoms: C_3  and  S_4
REMARK    3  A    between atoms: S_4  and  C_5
REMARK    4  A    between atoms: C_5  and  C_6
REMARK    5  A    between atoms: N_8  and  C_9
REMARK    6  A    between atoms: C_9  and  C_10
REMARK    7  A    between atoms: C_17  and  C_18
REMARK    8  A    between atoms: C_21  and  O_22
REMARK    9  A    between atoms: O_22  and  C_23
REMARK                            x       y       z     vdW  Elec       q    Type
REMARK                         _______ _______ _______ _____ _____    ______ ____
ROOT
ATOM      1  N   UNL     1       2.370   7.498  19.019  0.00  0.00    +0.000 N 
ATOM      2  C   UNL     1       3.015   7.407  17.807  0.00  0.00    +0.000 A 
ATOM      3  N   UNL     1       2.793   8.491  17.102  0.00  0.00    +0.000 NA
ATOM      4  N   UNL     1       2.005   9.326  17.865  0.00  0.00    +0.000 NA
ATOM      5  C   UNL     1       1.781   8.752  19.040  0.00  0.00    +0.000 A 
ENDROOT
BRANCH   5   6
ATOM      6  C   UNL     1       0.996   9.335  20.136  0.00  0.00    +0.000 A 
ATOM      7  C   UNL     1       1.217   8.902  21.454  0.00  0.00    +0.000 A 
ATOM      8  C   UNL     1       0.491   9.442  22.518  0.00  0.00    +0.000 A 
ATOM      9  C   UNL     1      -0.468  10.434  22.295  0.00  0.00    +0.000 A 
ATOM     10  C   UNL     1      -0.731  10.841  20.990  0.00  0.00    +0.000 A 
ATOM     11  C   UNL     1      -0.005  10.292  19.922  0.00  0.00    +0.000 A 
BRANCH   9  12
ATOM     12  O   UNL     1      -1.104  10.891  23.414  0.00  0.00    +0.000 OA
BRANCH  12  13
ATOM     13  C   UNL     1      -2.067  11.910  23.199  0.00  0.00    +0.000 C 
ATOM     14  F   UNL     1      -3.158  11.654  23.960  0.00  0.00    +0.000 F 
ATOM     15  F   UNL     1      -1.535  13.072  23.657  0.00  0.00    +0.000 F 
ENDBRANCH  12  13
ENDBRANCH   9  12
ENDBRANCH   5   6
BRANCH   1  16
ATOM     16  N   UNL     1       2.270   6.466  20.028  0.00  0.00    +0.000 N 
ATOM     17  H   UNL     1       2.322   5.545  19.590  0.00  0.00    +0.000 HD
ATOM     18  H   UNL     1       1.363   6.494  20.490  0.00  0.00    +0.000 HD
ENDBRANCH   1  16
BRANCH   2  19
ATOM     19  S   UNL     1       3.914   6.013  17.303  0.00  0.00    +0.000 S 
BRANCH  19  20
ATOM     20  C   UNL     1       5.427   6.221  18.290  0.00  0.00    +0.000 C 
BRANCH  20  21
ATOM     21  C   UNL     1       5.648   4.997  19.166  0.00  0.00    +0.000 C 
ATOM     22  O   UNL     1       6.614   4.889  19.915  0.00  0.00    +0.000 OA
ATOM     23  N   UNL     1       4.691   4.009  19.030  0.00  0.00    +0.000 N 
ATOM     24  H   UNL     1       3.788   4.259  18.642  0.00  0.00    +0.000 HD
BRANCH  23  25
ATOM     25  C   UNL     1       4.728   2.795  19.833  0.00  0.00    +0.000 C 
BRANCH  25  26
ATOM     26  C   UNL     1       3.327   2.303  20.214  0.00  0.00    +0.000 C 
ATOM     27  C   UNL     1       2.197   2.928  19.411  0.00  0.00    +0.000 C 
ATOM     28  C   UNL     1       1.041   2.847  20.377  0.00  0.00    +0.000 C 
ATOM     29  C   UNL     1       1.714   3.087  21.709  0.00  0.00    +0.000 C 
ATOM     30  O   UNL     1       3.058   2.598  21.602  0.00  0.00    +0.000 OA
ENDBRANCH  25  26
ENDBRANCH  23  25
ENDBRANCH  20  21
ENDBRANCH  19  20
ENDBRANCH   2  19
TORSDOF 9
ENDMDL
MODEL 3
REMARK VINA RESULT:      -7.1      2.907      4.640
REMARK  Name = 
REMARK  9 active torsions:
REMARK  status: ('A' for Active; 'I' for Inactive)
REMARK    1  A    between atoms: N_1  and  N_2
REMARK    2  A    between atoms: C_3  and  S_4
REMARK    3  A    between atoms: S_4  and  C_5
REMARK    4  A    between atoms: C_5  and  C_6
REMARK    5  A    between atoms: N_8  and  C_9
REMARK    6  A    between atoms: C_9  and  C_10
REMARK    7  A    between atoms: C_17  and  C_18
REMARK    8  A    between atoms: C_21  and  O_22
REMARK    9  A    between atoms: O_22  and  C_23
REMARK                            x       y       z     vdW  Elec       q    Type
REMARK                         _______ _______ _______ _____ _____    ______ ____
ROOT
ATOM      1  N   UNL     1       2.381   7.534  19.080  0.00  0.00    +0.000 N 
ATOM      2  C   UNL     1       3.009   7.542  17.857  0.00  0.00    +0.000 A 
ATOM      3  N   UNL     1       2.754   8.668  17.232  0.00  0.00    +0.000 NA
ATOM      4  N   UNL     1       1.959   9.430  18.061  0.00  0.00    +0.000 NA
ATOM      5  C   UNL     1       1.765   8.771  19.197  0.00  0.00    +0.000 A 
ENDROOT
BRANCH   5   6
ATOM      6  C   UNL     1       0.985   9.259  20.341  0.00  0.00    +0.000 A 
ATOM      7  C   UNL     1      -0.030  10.208  20.135  0.00  0.00    +0.000 A 
ATOM      8  C   UNL     1      -0.793  10.687  21.201  0.00  0.00    +0.000 A 
ATOM      9  C   UNL     1      -0.570  10.225  22.501  0.00  0.00    +0.000 A 
ATOM     10  C   UNL     1       0.463   9.319  22.729  0.00  0.00    +0.000 A 
ATOM     11  C   UNL     1       1.233   8.845  21.657  0.00  0.00    +0.000 A 
BRANCH   9  12
ATOM     12  O   UNL     1      -1.386  10.758  23.458  0.00  0.00    +0.000 OA
BRANCH  12  13
ATOM     13  C   UNL     1      -2.043  11.963  23.102  0.00  0.00    +0.000 C 
ATOM     14  F   UNL     1      -3.211  12.046  23.782  0.00  0.00    +0.000 F 
ATOM     15  F   UNL     1      -1.267  12.990  23.532  0.00  0.00    +0.000 F 
ENDBRANCH  12  13
ENDBRANCH   9  12
ENDBRANCH   5   6
BRANCH   1  16
ATOM     16  N   UNL     1       2.318   6.433  20.017  0.00  0.00    +0.000 N 
ATOM     17  H   UNL     1       1.998   5.590  19.540  0.00  0.00    +0.000 HD
ATOM     18  H   UNL     1       1.627   6.611  20.743  0.00  0.00    +0.000 HD
ENDBRANCH   1  16
BRANCH   2  19
ATOM     19  S   UNL     1       3.931   6.207  17.245  0.00  0.00    +0.000 S 
BRANCH  19  20
ATOM     20  C   UNL     1       5.413   6.322  18.292  0.00  0.00    +0.000 C 
BRANCH  20  21
ATOM     21  C   UNL     1       5.568   5.051  19.114  0.00  0.00    +0.000 C 
ATOM     22  O   UNL     1       6.524   4.861  19.859  0.00  0.00    +0.000 OA
ATOM     23  N   UNL     1       4.562   4.120  18.932  0.00  0.00    +0.000 N 
ATOM     24  H   UNL     1       3.676   4.432  18.554  0.00  0.00    +0.000 HD
BRANCH  23  25
ATOM     25  C   UNL     1       4.535   2.871  19.681  0.00  0.00    +0.000 C 
BRANCH  25  26
ATOM     26  C   UNL     1       3.146   2.223  19.685  0.00  0.00    +0.000 C 
ATOM     27  C   UNL     1       2.394   2.331  18.367  0.00  0.00    +0.000 C 
ATOM     28  C   UNL     1       0.956   2.288  18.819  0.00  0.00    +0.000 C 
ATOM     29  C   UNL     1       1.005   3.042  20.128  0.00  0.00    +0.000 C 
ATOM     30  O   UNL     1       2.311   2.843  20.686  0.00  0.00    +0.000 OA
ENDBRANCH  25  26
ENDBRANCH  23  25
ENDBRANCH  20  21
ENDBRANCH  19  20
ENDBRANCH   2  19
TORSDOF 9
ENDMDL
MODEL 4
REMARK VINA RESULT:      -7.0      4.403      8.613
REMARK  Name = 
REMARK  9 active torsions:
REMARK  status: ('A' for Active; 'I' for Inactive)
REMARK    1  A    between atoms: N_1  and  N_2
REMARK    2  A    between atoms: C_3  and  S_4
REMARK    3  A    between atoms: S_4  and  C_5
REMARK    4  A    between atoms: C_5  and  C_6
REMARK    5  A    between atoms: N_8  and  C_9
REMARK    6  A    between atoms: C_9  and  C_10
REMARK    7  A    between atoms: C_17  and  C_18
REMARK    8  A    between atoms: C_21  and  O_22
REMARK    9  A    between atoms: O_22  and  C_23
REMARK                            x       y       z     vdW  Elec       q    Type
REMARK                         _______ _______ _______ _____ _____    ______ ____
ROOT
ATOM      1  N   UNL     1       2.083   7.898  19.438  0.00  0.00    +0.000 N 
ATOM      2  C   UNL     1       1.270   9.007  19.472  0.00  0.00    +0.000 A 
ATOM      3  N   UNL     1       1.351   9.654  18.333  0.00  0.00    +0.000 NA
ATOM      4  N   UNL     1       2.216   8.953  17.520  0.00  0.00    +0.000 NA
ATOM      5  C   UNL     1       2.629   7.868  18.164  0.00  0.00    +0.000 A 
ENDROOT
BRANCH   5   6
ATOM      6  C   UNL     1       3.547   6.857  17.625  0.00  0.00    +0.000 A 
ATOM      7  C   UNL     1       3.203   5.497  17.700  0.00  0.00    +0.000 A 
ATOM      8  C   UNL     1       4.052   4.512  17.191  0.00  0.00    +0.000 A 
ATOM      9  C   UNL     1       5.263   4.859  16.587  0.00  0.00    +0.000 A 
ATOM     10  C   UNL     1       5.641   6.199  16.547  0.00  0.00    +0.000 A 
ATOM     11  C   UNL     1       4.789   7.186  17.065  0.00  0.00    +0.000 A 
BRANCH   9  12
ATOM     12  O   UNL     1       6.003   3.811  16.119  0.00  0.00    +0.000 OA
BRANCH  12  13
ATOM     13  C   UNL     1       6.210   3.785  14.716  0.00  0.00    +0.000 C 
ATOM     14  F   UNL     1       5.116   4.291  14.099  0.00  0.00    +0.000 F 
ATOM     15  F   UNL     1       7.238   4.628  14.443  0.00  0.00    +0.000 F 
ENDBRANCH  12  13
ENDBRANCH   9  12
ENDBRANCH   5   6
BRANCH   1  16
ATOM     16  N   UNL     1       2.364   6.994  20.532  0.00  0.00    +0.000 N 
ATOM     17  H   UNL     1       2.630   7.525  21.362  0.00  0.00    +0.000 HD
ATOM     18  H   UNL     1       3.166   6.404  20.321  0.00  0.00    +0.000 HD
ENDBRANCH   1  16
BRANCH   2  19
ATOM     19  S   UNL     1       0.351   9.479  20.865  0.00  0.00    +0.000 S 
BRANCH  19  20
ATOM     20  C   UNL     1       0.676  11.267  20.884  0.00  0.00    +0.000 C 
BRANCH  20  21
ATOM     21  C   UNL     1      -0.256  11.975  19.912  0.00  0.00    +0.000 C 
ATOM     22  O   UNL     1       0.102  12.936  19.237  0.00  0.00    +0.000 OA
ATOM     23  N   UNL     1      -1.541  11.467  19.870  0.00  0.00    +0.000 N 
ATOM     24  H   UNL     1      -1.701  10.525  20.207  0.00  0.00    +0.000 HD
BRANCH  23  25
ATOM     25  C   UNL     1      -2.542  11.999  18.956  0.00  0.00    +0.000 C 
BRANCH  25  26
ATOM     26  C   UNL     1      -3.081  10.934  17.995  0.00  0.00    +0.000 C 
ATOM     27  C   UNL     1      -2.013  10.216  17.184  0.00  0.00    +0.000 C 
ATOM     28  C   UNL     1      -2.773   9.816  15.944  0.00  0.00    +0.000 C 
ATOM     29  C   UNL     1      -3.711  10.986  15.747  0.00  0.00    +0.000 C 
ATOM     30  O   UNL     1      -3.985  11.535  17.044  0.00  0.00    +0.000 OA
ENDBRANCH  25  26
ENDBRANCH  23  25
ENDBRANCH  20  21
ENDBRANCH  19  20
ENDBRANCH   2  19
TORSDOF 9
ENDMDL
MODEL 5
REMARK VINA RESULT:      -6.9      2.509      3.490
REMARK  Name = 
REMARK  9 active torsions:
REMARK  status: ('A' for Active; 'I' for Inactive)
REMARK    1  A    between atoms: N_1  and  N_2
REMARK    2  A    between atoms: C_3  and  S_4
REMARK    3  A    between atoms: S_4  and  C_5
REMARK    4  A    between atoms: C_5  and  C_6
REMARK    5  A    between atoms: N_8  and  C_9
REMARK    6  A    between atoms: C_9  and  C_10
REMARK    7  A    between atoms: C_17  and  C_18
REMARK    8  A    between atoms: C_21  and  O_22
REMARK    9  A    between atoms: O_22  and  C_23
REMARK                            x       y       z     vdW  Elec       q    Type
REMARK                         _______ _______ _______ _____ _____    ______ ____
ROOT
ATOM      1  N   UNL     1       2.461   6.261  19.263  0.00  0.00    +0.000 N 
ATOM      2  C   UNL     1       3.368   5.791  18.340  0.00  0.00    +0.000 A 
ATOM      3  N   UNL     1       3.693   6.751  17.507  0.00  0.00    +0.000 NA
ATOM      4  N   UNL     1       3.007   7.883  17.892  0.00  0.00    +0.000 NA
ATOM      5  C   UNL     1       2.295   7.607  18.977  0.00  0.00    +0.000 A 
ENDROOT
BRANCH   5   6
ATOM      6  C   UNL     1       1.442   8.559  19.700  0.00  0.00    +0.000 A 
ATOM      7  C   UNL     1       0.824   9.607  18.999  0.00  0.00    +0.000 A 
ATOM      8  C   UNL     1       0.002  10.526  19.656  0.00  0.00    +0.000 A 
ATOM      9  C   UNL     1      -0.231  10.416  21.030  0.00  0.00    +0.000 A 
ATOM     10  C   UNL     1       0.412   9.410  21.748  0.00  0.00    +0.000 A 
ATOM     11  C   UNL     1       1.242   8.494  21.085  0.00  0.00    +0.000 A 
BRANCH   9  12
ATOM     12  O   UNL     1      -1.059  11.365  21.558  0.00  0.00    +0.000 OA
BRANCH  12  13
ATOM     13  C   UNL     1      -1.014  11.501  22.969  0.00  0.00    +0.000 C 
ATOM     14  F   UNL     1      -0.926  12.816  23.283  0.00  0.00    +0.000 F 
ATOM     15  F   UNL     1      -2.202  11.062  23.456  0.00  0.00    +0.000 F 
ENDBRANCH  12  13
ENDBRANCH   9  12
ENDBRANCH   5   6
BRANCH   1  16
ATOM     16  N   UNL     1       1.773   5.488  20.274  0.00  0.00    +0.000 N 
ATOM     17  H   UNL     1       1.605   4.541  19.932  0.00  0.00    +0.000 HD
ATOM     18  H   UNL     1       0.849   5.874  20.461  0.00  0.00    +0.000 HD
ENDBRANCH   1  16
BRANCH   2  19
ATOM     19  S   UNL     1       3.913   4.146  18.286  0.00  0.00    +0.000 S 
BRANCH  19  20
ATOM     20  C   UNL     1       5.486   4.290  19.185  0.00  0.00    +0.000 C 
BRANCH  20  21
ATOM     21  C   UNL     1       6.596   4.697  18.228  0.00  0.00    +0.000 C 
ATOM     22  O   UNL     1       7.703   5.059  18.617  0.00  0.00    +0.000 OA
ATOM     23  N   UNL     1       6.250   4.655  16.891  0.00  0.00    +0.000 N 
ATOM     24  H   UNL     1       5.458   4.087  16.613  0.00  0.00    +0.000 HD
BRANCH  23  25
ATOM     25  C   UNL     1       7.212   4.967  15.843  0.00  0.00    +0.000 C 
BRANCH  25  26
ATOM     26  C   UNL     1       6.580   4.951  14.446  0.00  0.00    +0.000 C 
ATOM     27  C   UNL     1       6.046   3.596  14.009  0.00  0.00    +0.000 C 
ATOM     28  C   UNL     1       6.155   3.683  12.507  0.00  0.00    +0.000 C 
ATOM     29  C   UNL     1       7.424   4.483  12.319  0.00  0.00    +0.000 C 
ATOM     30  O   UNL     1       7.553   5.348  13.457  0.00  0.00    +0.000 OA
ENDBRANCH  25  26
ENDBRANCH  23  25
ENDBRANCH  20  21
ENDBRANCH  19  20
ENDBRANCH   2  19
TORSDOF 9
ENDMDL
MODEL 6
REMARK VINA RESULT:      -6.7      1.064      1.521
REMARK  Name = 
REMARK  9 active torsions:
REMARK  status: ('A' for Active; 'I' for Inactive)
REMARK    1  A    between atoms: N_1  and  N_2
REMARK    2  A    between atoms: C_3  and  S_4
REMARK    3  A    between atoms: S_4  and  C_5
REMARK    4  A    between atoms: C_5  and  C_6
REMARK    5  A    between atoms: N_8  and  C_9
REMARK    6  A    between atoms: C_9  and  C_10
REMARK    7  A    between atoms: C_17  and  C_18
REMARK    8  A    between atoms: C_21  and  O_22
REMARK    9  A    between atoms: O_22  and  C_23
REMARK                            x       y       z     vdW  Elec       q    Type
REMARK                         _______ _______ _______ _____ _____    ______ ____
ROOT
ATOM      1  N   UNL     1       2.186   4.994  19.899  0.00  0.00    +0.000 N 
ATOM      2  C   UNL     1       3.202   4.067  19.938  0.00  0.00    +0.000 A 
ATOM      3  N   UNL     1       4.347   4.649  19.671  0.00  0.00    +0.000 NA
ATOM      4  N   UNL     1       4.092   5.989  19.469  0.00  0.00    +0.000 NA
ATOM      5  C   UNL     1       2.796   6.213  19.648  0.00  0.00    +0.000 A 
ENDROOT
BRANCH   5   6
ATOM      6  C   UNL     1       2.136   7.520  19.539  0.00  0.00    +0.000 A 
ATOM      7  C   UNL     1       2.199   8.230  18.329  0.00  0.00    +0.000 A 
ATOM      8  C   UNL     1       1.576   9.473  18.191  0.00  0.00    +0.000 A 
ATOM      9  C   UNL     1       0.866  10.034  19.256  0.00  0.00    +0.000 A 
ATOM     10  C   UNL     1       0.833   9.365  20.477  0.00  0.00    +0.000 A 
ATOM     11  C   UNL     1       1.466   8.120  20.613  0.00  0.00    +0.000 A 
BRANCH   9  12
ATOM     12  O   UNL     1       0.292  11.247  18.999  0.00  0.00    +0.000 OA
BRANCH  12  13
ATOM     13  C   UNL     1       1.170  12.359  19.024  0.00  0.00    +0.000 C 
ATOM     14  F   UNL     1       0.807  13.231  18.053  0.00  0.00    +0.000 F 
ATOM     15  F   UNL     1       0.984  12.994  20.209  0.00  0.00    +0.000 F 
ENDBRANCH  12  13
ENDBRANCH   9  12
ENDBRANCH   5   6
BRANCH   1  16
ATOM     16  N   UNL     1       0.769   4.733  20.023  0.00  0.00    +0.000 N 
ATOM     17  H   UNL     1       0.619   3.838  20.490  0.00  0.00    +0.000 HD
ATOM     18  H   UNL     1       0.335   4.634  19.106  0.00  0.00    +0.000 HD
ENDBRANCH   1  16
BRANCH   2  19
ATOM     19  S   UNL     1       2.945   2.377  20.231  0.00  0.00    +0.000 S 
BRANCH  19  20
ATOM     20  C   UNL     1       3.634   1.670  18.704  0.00  0.00    +0.000 C 
BRANCH  20  21
ATOM     21  C   UNL     1       3.530   2.680  17.571  0.00  0.00    +0.000 C 
ATOM     22  O   UNL     1       2.457   3.001  17.071  0.00  0.00    +0.000 OA
ATOM     23  N   UNL     1       4.741   3.183  17.133  0.00  0.00    +0.000 N 
ATOM     24  H   UNL     1       5.543   3.119  17.748  0.00  0.00    +0.000 HD
BRANCH  23  25
ATOM     25  C   UNL     1       4.814   4.195  16.088  0.00  0.00    +0.000 C 
BRANCH  25  26
ATOM     26  C   UNL     1       6.077   5.056  16.197  0.00  0.00    +0.000 C 
ATOM     27  C   UNL     1       6.891   4.828  17.462  0.00  0.00    +0.000 C 
ATOM     28  C   UNL     1       7.571   6.163  17.645  0.00  0.00    +0.000 C 
ATOM     29  C   UNL     1       6.512   7.133  17.172  0.00  0.00    +0.000 C 
ATOM     30  O   UNL     1       5.726   6.457  16.181  0.00  0.00    +0.000 OA
ENDBRANCH  25  26
ENDBRANCH  23  25
ENDBRANCH  20  21
ENDBRANCH  19  20
ENDBRANCH   2  19
TORSDOF 9
ENDMDL
MODEL 7
REMARK VINA RESULT:      -6.7      1.120      1.903
REMARK  Name = 
REMARK  9 active torsions:
REMARK  status: ('A' for Active; 'I' for Inactive)
REMARK    1  A    between atoms: N_1  and  N_2
REMARK    2  A    between atoms: C_3  and  S_4
REMARK    3  A    between atoms: S_4  and  C_5
REMARK    4  A    between atoms: C_5  and  C_6
REMARK    5  A    between atoms: N_8  and  C_9
REMARK    6  A    between atoms: C_9  and  C_10
REMARK    7  A    between atoms: C_17  and  C_18
REMARK    8  A    between atoms: C_21  and  O_22
REMARK    9  A    between atoms: O_22  and  C_23
REMARK                            x       y       z     vdW  Elec       q    Type
REMARK                         _______ _______ _______ _____ _____    ______ ____
ROOT
ATOM      1  N   UNL     1       2.354   4.876  19.867  0.00  0.00    +0.000 N 
ATOM      2  C   UNL     1       3.387   3.981  20.020  0.00  0.00    +0.000 A 
ATOM      3  N   UNL     1       4.531   4.576  19.778  0.00  0.00    +0.000 NA
ATOM      4  N   UNL     1       4.257   5.893  19.478  0.00  0.00    +0.000 NA
ATOM      5  C   UNL     1       2.948   6.093  19.572  0.00  0.00    +0.000 A 
ENDROOT
BRANCH   5   6
ATOM      6  C   UNL     1       2.264   7.372  19.343  0.00  0.00    +0.000 A 
ATOM      7  C   UNL     1       1.627   8.019  20.415  0.00  0.00    +0.000 A 
ATOM      8  C   UNL     1       0.973   9.240  20.231  0.00  0.00    +0.000 A 
ATOM      9  C   UNL     1       0.945   9.849  18.974  0.00  0.00    +0.000 A 
ATOM     10  C   UNL     1       1.531   9.198  17.891  0.00  0.00    +0.000 A 
ATOM     11  C   UNL     1       2.181   7.969  18.078  0.00  0.00    +0.000 A 
BRANCH   9  12
ATOM     12  O   UNL     1       0.285  11.044  18.920  0.00  0.00    +0.000 OA
BRANCH  12  13
ATOM     13  C   UNL     1       1.083  12.196  19.137  0.00  0.00    +0.000 C 
ATOM     14  F   UNL     1       1.231  12.386  20.470  0.00  0.00    +0.000 F 
ATOM     15  F   UNL     1       2.318  11.931  18.641  0.00  0.00    +0.000 F 
ENDBRANCH  12  13
ENDBRANCH   9  12
ENDBRANCH   5   6
BRANCH   1  16
ATOM     16  N   UNL     1       0.938   4.585  19.931  0.00  0.00    +0.000 N 
ATOM     17  H   UNL     1       0.762   3.870  20.637  0.00  0.00    +0.000 HD
ATOM     18  H   UNL     1       0.608   4.184  19.054  0.00  0.00    +0.000 HD
ENDBRANCH   1  16
BRANCH   2  19
ATOM     19  S   UNL     1       3.155   2.307  20.406  0.00  0.00    +0.000 S 
BRANCH  19  20
ATOM     20  C   UNL     1       3.696   1.532  18.853  0.00  0.00    +0.000 C 
BRANCH  20  21
ATOM     21  C   UNL     1       3.446   2.477  17.687  0.00  0.00    +0.000 C 
ATOM     22  O   UNL     1       2.341   2.606  17.169  0.00  0.00    +0.000 OA
ATOM     23  N   UNL     1       4.566   3.154  17.242  0.00  0.00    +0.000 N 
ATOM     24  H   UNL     1       5.360   3.239  17.866  0.00  0.00    +0.000 HD
BRANCH  23  25
ATOM     25  C   UNL     1       4.490   4.132  16.166  0.00  0.00    +0.000 C 
BRANCH  25  26
ATOM     26  C   UNL     1       5.729   5.032  16.105  0.00  0.00    +0.000 C 
ATOM     27  C   UNL     1       6.779   4.735  17.166  0.00  0.00    +0.000 C 
ATOM     28  C   UNL     1       7.450   6.076  17.330  0.00  0.00    +0.000 C 
ATOM     29  C   UNL     1       6.297   7.039  17.155  0.00  0.00    +0.000 C 
ATOM     30  O   UNL     1       5.349   6.414  16.278  0.00  0.00    +0.000 OA
ENDBRANCH  25  26
ENDBRANCH  23  25
ENDBRANCH  20  21
ENDBRANCH  19  20
ENDBRANCH   2  19
TORSDOF 9
ENDMDL
MODEL 8
REMARK VINA RESULT:      -6.7      1.996      2.970
REMARK  Name = 
REMARK  9 active torsions:
REMARK  status: ('A' for Active; 'I' for Inactive)
REMARK    1  A    between atoms: N_1  and  N_2
REMARK    2  A    between atoms: C_3  and  S_4
REMARK    3  A    between atoms: S_4  and  C_5
REMARK    4  A    between atoms: C_5  and  C_6
REMARK    5  A    between atoms: N_8  and  C_9
REMARK    6  A    between atoms: C_9  and  C_10
REMARK    7  A    between atoms: C_17  and  C_18
REMARK    8  A    between atoms: C_21  and  O_22
REMARK    9  A    between atoms: O_22  and  C_23
REMARK                            x       y       z     vdW  Elec       q    Type
REMARK                         _______ _______ _______ _____ _____    ______ ____
ROOT
ATOM      1  N   UNL     1       2.387   5.664  19.775  0.00  0.00    +0.000 N 
ATOM      2  C   UNL     1       2.968   4.880  18.805  0.00  0.00    +0.000 A 
ATOM      3  N   UNL     1       3.152   5.585  17.714  0.00  0.00    +0.000 NA
ATOM      4  N   UNL     1       2.704   6.863  17.967  0.00  0.00    +0.000 NA
ATOM      5  C   UNL     1       2.280   6.931  19.223  0.00  0.00    +0.000 A 
ENDROOT
BRANCH   5   6
ATOM      6  C   UNL     1       1.743   8.131  19.877  0.00  0.00    +0.000 A 
ATOM      7  C   UNL     1       1.544   8.134  21.266  0.00  0.00    +0.000 A 
ATOM      8  C   UNL     1       1.040   9.262  21.918  0.00  0.00    +0.000 A 
ATOM      9  C   UNL     1       0.732  10.420  21.200  0.00  0.00    +0.000 A 
ATOM     10  C   UNL     1       0.880  10.418  19.815  0.00  0.00    +0.000 A 
ATOM     11  C   UNL     1       1.379   9.281  19.163  0.00  0.00    +0.000 A 
BRANCH   9  12
ATOM     12  O   UNL     1       0.257  11.461  21.947  0.00  0.00    +0.000 OA
BRANCH  12  13
ATOM     13  C   UNL     1      -1.134  11.435  22.221  0.00  0.00    +0.000 C 
ATOM     14  F   UNL     1      -1.335  11.774  23.517  0.00  0.00    +0.000 F 
ATOM     15  F   UNL     1      -1.712  12.406  21.469  0.00  0.00    +0.000 F 
ENDBRANCH  12  13
ENDBRANCH   9  12
ENDBRANCH   5   6
BRANCH   1  16
ATOM     16  N   UNL     1       1.919   5.233  21.074  0.00  0.00    +0.000 N 
ATOM     17  H   UNL     1       2.052   5.979  21.757  0.00  0.00    +0.000 HD
ATOM     18  H   UNL     1       2.472   4.450  21.420  0.00  0.00    +0.000 HD
ENDBRANCH   1  16
BRANCH   2  19
ATOM     19  S   UNL     1       3.320   3.196  19.020  0.00  0.00    +0.000 S 
BRANCH  19  20
ATOM     20  C   UNL     1       4.931   3.299  19.856  0.00  0.00    +0.000 C 
BRANCH  20  21
ATOM     21  C   UNL     1       5.804   4.342  19.175  0.00  0.00    +0.000 C 
ATOM     22  O   UNL     1       6.105   5.403  19.713  0.00  0.00    +0.000 OA
ATOM     23  N   UNL     1       6.206   4.011  17.894  0.00  0.00    +0.000 N 
ATOM     24  H   UNL     1       6.185   3.037  17.616  0.00  0.00    +0.000 HD
BRANCH  23  25
ATOM     25  C   UNL     1       7.086   4.878  17.122  0.00  0.00    +0.000 C 
BRANCH  25  26
ATOM     26  C   UNL     1       6.527   5.185  15.728  0.00  0.00    +0.000 C 
ATOM     27  C   UNL     1       5.539   4.156  15.202  0.00  0.00    +0.000 C 
ATOM     28  C   UNL     1       5.708   4.289  13.709  0.00  0.00    +0.000 C 
ATOM     29  C   UNL     1       7.188   4.570  13.575  0.00  0.00    +0.000 C 
ATOM     30  O   UNL     1       7.602   5.252  14.767  0.00  0.00    +0.000 OA
ENDBRANCH  25  26
ENDBRANCH  23  25
ENDBRANCH  20  21
ENDBRANCH  19  20
ENDBRANCH   2  19
TORSDOF 9
ENDMDL
MODEL 9
REMARK VINA RESULT:      -6.7      4.839      9.532
REMARK  Name = 
REMARK  9 active torsions:
REMARK  status: ('A' for Active; 'I' for Inactive)
REMARK    1  A    between atoms: N_1  and  N_2
REMARK    2  A    between atoms: C_3  and  S_4
REMARK    3  A    between atoms: S_4  and  C_5
REMARK    4  A    between atoms: C_5  and  C_6
REMARK    5  A    between atoms: N_8  and  C_9
REMARK    6  A    between atoms: C_9  and  C_10
REMARK    7  A    between atoms: C_17  and  C_18
REMARK    8  A    between atoms: C_21  and  O_22
REMARK    9  A    between atoms: O_22  and  C_23
REMARK                            x       y       z     vdW  Elec       q    Type
REMARK                         _______ _______ _______ _____ _____    ______ ____
ROOT
ATOM      1  N   UNL     1       2.556   6.901  19.498  0.00  0.00    +0.000 N 
ATOM      2  C   UNL     1       1.823   8.019  19.820  0.00  0.00    +0.000 A 
ATOM      3  N   UNL     1       1.818   8.854  18.808  0.00  0.00    +0.000 NA
ATOM      4  N   UNL     1       2.542   8.274  17.789  0.00  0.00    +0.000 NA
ATOM      5  C   UNL     1       2.956   7.075  18.183  0.00  0.00    +0.000 A 
ENDROOT
BRANCH   5   6
ATOM      6  C   UNL     1       3.744   6.139  17.372  0.00  0.00    +0.000 A 
ATOM      7  C   UNL     1       4.690   6.636  16.461  0.00  0.00    +0.000 A 
ATOM      8  C   UNL     1       5.460   5.771  15.680  0.00  0.00    +0.000 A 
ATOM      9  C   UNL     1       5.312   4.386  15.796  0.00  0.00    +0.000 A 
ATOM     10  C   UNL     1       4.345   3.878  16.660  0.00  0.00    +0.000 A 
ATOM     11  C   UNL     1       3.569   4.750  17.438  0.00  0.00    +0.000 A 
BRANCH   9  12
ATOM     12  O   UNL     1       6.126   3.643  14.989  0.00  0.00    +0.000 OA
BRANCH  12  13
ATOM     13  C   UNL     1       6.102   3.983  13.612  0.00  0.00    +0.000 C 
ATOM     14  F   UNL     1       6.756   3.027  12.910  0.00  0.00    +0.000 F 
ATOM     15  F   UNL     1       4.807   3.946  13.210  0.00  0.00    +0.000 F 
ENDBRANCH  12  13
ENDBRANCH   9  12
ENDBRANCH   5   6
BRANCH   1  16
ATOM     16  N   UNL     1       2.898   5.805  20.379  0.00  0.00    +0.000 N 
ATOM     17  H   UNL     1       2.665   6.048  21.343  0.00  0.00    +0.000 HD
ATOM     18  H   UNL     1       3.903   5.637  20.379  0.00  0.00    +0.000 HD
ENDBRANCH   1  16
BRANCH   2  19
ATOM     19  S   UNL     1       1.094   8.273  21.372  0.00  0.00    +0.000 S 
BRANCH  19  20
ATOM     20  C   UNL     1       0.445   9.958  21.161  0.00  0.00    +0.000 C 
BRANCH  20  21
ATOM     21  C   UNL     1      -0.277  10.399  22.426  0.00  0.00    +0.000 C 
ATOM     22  O   UNL     1       0.051  10.007  23.542  0.00  0.00    +0.000 OA
ATOM     23  N   UNL     1      -1.345  11.250  22.214  0.00  0.00    +0.000 N 
ATOM     24  H   UNL     1      -1.390  11.763  21.341  0.00  0.00    +0.000 HD
BRANCH  23  25
ATOM     25  C   UNL     1      -2.111  11.804  23.322  0.00  0.00    +0.000 C 
BRANCH  25  26
ATOM     26  C   UNL     1      -3.418  12.457  22.859  0.00  0.00    +0.000 C 
ATOM     27  C   UNL     1      -3.336  13.149  21.507  0.00  0.00    +0.000 C 
ATOM     28  C   UNL     1      -4.400  14.211  21.631  0.00  0.00    +0.000 C 
ATOM     29  C   UNL     1      -4.292  14.611  23.085  0.00  0.00    +0.000 C 
ATOM     30  O   UNL     1      -3.836  13.460  23.810  0.00  0.00    +0.000 OA
ENDBRANCH  25  26
ENDBRANCH  23  25
ENDBRANCH  20  21
ENDBRANCH  19  20
ENDBRANCH   2  19
TORSDOF 9
ENDMDL
