MODEL 1
REMARK VINA RESULT:      -9.5      0.000      0.000
REMARK  Name = 
REMARK  3 active torsions:
REMARK  status: ('A' for Active; 'I' for Inactive)
REMARK    1  A    between atoms: C_2  and  C_3
REMARK    2  A    between atoms: C_3  and  O_4
REMARK    3  A    between atoms: O_4  and  C_5
REMARK                            x       y       z     vdW  Elec       q    Type
REMARK                         _______ _______ _______ _____ _____    ______ ____
ROOT
ATOM      1  C   UNL     1       1.002   9.459  21.472  0.00  0.00    +0.000 C 
ENDROOT
BRANCH   1   3
ATOM      2  O   UNL     1      -0.743   9.290  23.127  0.00  0.00    +0.000 OA
ATOM      3  C   UNL     1      -0.182  10.009  22.297  0.00  0.00    +0.000 C 
ATOM      4  N   UNL     1      -0.496  11.360  22.164  0.00  0.00    +0.000 N 
ATOM      5  C   UNL     1      -0.165  12.151  20.987  0.00  0.00    +0.000 C 
ATOM      6  C   UNL     1      -1.046  13.429  20.835  0.00  0.00    +0.000 C 
ATOM      7  C   UNL     1      -0.519  14.250  22.003  0.00  0.00    +0.000 C 
ATOM      8  C   UNL     1      -1.131  13.572  23.245  0.00  0.00    +0.000 C 
ATOM      9  C   UNL     1      -1.375  12.007  23.131  0.00  0.00    +0.000 C 
ATOM     10  C   UNL     1      -2.471  14.278  23.314  0.00  0.00    +0.000 C 
ATOM     11  N   UNL     1      -3.230  14.016  22.089  0.00  0.00    +0.000 N 
ATOM     12  C   UNL     1      -2.623  13.363  20.974  0.00  0.00    +0.000 A 
ATOM     13  C   UNL     1      -3.438  12.659  20.164  0.00  0.00    +0.000 A 
ATOM     14  C   UNL     1      -4.860  12.559  20.459  0.00  0.00    +0.000 A 
ATOM     15  C   UNL     1      -5.440  13.290  21.416  0.00  0.00    +0.000 A 
ATOM     16  C   UNL     1      -4.601  14.164  22.256  0.00  0.00    +0.000 A 
ATOM     17  O   UNL     1      -5.140  14.854  23.107  0.00  0.00    +0.000 OA
ENDBRANCH   1   3
BRANCH   1  18
ATOM     18  O   UNL     1       0.641   8.533  20.456  0.00  0.00    +0.000 OA
BRANCH  18  19
ATOM     19  C   UNL     1       1.670   7.942  19.767  0.00  0.00    +0.000 A 
ATOM     20  C   UNL     1       2.276   6.754  20.165  0.00  0.00    +0.000 A 
ATOM     21  C   UNL     1       3.244   6.166  19.344  0.00  0.00    +0.000 A 
ATOM     22  O   UNL     1       3.790   4.962  19.819  0.00  0.00    +0.000 OA
ATOM     23  C   UNL     1       4.720   4.258  19.079  0.00  0.00    +0.000 A 
ATOM     24  O   UNL     1       5.189   3.205  19.497  0.00  0.00    +0.000 OA
ATOM     25  C   UNL     1       5.113   4.815  17.760  0.00  0.00    +0.000 A 
ATOM     26  C   UNL     1       4.602   5.976  17.297  0.00  0.00    +0.000 A 
ATOM     27  C   UNL     1       3.639   6.715  18.131  0.00  0.00    +0.000 A 
ATOM     28  C   UNL     1       3.065   7.930  17.756  0.00  0.00    +0.000 A 
ATOM     29  C   UNL     1       2.079   8.529  18.559  0.00  0.00    +0.000 A 
ATOM     30 CL   UNL     1       1.408  10.023  17.997  0.00  0.00    +0.000 Cl
ATOM     31  C   UNL     1       4.941   6.510  15.930  0.00  0.00    +0.000 C 
ATOM     32  C   UNL     1       5.686   5.494  15.040  0.00  0.00    +0.000 C 
ATOM     33  C   UNL     1       6.743   4.727  15.825  0.00  0.00    +0.000 C 
ATOM     34  C   UNL     1       6.103   3.977  16.992  0.00  0.00    +0.000 C 
ENDBRANCH  18  19
ENDBRANCH   1  18
TORSDOF 3
ENDMDL
MODEL 2
REMARK VINA RESULT:      -9.3      1.788      2.126
REMARK  Name = 
REMARK  3 active torsions:
REMARK  status: ('A' for Active; 'I' for Inactive)
REMARK    1  A    between atoms: C_2  and  C_3
REMARK    2  A    between atoms: C_3  and  O_4
REMARK    3  A    between atoms: O_4  and  C_5
REMARK                            x       y       z     vdW  Elec       q    Type
REMARK                         _______ _______ _______ _____ _____    ______ ____
ROOT
ATOM      1  C   UNL     1       1.123  10.076  21.637  0.00  0.00    +0.000 C 
ENDROOT
BRANCH   1   3
ATOM      2  O   UNL     1      -0.789   9.352  22.916  0.00  0.00    +0.000 OA
ATOM      3  C   UNL     1      -0.249  10.284  22.315  0.00  0.00    +0.000 C 
ATOM      4  N   UNL     1      -0.777  11.573  22.332  0.00  0.00    +0.000 N 
ATOM      5  C   UNL     1      -0.424  12.601  21.363  0.00  0.00    +0.000 C 
ATOM      6  C   UNL     1      -1.487  13.736  21.252  0.00  0.00    +0.000 C 
ATOM      7  C   UNL     1      -1.294  14.408  22.604  0.00  0.00    +0.000 C 
ATOM      8  C   UNL     1      -1.951  13.436  23.604  0.00  0.00    +0.000 C 
ATOM      9  C   UNL     1      -1.892  11.897  23.216  0.00  0.00    +0.000 C 
ATOM     10  C   UNL     1      -3.392  13.906  23.542  0.00  0.00    +0.000 C 
ATOM     11  N   UNL     1      -3.902  13.753  22.178  0.00  0.00    +0.000 N 
ATOM     12  C   UNL     1      -3.030  13.408  21.102  0.00  0.00    +0.000 A 
ATOM     13  C   UNL     1      -3.577  12.743  20.065  0.00  0.00    +0.000 A 
ATOM     14  C   UNL     1      -4.986  12.377  20.088  0.00  0.00    +0.000 A 
ATOM     15  C   UNL     1      -5.822  12.829  21.027  0.00  0.00    +0.000 A 
ATOM     16  C   UNL     1      -5.286  13.658  22.123  0.00  0.00    +0.000 A 
ATOM     17  O   UNL     1      -6.060  14.096  22.959  0.00  0.00    +0.000 OA
ENDBRANCH   1   3
BRANCH   1  18
ATOM     18  O   UNL     1       1.060   9.671  20.276  0.00  0.00    +0.000 OA
BRANCH  18  19
ATOM     19  C   UNL     1       1.524   8.413  19.985  0.00  0.00    +0.000 A 
ATOM     20  C   UNL     1       1.492   7.356  20.890  0.00  0.00    +0.000 A 
ATOM     21  C   UNL     1       1.888   6.080  20.473  0.00  0.00    +0.000 A 
ATOM     22  O   UNL     1       1.808   5.073  21.449  0.00  0.00    +0.000 OA
ATOM     23  C   UNL     1       2.124   3.762  21.151  0.00  0.00    +0.000 A 
ATOM     24  O   UNL     1       2.048   2.887  22.006  0.00  0.00    +0.000 OA
ATOM     25  C   UNL     1       2.539   3.455  19.758  0.00  0.00    +0.000 A 
ATOM     26  C   UNL     1       2.628   4.416  18.815  0.00  0.00    +0.000 A 
ATOM     27  C   UNL     1       2.317   5.808  19.181  0.00  0.00    +0.000 A 
ATOM     28  C   UNL     1       2.393   6.878  18.288  0.00  0.00    +0.000 A 
ATOM     29  C   UNL     1       1.985   8.164  18.682  0.00  0.00    +0.000 A 
ATOM     30 CL   UNL     1       2.093   9.421  17.497  0.00  0.00    +0.000 Cl
ATOM     31  C   UNL     1       2.979   4.101  17.384  0.00  0.00    +0.000 C 
ATOM     32  C   UNL     1       2.957   2.593  17.062  0.00  0.00    +0.000 C 
ATOM     33  C   UNL     1       3.580   1.770  18.183  0.00  0.00    +0.000 C 
ATOM     34  C   UNL     1       2.833   2.001  19.496  0.00  0.00    +0.000 C 
ENDBRANCH  18  19
ENDBRANCH   1  18
TORSDOF 3
ENDMDL
MODEL 3
REMARK VINA RESULT:      -9.2      1.933      2.412
REMARK  Name = 
REMARK  3 active torsions:
REMARK  status: ('A' for Active; 'I' for Inactive)
REMARK    1  A    between atoms: C_2  and  C_3
REMARK    2  A    between atoms: C_3  and  O_4
REMARK    3  A    between atoms: O_4  and  C_5
REMARK                            x       y       z     vdW  Elec       q    Type
REMARK                         _______ _______ _______ _____ _____    ______ ____
ROOT
ATOM      1  C   UNL     1      -0.213   9.539  20.969  0.00  0.00    +0.000 C 
ENDROOT
BRANCH   1   3
ATOM      2  O   UNL     1      -0.083  10.395  23.220  0.00  0.00    +0.000 OA
ATOM      3  C   UNL     1      -0.436  10.611  22.057  0.00  0.00    +0.000 C 
ATOM      4  N   UNL     1      -0.919  11.855  21.657  0.00  0.00    +0.000 N 
ATOM      5  C   UNL     1      -1.691  12.065  20.440  0.00  0.00    +0.000 C 
ATOM      6  C   UNL     1      -2.546  13.369  20.469  0.00  0.00    +0.000 C 
ATOM      7  C   UNL     1      -1.437  14.410  20.398  0.00  0.00    +0.000 C 
ATOM      8  C   UNL     1      -0.814  14.391  21.808  0.00  0.00    +0.000 C 
ATOM      9  C   UNL     1      -0.851  12.996  22.564  0.00  0.00    +0.000 C 
ATOM     10  C   UNL     1      -1.726  15.367  22.526  0.00  0.00    +0.000 C 
ATOM     11  N   UNL     1      -3.101  14.865  22.504  0.00  0.00    +0.000 N 
ATOM     12  C   UNL     1      -3.456  13.730  21.714  0.00  0.00    +0.000 A 
ATOM     13  C   UNL     1      -4.499  12.992  22.144  0.00  0.00    +0.000 A 
ATOM     14  C   UNL     1      -5.187  13.341  23.379  0.00  0.00    +0.000 A 
ATOM     15  C   UNL     1      -4.944  14.483  24.030  0.00  0.00    +0.000 A 
ATOM     16  C   UNL     1      -3.885  15.379  23.529  0.00  0.00    +0.000 A 
ATOM     17  O   UNL     1      -3.689  16.436  24.107  0.00  0.00    +0.000 OA
ENDBRANCH   1   3
BRANCH   1  18
ATOM     18  O   UNL     1       1.112   9.470  20.462  0.00  0.00    +0.000 OA
BRANCH  18  19
ATOM     19  C   UNL     1       1.579   8.226  20.122  0.00  0.00    +0.000 A 
ATOM     20  C   UNL     1       1.576   7.141  20.995  0.00  0.00    +0.000 A 
ATOM     21  C   UNL     1       1.971   5.883  20.532  0.00  0.00    +0.000 A 
ATOM     22  O   UNL     1       1.923   4.846  21.478  0.00  0.00    +0.000 OA
ATOM     23  C   UNL     1       2.241   3.547  21.133  0.00  0.00    +0.000 A 
ATOM     24  O   UNL     1       2.191   2.647  21.963  0.00  0.00    +0.000 OA
ATOM     25  C   UNL     1       2.626   3.285  19.723  0.00  0.00    +0.000 A 
ATOM     26  C   UNL     1       2.686   4.275  18.807  0.00  0.00    +0.000 A 
ATOM     27  C   UNL     1       2.373   5.653  19.222  0.00  0.00    +0.000 A 
ATOM     28  C   UNL     1       2.420   6.750  18.361  0.00  0.00    +0.000 A 
ATOM     29  C   UNL     1       2.012   8.020  18.802  0.00  0.00    +0.000 A 
ATOM     30 CL   UNL     1       2.083   9.312  17.654  0.00  0.00    +0.000 Cl
ATOM     31  C   UNL     1       3.006   4.006  17.360  0.00  0.00    +0.000 C 
ATOM     32  C   UNL     1       2.987   2.508  16.993  0.00  0.00    +0.000 C 
ATOM     33  C   UNL     1       3.642   1.656  18.074  0.00  0.00    +0.000 C 
ATOM     34  C   UNL     1       2.925   1.842  19.410  0.00  0.00    +0.000 C 
ENDBRANCH  18  19
ENDBRANCH   1  18
TORSDOF 3
ENDMDL
MODEL 4
REMARK VINA RESULT:      -9.0      1.677      2.087
REMARK  Name = 
REMARK  3 active torsions:
REMARK  status: ('A' for Active; 'I' for Inactive)
REMARK    1  A    between atoms: C_2  and  C_3
REMARK    2  A    between atoms: C_3  and  O_4
REMARK    3  A    between atoms: O_4  and  C_5
REMARK                            x       y       z     vdW  Elec       q    Type
REMARK                         _______ _______ _______ _____ _____    ______ ____
ROOT
ATOM      1  C   UNL     1       0.492  10.876  21.571  0.00  0.00    +0.000 C 
ENDROOT
BRANCH   1   3
ATOM      2  O   UNL     1      -1.095   9.971  23.145  0.00  0.00    +0.000 OA
ATOM      3  C   UNL     1      -0.796  10.925  22.421  0.00  0.00    +0.000 C 
ATOM      4  N   UNL     1      -1.519  12.114  22.438  0.00  0.00    +0.000 N 
ATOM      5  C   UNL     1      -1.466  13.104  21.372  0.00  0.00    +0.000 C 
ATOM      6  C   UNL     1      -2.705  14.051  21.346  0.00  0.00    +0.000 C 
ATOM      7  C   UNL     1      -2.451  14.850  22.617  0.00  0.00    +0.000 C 
ATOM      8  C   UNL     1      -2.806  13.870  23.753  0.00  0.00    +0.000 C 
ATOM      9  C   UNL     1      -2.548  12.333  23.450  0.00  0.00    +0.000 C 
ATOM     10  C   UNL     1      -4.300  14.108  23.867  0.00  0.00    +0.000 C 
ATOM     11  N   UNL     1      -4.950  13.771  22.599  0.00  0.00    +0.000 N 
ATOM     12  C   UNL     1      -4.180  13.480  21.433  0.00  0.00    +0.000 A 
ATOM     13  C   UNL     1      -4.742  12.659  20.523  0.00  0.00    +0.000 A 
ATOM     14  C   UNL     1      -6.057  12.084  20.765  0.00  0.00    +0.000 A 
ATOM     15  C   UNL     1      -6.827  12.475  21.784  0.00  0.00    +0.000 A 
ATOM     16  C   UNL     1      -6.296  13.461  22.744  0.00  0.00    +0.000 A 
ATOM     17  O   UNL     1      -7.016  13.840  23.654  0.00  0.00    +0.000 OA
ENDBRANCH   1   3
BRANCH   1  18
ATOM     18  O   UNL     1       0.331  10.313  20.276  0.00  0.00    +0.000 OA
BRANCH  18  19
ATOM     19  C   UNL     1       1.054   9.180  20.001  0.00  0.00    +0.000 A 
ATOM     20  C   UNL     1       1.044   8.049  20.813  0.00  0.00    +0.000 A 
ATOM     21  C   UNL     1       1.726   6.899  20.401  0.00  0.00    +0.000 A 
ATOM     22  O   UNL     1       1.649   5.803  21.276  0.00  0.00    +0.000 OA
ATOM     23  C   UNL     1       2.239   4.595  20.962  0.00  0.00    +0.000 A 
ATOM     24  O   UNL     1       2.163   3.641  21.728  0.00  0.00    +0.000 OA
ATOM     25  C   UNL     1       2.947   4.493  19.661  0.00  0.00    +0.000 A 
ATOM     26  C   UNL     1       3.036   5.542  18.816  0.00  0.00    +0.000 A 
ATOM     27  C   UNL     1       2.424   6.825  19.203  0.00  0.00    +0.000 A 
ATOM     28  C   UNL     1       2.472   7.974  18.413  0.00  0.00    +0.000 A 
ATOM     29  C   UNL     1       1.780   9.134  18.801  0.00  0.00    +0.000 A 
ATOM     30 CL   UNL     1       1.879  10.500  17.742  0.00  0.00    +0.000 Cl
ATOM     31  C   UNL     1       3.690   5.427  17.465  0.00  0.00    +0.000 C 
ATOM     32  C   UNL     1       3.992   3.972  17.049  0.00  0.00    +0.000 C 
ATOM     33  C   UNL     1       4.536   3.155  18.215  0.00  0.00    +0.000 C 
ATOM     34  C   UNL     1       3.534   3.137  19.369  0.00  0.00    +0.000 C 
ENDBRANCH  18  19
ENDBRANCH   1  18
TORSDOF 3
ENDMDL
MODEL 5
REMARK VINA RESULT:      -9.0      3.369      4.578
REMARK  Name = 
REMARK  3 active torsions:
REMARK  status: ('A' for Active; 'I' for Inactive)
REMARK    1  A    between atoms: C_2  and  C_3
REMARK    2  A    between atoms: C_3  and  O_4
REMARK    3  A    between atoms: O_4  and  C_5
REMARK                            x       y       z     vdW  Elec       q    Type
REMARK                         _______ _______ _______ _____ _____    ______ ____
ROOT
ATOM      1  C   UNL     1      -0.232  10.212  19.936  0.00  0.00    +0.000 C 
ENDROOT
BRANCH   1   3
ATOM      2  O   UNL     1      -1.079  11.638  18.185  0.00  0.00    +0.000 OA
ATOM      3  C   UNL     1      -0.413  11.569  19.222  0.00  0.00    +0.000 C 
ATOM      4  N   UNL     1       0.085  12.707  19.852  0.00  0.00    +0.000 N 
ATOM      5  C   UNL     1       1.167  12.680  20.825  0.00  0.00    +0.000 C 
ATOM      6  C   UNL     1       1.888  14.054  20.985  0.00  0.00    +0.000 C 
ATOM      7  C   UNL     1       0.785  14.850  21.668  0.00  0.00    +0.000 C 
ATOM      8  C   UNL     1      -0.226  15.136  20.539  0.00  0.00    +0.000 C 
ATOM      9  C   UNL     1      -0.324  14.033  19.400  0.00  0.00    +0.000 C 
ATOM     10  C   UNL     1       0.367  16.402  19.951  0.00  0.00    +0.000 C 
ATOM     11  N   UNL     1       1.716  16.130  19.453  0.00  0.00    +0.000 N 
ATOM     12  C   UNL     1       2.362  14.886  19.723  0.00  0.00    +0.000 A 
ATOM     13  C   UNL     1       3.277  14.468  18.825  0.00  0.00    +0.000 A 
ATOM     14  C   UNL     1       3.544  15.253  17.629  0.00  0.00    +0.000 A 
ATOM     15  C   UNL     1       3.045  16.481  17.458  0.00  0.00    +0.000 A 
ATOM     16  C   UNL     1       2.126  17.027  18.474  0.00  0.00    +0.000 A 
ATOM     17  O   UNL     1       1.699  18.161  18.330  0.00  0.00    +0.000 OA
ENDBRANCH   1   3
BRANCH   1  18
ATOM     18  O   UNL     1       1.107   9.900  20.294  0.00  0.00    +0.000 OA
BRANCH  18  19
ATOM     19  C   UNL     1       1.545   8.634  20.000  0.00  0.00    +0.000 A 
ATOM     20  C   UNL     1       1.487   7.574  20.901  0.00  0.00    +0.000 A 
ATOM     21  C   UNL     1       1.857   6.292  20.481  0.00  0.00    +0.000 A 
ATOM     22  O   UNL     1       1.753   5.283  21.452  0.00  0.00    +0.000 OA
ATOM     23  C   UNL     1       2.042   3.967  21.150  0.00  0.00    +0.000 A 
ATOM     24  O   UNL     1       1.943   3.091  22.001  0.00  0.00    +0.000 OA
ATOM     25  C   UNL     1       2.455   3.656  19.758  0.00  0.00    +0.000 A 
ATOM     26  C   UNL     1       2.568   4.619  18.818  0.00  0.00    +0.000 A 
ATOM     27  C   UNL     1       2.285   6.016  19.189  0.00  0.00    +0.000 A 
ATOM     28  C   UNL     1       2.388   7.087  18.301  0.00  0.00    +0.000 A 
ATOM     29  C   UNL     1       2.006   8.380  18.698  0.00  0.00    +0.000 A 
ATOM     30 CL   UNL     1       2.145   9.639  17.518  0.00  0.00    +0.000 Cl
ATOM     31  C   UNL     1       2.919   4.302  17.388  0.00  0.00    +0.000 C 
ATOM     32  C   UNL     1       2.865   2.796  17.060  0.00  0.00    +0.000 C 
ATOM     33  C   UNL     1       3.466   1.955  18.180  0.00  0.00    +0.000 C 
ATOM     34  C   UNL     1       2.719   2.197  19.491  0.00  0.00    +0.000 C 
ENDBRANCH  18  19
ENDBRANCH   1  18
TORSDOF 3
ENDMDL
MODEL 6
REMARK VINA RESULT:      -8.8      2.593      3.644
REMARK  Name = 
REMARK  3 active torsions:
REMARK  status: ('A' for Active; 'I' for Inactive)
REMARK    1  A    between atoms: C_2  and  C_3
REMARK    2  A    between atoms: C_3  and  O_4
REMARK    3  A    between atoms: O_4  and  C_5
REMARK                            x       y       z     vdW  Elec       q    Type
REMARK                         _______ _______ _______ _____ _____    ______ ____
ROOT
ATOM      1  C   UNL     1      -0.316   9.740  20.622  0.00  0.00    +0.000 C 
ENDROOT
BRANCH   1   3
ATOM      2  O   UNL     1      -1.396  10.802  18.746  0.00  0.00    +0.000 OA
ATOM      3  C   UNL     1      -0.895  10.954  19.863  0.00  0.00    +0.000 C 
ATOM      4  N   UNL     1      -0.945  12.175  20.530  0.00  0.00    +0.000 N 
ATOM      5  C   UNL     1      -0.070  12.523  21.640  0.00  0.00    +0.000 C 
ATOM      6  C   UNL     1       0.059  14.061  21.867  0.00  0.00    +0.000 C 
ATOM      7  C   UNL     1      -1.342  14.367  22.380  0.00  0.00    +0.000 C 
ATOM      8  C   UNL     1      -2.228  14.290  21.120  0.00  0.00    +0.000 C 
ATOM      9  C   UNL     1      -1.756  13.267  20.002  0.00  0.00    +0.000 C 
ATOM     10  C   UNL     1      -2.079  15.704  20.591  0.00  0.00    +0.000 C 
ATOM     11  N   UNL     1      -0.673  15.970  20.284  0.00  0.00    +0.000 N 
ATOM     12  C   UNL     1       0.349  15.049  20.663  0.00  0.00    +0.000 A 
ATOM     13  C   UNL     1       1.464  15.030  19.905  0.00  0.00    +0.000 A 
ATOM     14  C   UNL     1       1.573  15.895  18.739  0.00  0.00    +0.000 A 
ATOM     15  C   UNL     1       0.679  16.853  18.478  0.00  0.00    +0.000 A 
ATOM     16  C   UNL     1      -0.502  16.985  19.351  0.00  0.00    +0.000 A 
ATOM     17  O   UNL     1      -1.299  17.883  19.128  0.00  0.00    +0.000 OA
ENDBRANCH   1   3
BRANCH   1  18
ATOM     18  O   UNL     1       1.092   9.584  20.512  0.00  0.00    +0.000 OA
BRANCH  18  19
ATOM     19  C   UNL     1       1.548   8.340  20.157  0.00  0.00    +0.000 A 
ATOM     20  C   UNL     1       1.584   7.258  21.033  0.00  0.00    +0.000 A 
ATOM     21  C   UNL     1       1.964   5.999  20.557  0.00  0.00    +0.000 A 
ATOM     22  O   UNL     1       1.957   4.965  21.507  0.00  0.00    +0.000 OA
ATOM     23  C   UNL     1       2.265   3.666  21.153  0.00  0.00    +0.000 A 
ATOM     24  O   UNL     1       2.252   2.767  21.986  0.00  0.00    +0.000 OA
ATOM     25  C   UNL     1       2.594   3.401  19.729  0.00  0.00    +0.000 A 
ATOM     26  C   UNL     1       2.613   4.389  18.809  0.00  0.00    +0.000 A 
ATOM     27  C   UNL     1       2.313   5.766  19.232  0.00  0.00    +0.000 A 
ATOM     28  C   UNL     1       2.322   6.861  18.367  0.00  0.00    +0.000 A 
ATOM     29  C   UNL     1       1.928   8.131  18.822  0.00  0.00    +0.000 A 
ATOM     30 CL   UNL     1       1.949   9.421  17.668  0.00  0.00    +0.000 Cl
ATOM     31  C   UNL     1       2.876   4.117  17.351  0.00  0.00    +0.000 C 
ATOM     32  C   UNL     1       2.847   2.617  16.989  0.00  0.00    +0.000 C 
ATOM     33  C   UNL     1       3.548   1.771  18.045  0.00  0.00    +0.000 C 
ATOM     34  C   UNL     1       2.884   1.958  19.408  0.00  0.00    +0.000 C 
ENDBRANCH  18  19
ENDBRANCH   1  18
TORSDOF 3
ENDMDL
MODEL 7
REMARK VINA RESULT:      -8.7      2.102      3.228
REMARK  Name = 
REMARK  3 active torsions:
REMARK  status: ('A' for Active; 'I' for Inactive)
REMARK    1  A    between atoms: C_2  and  C_3
REMARK    2  A    between atoms: C_3  and  O_4
REMARK    3  A    between atoms: O_4  and  C_5
REMARK                            x       y       z     vdW  Elec       q    Type
REMARK                         _______ _______ _______ _____ _____    ______ ____
ROOT
ATOM      1  C   UNL     1      -0.310   9.904  20.482  0.00  0.00    +0.000 C 
ENDROOT
BRANCH   1   3
ATOM      2  O   UNL     1      -0.511  11.763  18.959  0.00  0.00    +0.000 OA
ATOM      3  C   UNL     1      -0.798  11.310  20.070  0.00  0.00    +0.000 C 
ATOM      4  N   UNL     1      -1.664  11.977  20.933  0.00  0.00    +0.000 N 
ATOM      5  C   UNL     1      -1.742  11.710  22.362  0.00  0.00    +0.000 C 
ATOM      6  C   UNL     1      -2.357  12.888  23.178  0.00  0.00    +0.000 C 
ATOM      7  C   UNL     1      -3.800  12.811  22.701  0.00  0.00    +0.000 C 
ATOM      8  C   UNL     1      -3.753  13.387  21.271  0.00  0.00    +0.000 C 
ATOM      9  C   UNL     1      -2.404  13.147  20.470  0.00  0.00    +0.000 C 
ATOM     10  C   UNL     1      -3.898  14.868  21.565  0.00  0.00    +0.000 C 
ATOM     11  N   UNL     1      -2.780  15.316  22.397  0.00  0.00    +0.000 N 
ATOM     12  C   UNL     1      -1.867  14.379  22.969  0.00  0.00    +0.000 A 
ATOM     13  C   UNL     1      -0.614  14.818  23.208  0.00  0.00    +0.000 A 
ATOM     14  C   UNL     1      -0.233  16.178  22.855  0.00  0.00    +0.000 A 
ATOM     15  C   UNL     1      -1.129  17.088  22.459  0.00  0.00    +0.000 A 
ATOM     16  C   UNL     1      -2.536  16.680  22.293  0.00  0.00    +0.000 A 
ATOM     17  O   UNL     1      -3.356  17.522  21.963  0.00  0.00    +0.000 OA
ENDBRANCH   1   3
BRANCH   1  18
ATOM     18  O   UNL     1       1.099   9.726  20.443  0.00  0.00    +0.000 OA
BRANCH  18  19
ATOM     19  C   UNL     1       1.554   8.476  20.108  0.00  0.00    +0.000 A 
ATOM     20  C   UNL     1       1.559   7.400  20.990  0.00  0.00    +0.000 A 
ATOM     21  C   UNL     1       1.940   6.135  20.532  0.00  0.00    +0.000 A 
ATOM     22  O   UNL     1       1.900   5.107  21.488  0.00  0.00    +0.000 OA
ATOM     23  C   UNL     1       2.206   3.803  21.150  0.00  0.00    +0.000 A 
ATOM     24  O   UNL     1       2.164   2.910  21.989  0.00  0.00    +0.000 OA
ATOM     25  C   UNL     1       2.568   3.527  19.737  0.00  0.00    +0.000 A 
ATOM     26  C   UNL     1       2.619   4.508  18.811  0.00  0.00    +0.000 A 
ATOM     27  C   UNL     1       2.320   5.891  19.218  0.00  0.00    +0.000 A 
ATOM     28  C   UNL     1       2.360   6.980  18.347  0.00  0.00    +0.000 A 
ATOM     29  C   UNL     1       1.966   8.256  18.783  0.00  0.00    +0.000 A 
ATOM     30 CL   UNL     1       2.026   9.538  17.622  0.00  0.00    +0.000 Cl
ATOM     31  C   UNL     1       2.916   4.224  17.362  0.00  0.00    +0.000 C 
ATOM     32  C   UNL     1       2.884   2.723  17.009  0.00  0.00    +0.000 C 
ATOM     33  C   UNL     1       3.551   1.878  18.087  0.00  0.00    +0.000 C 
ATOM     34  C   UNL     1       2.855   2.079  19.432  0.00  0.00    +0.000 C 
ENDBRANCH  18  19
ENDBRANCH   1  18
TORSDOF 3
ENDMDL
MODEL 8
REMARK VINA RESULT:      -8.7      0.965      1.195
REMARK  Name = 
REMARK  3 active torsions:
REMARK  status: ('A' for Active; 'I' for Inactive)
REMARK    1  A    between atoms: C_2  and  C_3
REMARK    2  A    between atoms: C_3  and  O_4
REMARK    3  A    between atoms: O_4  and  C_5
REMARK                            x       y       z     vdW  Elec       q    Type
REMARK                         _______ _______ _______ _____ _____    ______ ____
ROOT
ATOM      1  C   UNL     1       0.010   8.991  21.441  0.00  0.00    +0.000 C 
ENDROOT
BRANCH   1   3
ATOM      2  O   UNL     1      -0.045  10.067  23.598  0.00  0.00    +0.000 OA
ATOM      3  C   UNL     1      -0.280  10.173  22.392  0.00  0.00    +0.000 C 
ATOM      4  N   UNL     1      -0.682  11.380  21.825  0.00  0.00    +0.000 N 
ATOM      5  C   UNL     1      -1.329  11.483  20.525  0.00  0.00    +0.000 C 
ATOM      6  C   UNL     1      -2.140  12.802  20.342  0.00  0.00    +0.000 C 
ATOM      7  C   UNL     1      -0.997  13.805  20.276  0.00  0.00    +0.000 C 
ATOM      8  C   UNL     1      -0.510  13.915  21.735  0.00  0.00    +0.000 C 
ATOM      9  C   UNL     1      -0.663  12.605  22.618  0.00  0.00    +0.000 C 
ATOM     10  C   UNL     1      -1.454  14.980  22.262  0.00  0.00    +0.000 C 
ATOM     11  N   UNL     1      -2.836  14.509  22.156  0.00  0.00    +0.000 N 
ATOM     12  C   UNL     1      -3.151  13.308  21.451  0.00  0.00    +0.000 A 
ATOM     13  C   UNL     1      -4.254  12.641  21.848  0.00  0.00    +0.000 A 
ATOM     14  C   UNL     1      -5.043  13.129  22.969  0.00  0.00    +0.000 A 
ATOM     15  C   UNL     1      -4.826  14.325  23.525  0.00  0.00    +0.000 A 
ATOM     16  C   UNL     1      -3.696  15.142  23.043  0.00  0.00    +0.000 A 
ATOM     17  O   UNL     1      -3.522  16.247  23.531  0.00  0.00    +0.000 OA
ENDBRANCH   1   3
BRANCH   1  18
ATOM     18  O   UNL     1       0.454   9.364  20.144  0.00  0.00    +0.000 OA
BRANCH  18  19
ATOM     19  C   UNL     1       1.442   8.593  19.585  0.00  0.00    +0.000 A 
ATOM     20  C   UNL     1       1.800   7.338  20.068  0.00  0.00    +0.000 A 
ATOM     21  C   UNL     1       2.744   6.576  19.371  0.00  0.00    +0.000 A 
ATOM     22  O   UNL     1       3.032   5.317  19.923  0.00  0.00    +0.000 OA
ATOM     23  C   UNL     1       3.911   4.449  19.305  0.00  0.00    +0.000 A 
ATOM     24  O   UNL     1       4.154   3.350  19.790  0.00  0.00    +0.000 OA
ATOM     25  C   UNL     1       4.530   4.891  18.030  0.00  0.00    +0.000 A 
ATOM     26  C   UNL     1       4.268   6.102  17.494  0.00  0.00    +0.000 A 
ATOM     27  C   UNL     1       3.353   7.013  18.202  0.00  0.00    +0.000 A 
ATOM     28  C   UNL     1       3.028   8.291  17.745  0.00  0.00    +0.000 A 
ATOM     29  C   UNL     1       2.070   9.066  18.421  0.00  0.00    +0.000 A 
ATOM     30 CL   UNL     1       1.716  10.628  17.764  0.00  0.00    +0.000 Cl
ATOM     31  C   UNL     1       4.836   6.528  16.166  0.00  0.00    +0.000 C 
ATOM     32  C   UNL     1       5.500   5.377  15.382  0.00  0.00    +0.000 C 
ATOM     33  C   UNL     1       6.325   4.478  16.294  0.00  0.00    +0.000 C 
ATOM     34  C   UNL     1       5.449   3.880  17.393  0.00  0.00    +0.000 C 
ENDBRANCH  18  19
ENDBRANCH   1  18
TORSDOF 3
ENDMDL
MODEL 9
REMARK VINA RESULT:      -8.5      2.991     10.876
REMARK  Name = 
REMARK  3 active torsions:
REMARK  status: ('A' for Active; 'I' for Inactive)
REMARK    1  A    between atoms: C_2  and  C_3
REMARK    2  A    between atoms: C_3  and  O_4
REMARK    3  A    between atoms: O_4  and  C_5
REMARK                            x       y       z     vdW  Elec       q    Type
REMARK                         _______ _______ _______ _____ _____    ______ ____
ROOT
ATOM      1  C   UNL     1       0.919   8.177  17.902  0.00  0.00    +0.000 C 
ENDROOT
BRANCH   1   3
ATOM      2  O   UNL     1       3.141   9.115  17.888  0.00  0.00    +0.000 OA
ATOM      3  C   UNL     1       2.460   8.088  17.952  0.00  0.00    +0.000 C 
ATOM      4  N   UNL     1       3.032   6.843  18.202  0.00  0.00    +0.000 N 
ATOM      5  C   UNL     1       2.367   5.580  17.917  0.00  0.00    +0.000 C 
ATOM      6  C   UNL     1       3.355   4.380  17.776  0.00  0.00    +0.000 C 
ATOM      7  C   UNL     1       3.813   4.248  19.221  0.00  0.00    +0.000 C 
ATOM      8  C   UNL     1       4.768   5.442  19.422  0.00  0.00    +0.000 C 
ATOM      9  C   UNL     1       4.439   6.744  18.576  0.00  0.00    +0.000 C 
ATOM     10  C   UNL     1       6.069   4.842  18.923  0.00  0.00    +0.000 C 
ATOM     11  N   UNL     1       5.926   4.457  17.518  0.00  0.00    +0.000 N 
ATOM     12  C   UNL     1       4.653   4.484  16.874  0.00  0.00    +0.000 A 
ATOM     13  C   UNL     1       4.649   4.686  15.541  0.00  0.00    +0.000 A 
ATOM     14  C   UNL     1       5.900   4.899  14.827  0.00  0.00    +0.000 A 
ATOM     15  C   UNL     1       7.090   4.727  15.410  0.00  0.00    +0.000 A 
ATOM     16  C   UNL     1       7.140   4.392  16.846  0.00  0.00    +0.000 A 
ATOM     17  O   UNL     1       8.228   4.203  17.366  0.00  0.00    +0.000 OA
ENDBRANCH   1   3
BRANCH   1  18
ATOM     18  O   UNL     1       0.409   9.411  17.416  0.00  0.00    +0.000 OA
BRANCH  18  19
ATOM     19  C   UNL     1      -0.371  10.138  18.280  0.00  0.00    +0.000 A 
ATOM     20  C   UNL     1       0.095  10.646  19.490  0.00  0.00    +0.000 A 
ATOM     21  C   UNL     1      -0.737  11.468  20.257  0.00  0.00    +0.000 A 
ATOM     22  O   UNL     1      -0.178  11.946  21.454  0.00  0.00    +0.000 OA
ATOM     23  C   UNL     1      -0.880  12.805  22.278  0.00  0.00    +0.000 A 
ATOM     24  O   UNL     1      -0.384  13.222  23.318  0.00  0.00    +0.000 OA
ATOM     25  C   UNL     1      -2.240  13.213  21.845  0.00  0.00    +0.000 A 
ATOM     26  C   UNL     1      -2.791  12.753  20.702  0.00  0.00    +0.000 A 
ATOM     27  C   UNL     1      -2.026  11.811  19.869  0.00  0.00    +0.000 A 
ATOM     28  C   UNL     1      -2.507  11.263  18.679  0.00  0.00    +0.000 A 
ATOM     29  C   UNL     1      -1.682  10.448  17.885  0.00  0.00    +0.000 A 
ATOM     30 CL   UNL     1      -2.361   9.836  16.415  0.00  0.00    +0.000 Cl
ATOM     31  C   UNL     1      -4.141  13.218  20.222  0.00  0.00    +0.000 C 
ATOM     32  C   UNL     1      -4.686  14.433  21.000  0.00  0.00    +0.000 C 
ATOM     33  C   UNL     1      -4.429  14.305  22.496  0.00  0.00    +0.000 C 
ATOM     34  C   UNL     1      -2.931  14.179  22.773  0.00  0.00    +0.000 C 
ENDBRANCH  18  19
ENDBRANCH   1  18
TORSDOF 3
ENDMDL
