MODEL 1
REMARK VINA RESULT:      -9.0      0.000      0.000
REMARK  Name = 
REMARK  2 active torsions:
REMARK  status: ('A' for Active; 'I' for Inactive)
REMARK    1  A    between atoms: N_3  and  C_4
REMARK    2  A    between atoms: C_7  and  C_8
REMARK                            x       y       z     vdW  Elec       q    Type
REMARK                         _______ _______ _______ _____ _____    ______ ____
ROOT
ATOM      1  O   UNL     1       8.985   8.398  19.192  0.00  0.00    +0.000 OA
ATOM      2  C   UNL     1       8.194   8.469  18.257  0.00  0.00    +0.000 C 
ATOM      3  N   UNL     1       7.931   9.615  17.546  0.00  0.00    +0.000 N 
ATOM      4  N   UNL     1       7.473   7.342  17.858  0.00  0.00    +0.000 N 
ATOM      5  C   UNL     1       6.345   7.289  16.932  0.00  0.00    +0.000 C 
ATOM      6  C   UNL     1       6.036   5.858  16.464  0.00  0.00    +0.000 C 
ATOM      7  C   UNL     1       5.698   4.775  17.606  0.00  0.00    +0.000 C 
ATOM      8  C   UNL     1       5.369   4.500  19.159  0.00  0.00    +0.000 C 
ATOM      9  C   UNL     1       4.917   3.036  19.079  0.00  0.00    +0.000 C 
ATOM     10  C   UNL     1       3.678   3.056  18.225  0.00  0.00    +0.000 A 
ATOM     11  C   UNL     1       2.747   2.031  18.388  0.00  0.00    +0.000 A 
ATOM     12  C   UNL     1       1.408   2.384  18.440  0.00  0.00    +0.000 A 
ATOM     13  C   UNL     1       1.046   3.726  18.284  0.00  0.00    +0.000 A 
ATOM     14  C   UNL     1       1.988   4.685  17.874  0.00  0.00    +0.000 A 
ATOM     15  C   UNL     1       3.319   4.320  17.741  0.00  0.00    +0.000 A 
ATOM     16  O   UNL     1       4.297   5.309  17.557  0.00  0.00    +0.000 OA
ATOM     17  C   UNL     1       7.225   4.921  18.099  0.00  0.00    +0.000 C 
ATOM     18  C   UNL     1       7.560   6.235  18.778  0.00  0.00    +0.000 C 
ATOM     19  H   UNL     1       7.039   9.677  17.108  0.00  0.00    +0.000 HD
ENDROOT
BRANCH   3  20
ATOM     20  C   UNL     1       8.636  10.825  17.741  0.00  0.00    +0.000 A 
ATOM     21  C   UNL     1       8.037  12.083  17.591  0.00  0.00    +0.000 A 
ATOM     22  C   UNL     1       8.766  13.261  17.685  0.00  0.00    +0.000 A 
ATOM     23  C   UNL     1      10.136  13.215  17.967  0.00  0.00    +0.000 A 
ATOM     24  C   UNL     1      10.738  11.969  18.181  0.00  0.00    +0.000 A 
ATOM     25  C   UNL     1      10.004  10.783  18.080  0.00  0.00    +0.000 A 
BRANCH  23  26
ATOM     26  C   UNL     1      10.940  14.491  18.033  0.00  0.00    +0.000 C 
ATOM     27  F   UNL     1      10.348  15.477  18.767  0.00  0.00    +0.000 F 
ATOM     28  F   UNL     1      12.169  14.304  18.587  0.00  0.00    +0.000 F 
ATOM     29  F   UNL     1      11.162  15.031  16.802  0.00  0.00    +0.000 F 
ENDBRANCH  23  26
ENDBRANCH   3  20
TORSDOF 2
ENDMDL
MODEL 2
REMARK VINA RESULT:      -8.8      0.344      1.224
REMARK  Name = 
REMARK  2 active torsions:
REMARK  status: ('A' for Active; 'I' for Inactive)
REMARK    1  A    between atoms: N_3  and  C_4
REMARK    2  A    between atoms: C_7  and  C_8
REMARK                            x       y       z     vdW  Elec       q    Type
REMARK                         _______ _______ _______ _____ _____    ______ ____
ROOT
ATOM      1  O   UNL     1       9.044   8.332  19.174  0.00  0.00    +0.000 OA
ATOM      2  C   UNL     1       8.238   8.431  18.255  0.00  0.00    +0.000 C 
ATOM      3  N   UNL     1       7.975   9.593  17.573  0.00  0.00    +0.000 N 
ATOM      4  N   UNL     1       7.498   7.319  17.846  0.00  0.00    +0.000 N 
ATOM      5  C   UNL     1       6.354   7.297  16.939  0.00  0.00    +0.000 C 
ATOM      6  C   UNL     1       6.021   5.879  16.447  0.00  0.00    +0.000 C 
ATOM      7  C   UNL     1       5.691   4.776  17.572  0.00  0.00    +0.000 C 
ATOM      8  C   UNL     1       5.387   4.473  19.124  0.00  0.00    +0.000 C 
ATOM      9  C   UNL     1       4.918   3.015  19.022  0.00  0.00    +0.000 C 
ATOM     10  C   UNL     1       3.664   3.066  18.190  0.00  0.00    +0.000 A 
ATOM     11  C   UNL     1       2.726   2.047  18.348  0.00  0.00    +0.000 A 
ATOM     12  C   UNL     1       1.391   2.413  18.431  0.00  0.00    +0.000 A 
ATOM     13  C   UNL     1       1.040   3.762  18.309  0.00  0.00    +0.000 A 
ATOM     14  C   UNL     1       1.986   4.719  17.902  0.00  0.00    +0.000 A 
ATOM     15  C   UNL     1       3.311   4.344  17.739  0.00  0.00    +0.000 A 
ATOM     16  O   UNL     1       4.296   5.326  17.558  0.00  0.00    +0.000 OA
ATOM     17  C   UNL     1       7.228   4.896  18.041  0.00  0.00    +0.000 C 
ATOM     18  C   UNL     1       7.589   6.193  18.741  0.00  0.00    +0.000 C 
ATOM     19  H   UNL     1       7.076   9.674  17.152  0.00  0.00    +0.000 HD
ENDROOT
BRANCH   3  20
ATOM     20  C   UNL     1       8.696  10.791  17.780  0.00  0.00    +0.000 A 
ATOM     21  C   UNL     1      10.019  10.809  18.242  0.00  0.00    +0.000 A 
ATOM     22  C   UNL     1      10.679  11.995  18.538  0.00  0.00    +0.000 A 
ATOM     23  C   UNL     1      10.034  13.221  18.348  0.00  0.00    +0.000 A 
ATOM     24  C   UNL     1       8.733  13.224  17.827  0.00  0.00    +0.000 A 
ATOM     25  C   UNL     1       8.068  12.029  17.536  0.00  0.00    +0.000 A 
BRANCH  23  26
ATOM     26  C   UNL     1      10.734  14.510  18.703  0.00  0.00    +0.000 C 
ATOM     27  F   UNL     1      11.317  15.132  17.638  0.00  0.00    +0.000 F 
ATOM     28  F   UNL     1       9.890  15.427  19.251  0.00  0.00    +0.000 F 
ATOM     29  F   UNL     1      11.731  14.327  19.614  0.00  0.00    +0.000 F 
ENDBRANCH  23  26
ENDBRANCH   3  20
TORSDOF 2
ENDMDL
MODEL 3
REMARK VINA RESULT:      -8.5      8.655     10.684
REMARK  Name = 
REMARK  2 active torsions:
REMARK  status: ('A' for Active; 'I' for Inactive)
REMARK    1  A    between atoms: N_3  and  C_4
REMARK    2  A    between atoms: C_7  and  C_8
REMARK                            x       y       z     vdW  Elec       q    Type
REMARK                         _______ _______ _______ _____ _____    ______ ____
ROOT
ATOM      1  O   UNL     1       0.777   9.243  17.402  0.00  0.00    +0.000 OA
ATOM      2  C   UNL     1       1.109   9.344  18.579  0.00  0.00    +0.000 C 
ATOM      3  N   UNL     1       1.914   8.449  19.239  0.00  0.00    +0.000 N 
ATOM      4  N   UNL     1       0.649  10.415  19.350  0.00  0.00    +0.000 N 
ATOM      5  C   UNL     1       0.753  10.577  20.797  0.00  0.00    +0.000 C 
ATOM      6  C   UNL     1       0.461  12.017  21.249  0.00  0.00    +0.000 C 
ATOM      7  C   UNL     1      -0.975  12.627  20.855  0.00  0.00    +0.000 C 
ATOM      8  C   UNL     1      -2.448  12.353  20.265  0.00  0.00    +0.000 C 
ATOM      9  C   UNL     1      -3.128  13.682  20.621  0.00  0.00    +0.000 C 
ATOM     10  C   UNL     1      -3.114  13.737  22.125  0.00  0.00    +0.000 A 
ATOM     11  C   UNL     1      -4.085  14.505  22.766  0.00  0.00    +0.000 A 
ATOM     12  C   UNL     1      -4.713  13.952  23.871  0.00  0.00    +0.000 A 
ATOM     13  C   UNL     1      -4.323  12.685  24.319  0.00  0.00    +0.000 A 
ATOM     14  C   UNL     1      -3.177  12.057  23.800  0.00  0.00    +0.000 A 
ATOM     15  C   UNL     1      -2.495  12.646  22.746  0.00  0.00    +0.000 A 
ATOM     16  O   UNL     1      -1.495  11.926  22.075  0.00  0.00    +0.000 OA
ATOM     17  C   UNL     1      -0.500  12.573  19.317  0.00  0.00    +0.000 C 
ATOM     18  C   UNL     1      -0.398  11.181  18.723  0.00  0.00    +0.000 C 
ATOM     19  H   UNL     1       1.803   8.389  20.228  0.00  0.00    +0.000 HD
ENDROOT
BRANCH   3  20
ATOM     20  C   UNL     1       2.551   7.362  18.598  0.00  0.00    +0.000 A 
ATOM     21  C   UNL     1       2.199   6.027  18.841  0.00  0.00    +0.000 A 
ATOM     22  C   UNL     1       2.901   4.968  18.281  0.00  0.00    +0.000 A 
ATOM     23  C   UNL     1       3.978   5.218  17.423  0.00  0.00    +0.000 A 
ATOM     24  C   UNL     1       4.304   6.546  17.121  0.00  0.00    +0.000 A 
ATOM     25  C   UNL     1       3.599   7.612  17.689  0.00  0.00    +0.000 A 
BRANCH  23  26
ATOM     26  C   UNL     1       4.767   4.069  16.843  0.00  0.00    +0.000 C 
ATOM     27  F   UNL     1       4.274   2.841  17.173  0.00  0.00    +0.000 F 
ATOM     28  F   UNL     1       4.806   4.100  15.483  0.00  0.00    +0.000 F 
ATOM     29  F   UNL     1       6.066   4.069  17.255  0.00  0.00    +0.000 F 
ENDBRANCH  23  26
ENDBRANCH   3  20
TORSDOF 2
ENDMDL
MODEL 4
REMARK VINA RESULT:      -8.3      7.406      9.531
REMARK  Name = 
REMARK  2 active torsions:
REMARK  status: ('A' for Active; 'I' for Inactive)
REMARK    1  A    between atoms: N_3  and  C_4
REMARK    2  A    between atoms: C_7  and  C_8
REMARK                            x       y       z     vdW  Elec       q    Type
REMARK                         _______ _______ _______ _____ _____    ______ ____
ROOT
ATOM      1  O   UNL     1       2.567   6.557  20.112  0.00  0.00    +0.000 OA
ATOM      2  C   UNL     1       2.309   7.503  19.375  0.00  0.00    +0.000 C 
ATOM      3  N   UNL     1       2.965   7.774  18.199  0.00  0.00    +0.000 N 
ATOM      4  N   UNL     1       1.300   8.407  19.717  0.00  0.00    +0.000 N 
ATOM      5  C   UNL     1       1.008   9.693  19.090  0.00  0.00    +0.000 C 
ATOM      6  C   UNL     1      -0.371  10.242  19.490  0.00  0.00    +0.000 C 
ATOM      7  C   UNL     1      -0.639  10.465  21.061  0.00  0.00    +0.000 C 
ATOM      8  C   UNL     1      -0.021  10.511  22.548  0.00  0.00    +0.000 C 
ATOM      9  C   UNL     1      -1.205  11.127  23.307  0.00  0.00    +0.000 C 
ATOM     10  C   UNL     1      -1.377  12.499  22.714  0.00  0.00    +0.000 A 
ATOM     11  C   UNL     1      -1.975  13.486  23.497  0.00  0.00    +0.000 A 
ATOM     12  C   UNL     1      -1.391  14.743  23.500  0.00  0.00    +0.000 A 
ATOM     13  C   UNL     1      -0.270  14.981  22.697  0.00  0.00    +0.000 A 
ATOM     14  C   UNL     1       0.145  14.038  21.740  0.00  0.00    +0.000 A 
ATOM     15  C   UNL     1      -0.489  12.807  21.676  0.00  0.00    +0.000 A 
ATOM     16  O   UNL     1       0.059  11.782  20.890  0.00  0.00    +0.000 OA
ATOM     17  C   UNL     1      -0.565   8.865  21.231  0.00  0.00    +0.000 C 
ATOM     18  C   UNL     1       0.817   8.262  21.067  0.00  0.00    +0.000 C 
ATOM     19  H   UNL     1       2.970   8.723  17.896  0.00  0.00    +0.000 HD
ENDROOT
BRANCH   3  20
ATOM     20  C   UNL     1       3.942   6.917  17.644  0.00  0.00    +0.000 A 
ATOM     21  C   UNL     1       5.233   7.354  17.312  0.00  0.00    +0.000 A 
ATOM     22  C   UNL     1       6.148   6.528  16.674  0.00  0.00    +0.000 A 
ATOM     23  C   UNL     1       5.804   5.206  16.370  0.00  0.00    +0.000 A 
ATOM     24  C   UNL     1       4.541   4.735  16.750  0.00  0.00    +0.000 A 
ATOM     25  C   UNL     1       3.618   5.570  17.387  0.00  0.00    +0.000 A 
BRANCH  23  26
ATOM     26  C   UNL     1       6.783   4.317  15.642  0.00  0.00    +0.000 C 
ATOM     27  F   UNL     1       7.336   4.895  14.538  0.00  0.00    +0.000 F 
ATOM     28  F   UNL     1       7.829   3.942  16.428  0.00  0.00    +0.000 F 
ATOM     29  F   UNL     1       6.210   3.160  15.205  0.00  0.00    +0.000 F 
ENDBRANCH  23  26
ENDBRANCH   3  20
TORSDOF 2
ENDMDL
MODEL 5
REMARK VINA RESULT:      -8.3      7.224      8.865
REMARK  Name = 
REMARK  2 active torsions:
REMARK  status: ('A' for Active; 'I' for Inactive)
REMARK    1  A    between atoms: N_3  and  C_4
REMARK    2  A    between atoms: C_7  and  C_8
REMARK                            x       y       z     vdW  Elec       q    Type
REMARK                         _______ _______ _______ _____ _____    ______ ____
ROOT
ATOM      1  O   UNL     1       0.526  10.666  19.017  0.00  0.00    +0.000 OA
ATOM      2  C   UNL     1       0.836   9.808  19.838  0.00  0.00    +0.000 C 
ATOM      3  N   UNL     1       0.633   9.918  21.192  0.00  0.00    +0.000 N 
ATOM      4  N   UNL     1       1.454   8.627  19.421  0.00  0.00    +0.000 N 
ATOM      5  C   UNL     1       2.086   7.610  20.258  0.00  0.00    +0.000 C 
ATOM      6  C   UNL     1       2.342   6.299  19.498  0.00  0.00    +0.000 C 
ATOM      7  C   UNL     1       3.258   6.390  18.178  0.00  0.00    +0.000 C 
ATOM      8  C   UNL     1       4.239   7.286  17.268  0.00  0.00    +0.000 C 
ATOM      9  C   UNL     1       4.791   6.205  16.329  0.00  0.00    +0.000 C 
ATOM     10  C   UNL     1       5.543   5.257  17.225  0.00  0.00    +0.000 A 
ATOM     11  C   UNL     1       6.574   4.501  16.668  0.00  0.00    +0.000 A 
ATOM     12  C   UNL     1       7.757   4.404  17.384  0.00  0.00    +0.000 A 
ATOM     13  C   UNL     1       7.853   5.022  18.636  0.00  0.00    +0.000 A 
ATOM     14  C   UNL     1       6.716   5.557  19.266  0.00  0.00    +0.000 A 
ATOM     15  C   UNL     1       5.509   5.583  18.586  0.00  0.00    +0.000 A 
ATOM     16  O   UNL     1       4.431   6.314  19.109  0.00  0.00    +0.000 OA
ATOM     17  C   UNL     1       2.074   7.247  17.500  0.00  0.00    +0.000 C 
ATOM     18  C   UNL     1       1.897   8.650  18.050  0.00  0.00    +0.000 C 
ATOM     19  H   UNL     1       1.244   9.396  21.781  0.00  0.00    +0.000 HD
ENDROOT
BRANCH   3  20
ATOM     20  C   UNL     1      -0.066  10.994  21.784  0.00  0.00    +0.000 A 
ATOM     21  C   UNL     1       0.246  12.336  21.525  0.00  0.00    +0.000 A 
ATOM     22  C   UNL     1      -0.381  13.379  22.192  0.00  0.00    +0.000 A 
ATOM     23  C   UNL     1      -1.380  13.108  23.133  0.00  0.00    +0.000 A 
ATOM     24  C   UNL     1      -1.748  11.776  23.359  0.00  0.00    +0.000 A 
ATOM     25  C   UNL     1      -1.111  10.725  22.691  0.00  0.00    +0.000 A 
BRANCH  23  26
ATOM     26  C   UNL     1      -2.038  14.238  23.887  0.00  0.00    +0.000 C 
ATOM     27  F   UNL     1      -1.235  14.813  24.828  0.00  0.00    +0.000 F 
ATOM     28  F   UNL     1      -2.432  15.250  23.068  0.00  0.00    +0.000 F 
ATOM     29  F   UNL     1      -3.158  13.838  24.553  0.00  0.00    +0.000 F 
ENDBRANCH  23  26
ENDBRANCH   3  20
TORSDOF 2
ENDMDL
MODEL 6
REMARK VINA RESULT:      -8.2      8.767     10.785
REMARK  Name = 
REMARK  2 active torsions:
REMARK  status: ('A' for Active; 'I' for Inactive)
REMARK    1  A    between atoms: N_3  and  C_4
REMARK    2  A    between atoms: C_7  and  C_8
REMARK                            x       y       z     vdW  Elec       q    Type
REMARK                         _______ _______ _______ _____ _____    ______ ____
ROOT
ATOM      1  O   UNL     1       0.737   9.191  17.562  0.00  0.00    +0.000 OA
ATOM      2  C   UNL     1       1.062   9.375  18.731  0.00  0.00    +0.000 C 
ATOM      3  N   UNL     1       1.910   8.559  19.439  0.00  0.00    +0.000 N 
ATOM      4  N   UNL     1       0.551  10.464  19.441  0.00  0.00    +0.000 N 
ATOM      5  C   UNL     1       0.645  10.713  20.876  0.00  0.00    +0.000 C 
ATOM      6  C   UNL     1       0.283  12.160  21.247  0.00  0.00    +0.000 C 
ATOM      7  C   UNL     1      -1.182  12.676  20.822  0.00  0.00    +0.000 C 
ATOM      8  C   UNL     1      -2.639  12.297  20.251  0.00  0.00    +0.000 C 
ATOM      9  C   UNL     1      -3.384  13.609  20.533  0.00  0.00    +0.000 C 
ATOM     10  C   UNL     1      -3.373  13.750  22.031  0.00  0.00    +0.000 A 
ATOM     11  C   UNL     1      -4.381  14.504  22.630  0.00  0.00    +0.000 A 
ATOM     12  C   UNL     1      -4.981  13.984  23.766  0.00  0.00    +0.000 A 
ATOM     13  C   UNL     1      -4.530  12.765  24.284  0.00  0.00    +0.000 A 
ATOM     14  C   UNL     1      -3.354  12.166  23.799  0.00  0.00    +0.000 A 
ATOM     15  C   UNL     1      -2.701  12.727  22.712  0.00  0.00    +0.000 A 
ATOM     16  O   UNL     1      -1.667  12.020  22.080  0.00  0.00    +0.000 OA
ATOM     17  C   UNL     1      -0.703  12.558  19.288  0.00  0.00    +0.000 C 
ATOM     18  C   UNL     1      -0.533  11.141  18.773  0.00  0.00    +0.000 C 
ATOM     19  H   UNL     1       1.802   8.550  20.429  0.00  0.00    +0.000 HD
ENDROOT
BRANCH   3  20
ATOM     20  C   UNL     1       2.600   7.470  18.859  0.00  0.00    +0.000 A 
ATOM     21  C   UNL     1       3.569   7.633  17.859  0.00  0.00    +0.000 A 
ATOM     22  C   UNL     1       4.164   6.549  17.227  0.00  0.00    +0.000 A 
ATOM     23  C   UNL     1       3.823   5.246  17.605  0.00  0.00    +0.000 A 
ATOM     24  C   UNL     1       2.904   5.065  18.646  0.00  0.00    +0.000 A 
ATOM     25  C   UNL     1       2.301   6.158  19.278  0.00  0.00    +0.000 A 
BRANCH  23  26
ATOM     26  C   UNL     1       4.440   4.065  16.896  0.00  0.00    +0.000 C 
ATOM     27  F   UNL     1       5.719   3.795  17.286  0.00  0.00    +0.000 F 
ATOM     28  F   UNL     1       3.741   2.915  17.096  0.00  0.00    +0.000 F 
ATOM     29  F   UNL     1       4.495   4.239  15.546  0.00  0.00    +0.000 F 
ENDBRANCH  23  26
ENDBRANCH   3  20
TORSDOF 2
ENDMDL
MODEL 7
REMARK VINA RESULT:      -8.1      1.081      1.426
REMARK  Name = 
REMARK  2 active torsions:
REMARK  status: ('A' for Active; 'I' for Inactive)
REMARK    1  A    between atoms: N_3  and  C_4
REMARK    2  A    between atoms: C_7  and  C_8
REMARK                            x       y       z     vdW  Elec       q    Type
REMARK                         _______ _______ _______ _____ _____    ______ ____
ROOT
ATOM      1  O   UNL     1       8.925   7.428  18.656  0.00  0.00    +0.000 OA
ATOM      2  C   UNL     1       7.868   7.828  18.178  0.00  0.00    +0.000 C 
ATOM      3  N   UNL     1       7.543   9.152  18.009  0.00  0.00    +0.000 N 
ATOM      4  N   UNL     1       6.888   6.917  17.777  0.00  0.00    +0.000 N 
ATOM      5  C   UNL     1       5.506   7.205  17.402  0.00  0.00    +0.000 C 
ATOM      6  C   UNL     1       4.833   6.023  16.687  0.00  0.00    +0.000 C 
ATOM      7  C   UNL     1       4.773   4.627  17.486  0.00  0.00    +0.000 C 
ATOM      8  C   UNL     1       4.995   3.853  18.881  0.00  0.00    +0.000 C 
ATOM      9  C   UNL     1       4.327   2.512  18.549  0.00  0.00    +0.000 C 
ATOM     10  C   UNL     1       2.881   2.847  18.302  0.00  0.00    +0.000 A 
ATOM     11  C   UNL     1       1.929   1.849  18.503  0.00  0.00    +0.000 A 
ATOM     12  C   UNL     1       0.771   2.194  19.183  0.00  0.00    +0.000 A 
ATOM     13  C   UNL     1       0.587   3.519  19.594  0.00  0.00    +0.000 A 
ATOM     14  C   UNL     1       1.450   4.538  19.155  0.00  0.00    +0.000 A 
ATOM     15  C   UNL     1       2.568   4.208  18.405  0.00  0.00    +0.000 A 
ATOM     16  O   UNL     1       3.551   5.178  18.157  0.00  0.00    +0.000 OA
ATOM     17  C   UNL     1       6.378   4.563  17.355  0.00  0.00    +0.000 C 
ATOM     18  C   UNL     1       7.134   5.564  18.208  0.00  0.00    +0.000 C 
ATOM     19  H   UNL     1       6.573   9.378  18.000  0.00  0.00    +0.000 HD
ENDROOT
BRANCH   3  20
ATOM     20  C   UNL     1       8.446  10.209  18.264  0.00  0.00    +0.000 A 
ATOM     21  C   UNL     1       9.343  10.196  19.342  0.00  0.00    +0.000 A 
ATOM     22  C   UNL     1      10.151  11.285  19.639  0.00  0.00    +0.000 A 
ATOM     23  C   UNL     1      10.109  12.429  18.834  0.00  0.00    +0.000 A 
ATOM     24  C   UNL     1       9.264  12.434  17.716  0.00  0.00    +0.000 A 
ATOM     25  C   UNL     1       8.446  11.339  17.422  0.00  0.00    +0.000 A 
BRANCH  23  26
ATOM     26  C   UNL     1      10.959  13.629  19.175  0.00  0.00    +0.000 C 
ATOM     27  F   UNL     1      11.064  13.865  20.514  0.00  0.00    +0.000 F 
ATOM     28  F   UNL     1      12.235  13.509  18.718  0.00  0.00    +0.000 F 
ATOM     29  F   UNL     1      10.474  14.781  18.634  0.00  0.00    +0.000 F 
ENDBRANCH  23  26
ENDBRANCH   3  20
TORSDOF 2
ENDMDL
MODEL 8
REMARK VINA RESULT:      -8.1      7.274      8.977
REMARK  Name = 
REMARK  2 active torsions:
REMARK  status: ('A' for Active; 'I' for Inactive)
REMARK    1  A    between atoms: N_3  and  C_4
REMARK    2  A    between atoms: C_7  and  C_8
REMARK                            x       y       z     vdW  Elec       q    Type
REMARK                         _______ _______ _______ _____ _____    ______ ____
ROOT
ATOM      1  O   UNL     1       0.496  10.571  19.181  0.00  0.00    +0.000 OA
ATOM      2  C   UNL     1       0.806   9.685  19.972  0.00  0.00    +0.000 C 
ATOM      3  N   UNL     1       0.597   9.745  21.328  0.00  0.00    +0.000 N 
ATOM      4  N   UNL     1       1.434   8.524  19.515  0.00  0.00    +0.000 N 
ATOM      5  C   UNL     1       2.067   7.481  20.318  0.00  0.00    +0.000 C 
ATOM      6  C   UNL     1       2.335   6.200  19.512  0.00  0.00    +0.000 C 
ATOM      7  C   UNL     1       3.257   6.345  18.200  0.00  0.00    +0.000 C 
ATOM      8  C   UNL     1       4.238   7.279  17.329  0.00  0.00    +0.000 C 
ATOM      9  C   UNL     1       4.800   6.236  16.354  0.00  0.00    +0.000 C 
ATOM     10  C   UNL     1       5.554   5.261  17.218  0.00  0.00    +0.000 A 
ATOM     11  C   UNL     1       6.592   4.532  16.639  0.00  0.00    +0.000 A 
ATOM     12  C   UNL     1       7.772   4.416  17.357  0.00  0.00    +0.000 A 
ATOM     13  C   UNL     1       7.858   4.987  18.632  0.00  0.00    +0.000 A 
ATOM     14  C   UNL     1       6.715   5.492  19.275  0.00  0.00    +0.000 A 
ATOM     15  C   UNL     1       5.510   5.537  18.590  0.00  0.00    +0.000 A 
ATOM     16  O   UNL     1       4.426   6.241  19.134  0.00  0.00    +0.000 OA
ATOM     17  C   UNL     1       2.072   7.220  17.548  0.00  0.00    +0.000 C 
ATOM     18  C   UNL     1       1.884   8.600  18.148  0.00  0.00    +0.000 C 
ATOM     19  H   UNL     1       1.208   9.206  21.901  0.00  0.00    +0.000 HD
ENDROOT
BRANCH   3  20
ATOM     20  C   UNL     1      -0.112  10.794  21.956  0.00  0.00    +0.000 A 
ATOM     21  C   UNL     1      -1.105  10.568  22.919  0.00  0.00    +0.000 A 
ATOM     22  C   UNL     1      -1.863  11.603  23.451  0.00  0.00    +0.000 A 
ATOM     23  C   UNL     1      -1.625  12.922  23.051  0.00  0.00    +0.000 A 
ATOM     24  C   UNL     1      -0.594  13.173  22.136  0.00  0.00    +0.000 A 
ATOM     25  C   UNL     1       0.164  12.129  21.596  0.00  0.00    +0.000 A 
BRANCH  23  26
ATOM     26  C   UNL     1      -2.471  14.045  23.600  0.00  0.00    +0.000 C 
ATOM     27  F   UNL     1      -3.194  14.704  22.649  0.00  0.00    +0.000 F 
ATOM     28  F   UNL     1      -3.376  13.613  24.520  0.00  0.00    +0.000 F 
ATOM     29  F   UNL     1      -1.728  15.000  24.225  0.00  0.00    +0.000 F 
ENDBRANCH  23  26
ENDBRANCH   3  20
TORSDOF 2
ENDMDL
MODEL 9
REMARK VINA RESULT:      -7.9     10.164     12.025
REMARK  Name = 
REMARK  2 active torsions:
REMARK  status: ('A' for Active; 'I' for Inactive)
REMARK    1  A    between atoms: N_3  and  C_4
REMARK    2  A    between atoms: C_7  and  C_8
REMARK                            x       y       z     vdW  Elec       q    Type
REMARK                         _______ _______ _______ _____ _____    ______ ____
ROOT
ATOM      1  O   UNL     1      -0.287  11.136  18.632  0.00  0.00    +0.000 OA
ATOM      2  C   UNL     1      -0.329  10.986  19.849  0.00  0.00    +0.000 C 
ATOM      3  N   UNL     1       0.281   9.960  20.528  0.00  0.00    +0.000 N 
ATOM      4  N   UNL     1      -1.047  11.884  20.643  0.00  0.00    +0.000 N 
ATOM      5  C   UNL     1      -1.390  11.743  22.055  0.00  0.00    +0.000 C 
ATOM      6  C   UNL     1      -1.869  13.065  22.678  0.00  0.00    +0.000 C 
ATOM      7  C   UNL     1      -3.147  13.769  21.998  0.00  0.00    +0.000 C 
ATOM      8  C   UNL     1      -4.361  13.649  20.947  0.00  0.00    +0.000 C 
ATOM      9  C   UNL     1      -5.176  14.888  21.340  0.00  0.00    +0.000 C 
ATOM     10  C   UNL     1      -5.616  14.633  22.756  0.00  0.00    +0.000 A 
ATOM     11  C   UNL     1      -6.769  15.270  23.214  0.00  0.00    +0.000 A 
ATOM     12  C   UNL     1      -7.674  14.512  23.942  0.00  0.00    +0.000 A 
ATOM     13  C   UNL     1      -7.379  13.173  24.222  0.00  0.00    +0.000 A 
ATOM     14  C   UNL     1      -6.103  12.645  23.959  0.00  0.00    +0.000 A 
ATOM     15  C   UNL     1      -5.163  13.426  23.303  0.00  0.00    +0.000 A 
ATOM     16  O   UNL     1      -3.976  12.841  22.836  0.00  0.00    +0.000 OA
ATOM     17  C   UNL     1      -2.230  14.023  20.699  0.00  0.00    +0.000 C 
ATOM     18  C   UNL     1      -1.891  12.782  19.896  0.00  0.00    +0.000 C 
ATOM     19  H   UNL     1      -0.119   9.700  21.403  0.00  0.00    +0.000 HD
ENDROOT
BRANCH   3  20
ATOM     20  C   UNL     1       1.130   9.017  19.905  0.00  0.00    +0.000 A 
ATOM     21  C   UNL     1       1.604   9.174  18.595  0.00  0.00    +0.000 A 
ATOM     22  C   UNL     1       2.353   8.191  17.962  0.00  0.00    +0.000 A 
ATOM     23  C   UNL     1       2.681   7.013  18.642  0.00  0.00    +0.000 A 
ATOM     24  C   UNL     1       2.268   6.867  19.973  0.00  0.00    +0.000 A 
ATOM     25  C   UNL     1       1.509   7.856  20.608  0.00  0.00    +0.000 A 
BRANCH  23  26
ATOM     26  C   UNL     1       3.463   5.927  17.945  0.00  0.00    +0.000 C 
ATOM     27  F   UNL     1       4.347   5.278  18.755  0.00  0.00    +0.000 F 
ATOM     28  F   UNL     1       2.659   4.959  17.425  0.00  0.00    +0.000 F 
ATOM     29  F   UNL     1       4.199   6.402  16.901  0.00  0.00    +0.000 F 
ENDBRANCH  23  26
ENDBRANCH   3  20
TORSDOF 2
ENDMDL
