MODEL 1
REMARK VINA RESULT:      -9.6      0.000      0.000
REMARK  Name = 
REMARK  7 active torsions:
REMARK  status: ('A' for Active; 'I' for Inactive)
REMARK    1  A    between atoms: C_1  and  C_2
REMARK    2  A    between atoms: C_5  and  C_6
REMARK    3  A    between atoms: C_9  and  C_10
REMARK    4  A    between atoms: C_21  and  S_22
REMARK    5  A    between atoms: S_22  and  N_25
REMARK    6  A    between atoms: N_25  and  C_26
REMARK    7  A    between atoms: C_26  and  C_27
REMARK                            x       y       z     vdW  Elec       q    Type
REMARK                         _______ _______ _______ _____ _____    ______ ____
ROOT
ATOM      1  C   UNL     1      -0.159   9.972  21.530  0.00  0.00    +0.000 C 
ATOM      2  C   UNL     1       0.706   9.101  20.663  0.00  0.00    +0.000 A 
ATOM      3  C   UNL     1       0.978   7.794  21.115  0.00  0.00    +0.000 A 
ATOM      4  C   UNL     1       1.841   6.947  20.412  0.00  0.00    +0.000 A 
ATOM      5  C   UNL     1       2.435   7.365  19.218  0.00  0.00    +0.000 A 
ATOM      6  C   UNL     1       2.092   8.619  18.711  0.00  0.00    +0.000 A 
ATOM      7  C   UNL     1       1.288   9.509  19.450  0.00  0.00    +0.000 A 
ENDROOT
BRANCH   5   8
ATOM      8  C   UNL     1       3.376   6.435  18.505  0.00  0.00    +0.000 A 
ATOM      9  N   UNL     1       4.547   6.943  18.204  0.00  0.00    +0.000 NA
ATOM     10  N   UNL     1       5.445   6.090  17.630  0.00  0.00    +0.000 N 
ATOM     11  C   UNL     1       6.734   6.355  17.229  0.00  0.00    +0.000 A 
ATOM     12  C   UNL     1       7.387   7.675  17.342  0.00  0.00    +0.000 C 
ATOM     13  N   UNL     1       7.277   5.251  16.750  0.00  0.00    +0.000 NA
ATOM     14  N   UNL     1       6.343   4.243  16.837  0.00  0.00    +0.000 NA
ATOM     15  C   UNL     1       5.255   4.758  17.367  0.00  0.00    +0.000 A 
ATOM     16  C   UNL     1       3.978   4.161  17.664  0.00  0.00    +0.000 A 
ATOM     17  C   UNL     1       3.729   2.807  17.418  0.00  0.00    +0.000 A 
ATOM     18  C   UNL     1       2.472   2.272  17.688  0.00  0.00    +0.000 A 
ATOM     19  C   UNL     1       1.454   3.102  18.149  0.00  0.00    +0.000 A 
ATOM     20  C   UNL     1       1.694   4.464  18.362  0.00  0.00    +0.000 A 
ATOM     21  C   UNL     1       2.977   4.998  18.187  0.00  0.00    +0.000 A 
ENDBRANCH   5   8
BRANCH   7  22
ATOM     22  S   UNL     1       1.265  11.199  18.842  0.00  0.00    +0.000 S 
ATOM     23  O   UNL     1       1.375  12.109  19.958  0.00  0.00    +0.000 OA
ATOM     24  O   UNL     1       2.213  11.244  17.748  0.00  0.00    +0.000 OA
BRANCH  22  25
ATOM     25  N   UNL     1      -0.270  11.342  18.161  0.00  0.00    +0.000 NA
ATOM     26  H   UNL     1      -0.293  11.991  17.375  0.00  0.00    +0.000 HD
BRANCH  25  27
ATOM     27  C   UNL     1      -0.933  10.070  17.852  0.00  0.00    +0.000 C 
BRANCH  27  28
ATOM     28  C   UNL     1      -2.181  10.345  17.103  0.00  0.00    +0.000 A 
ATOM     29  C   UNL     1      -2.576  10.123  15.799  0.00  0.00    +0.000 A 
ATOM     30  C   UNL     1      -3.857  10.711  15.669  0.00  0.00    +0.000 A 
ATOM     31  C   UNL     1      -4.171  11.232  16.902  0.00  0.00    +0.000 A 
ATOM     32  O   UNL     1      -3.163  11.004  17.784  0.00  0.00    +0.000 OA
ENDBRANCH  27  28
ENDBRANCH  25  27
ENDBRANCH  22  25
ENDBRANCH   7  22
TORSDOF 5
ENDMDL
MODEL 2
REMARK VINA RESULT:      -9.4      2.450      3.535
REMARK  Name = 
REMARK  7 active torsions:
REMARK  status: ('A' for Active; 'I' for Inactive)
REMARK    1  A    between atoms: C_1  and  C_2
REMARK    2  A    between atoms: C_5  and  C_6
REMARK    3  A    between atoms: C_9  and  C_10
REMARK    4  A    between atoms: C_21  and  S_22
REMARK    5  A    between atoms: S_22  and  N_25
REMARK    6  A    between atoms: N_25  and  C_26
REMARK    7  A    between atoms: C_26  and  C_27
REMARK                            x       y       z     vdW  Elec       q    Type
REMARK                         _______ _______ _______ _____ _____    ______ ____
ROOT
ATOM      1  C   UNL     1      -0.724  10.841  19.369  0.00  0.00    +0.000 C 
ATOM      2  C   UNL     1       0.380   9.851  19.127  0.00  0.00    +0.000 A 
ATOM      3  C   UNL     1       0.795   9.647  17.796  0.00  0.00    +0.000 A 
ATOM      4  C   UNL     1       1.757   8.684  17.473  0.00  0.00    +0.000 A 
ATOM      5  C   UNL     1       2.359   7.915  18.474  0.00  0.00    +0.000 A 
ATOM      6  C   UNL     1       2.028   8.179  19.803  0.00  0.00    +0.000 A 
ATOM      7  C   UNL     1       1.004   9.090  20.131  0.00  0.00    +0.000 A 
ENDROOT
BRANCH   5   8
ATOM      8  C   UNL     1       3.370   6.872  18.085  0.00  0.00    +0.000 A 
ATOM      9  N   UNL     1       4.592   7.314  17.907  0.00  0.00    +0.000 NA
ATOM     10  N   UNL     1       5.540   6.371  17.633  0.00  0.00    +0.000 N 
ATOM     11  C   UNL     1       6.886   6.556  17.416  0.00  0.00    +0.000 A 
ATOM     12  C   UNL     1       7.559   7.870  17.426  0.00  0.00    +0.000 C 
ATOM     13  N   UNL     1       7.460   5.383  17.216  0.00  0.00    +0.000 NA
ATOM     14  N   UNL     1       6.488   4.411  17.304  0.00  0.00    +0.000 NA
ATOM     15  C   UNL     1       5.348   5.016  17.557  0.00  0.00    +0.000 A 
ATOM     16  C   UNL     1       4.018   4.487  17.728  0.00  0.00    +0.000 A 
ATOM     17  C   UNL     1       3.765   3.113  17.661  0.00  0.00    +0.000 A 
ATOM     18  C   UNL     1       2.462   2.640  17.799  0.00  0.00    +0.000 A 
ATOM     19  C   UNL     1       1.413   3.543  17.947  0.00  0.00    +0.000 A 
ATOM     20  C   UNL     1       1.664   4.920  17.978  0.00  0.00    +0.000 A 
ATOM     21  C   UNL     1       2.977   5.407  17.937  0.00  0.00    +0.000 A 
ENDBRANCH   5   8
BRANCH   7  22
ATOM     22  S   UNL     1       0.445   9.024  21.837  0.00  0.00    +0.000 S 
ATOM     23  O   UNL     1      -0.744   8.208  21.918  0.00  0.00    +0.000 OA
ATOM     24  O   UNL     1       1.616   8.715  22.631  0.00  0.00    +0.000 OA
BRANCH  22  25
ATOM     25  N   UNL     1       0.040  10.626  22.171  0.00  0.00    +0.000 NA
ATOM     26  H   UNL     1      -0.084  11.184  21.326  0.00  0.00    +0.000 HD
BRANCH  25  27
ATOM     27  C   UNL     1      -1.063  10.803  23.121  0.00  0.00    +0.000 C 
BRANCH  27  28
ATOM     28  C   UNL     1      -1.641  12.156  22.945  0.00  0.00    +0.000 A 
ATOM     29  C   UNL     1      -1.256  13.415  23.357  0.00  0.00    +0.000 A 
ATOM     30  C   UNL     1      -2.291  14.295  22.960  0.00  0.00    +0.000 A 
ATOM     31  C   UNL     1      -3.228  13.523  22.314  0.00  0.00    +0.000 A 
ATOM     32  O   UNL     1      -2.837  12.223  22.289  0.00  0.00    +0.000 OA
ENDBRANCH  27  28
ENDBRANCH  25  27
ENDBRANCH  22  25
ENDBRANCH   7  22
TORSDOF 5
ENDMDL
MODEL 3
REMARK VINA RESULT:      -9.3      3.140      4.461
REMARK  Name = 
REMARK  7 active torsions:
REMARK  status: ('A' for Active; 'I' for Inactive)
REMARK    1  A    between atoms: C_1  and  C_2
REMARK    2  A    between atoms: C_5  and  C_6
REMARK    3  A    between atoms: C_9  and  C_10
REMARK    4  A    between atoms: C_21  and  S_22
REMARK    5  A    between atoms: S_22  and  N_25
REMARK    6  A    between atoms: N_25  and  C_26
REMARK    7  A    between atoms: C_26  and  C_27
REMARK                            x       y       z     vdW  Elec       q    Type
REMARK                         _______ _______ _______ _____ _____    ______ ____
ROOT
ATOM      1  C   UNL     1       0.508  11.431  19.410  0.00  0.00    +0.000 C 
ATOM      2  C   UNL     1       1.118  10.061  19.306  0.00  0.00    +0.000 A 
ATOM      3  C   UNL     1       1.684   9.690  18.071  0.00  0.00    +0.000 A 
ATOM      4  C   UNL     1       2.197   8.406  17.861  0.00  0.00    +0.000 A 
ATOM      5  C   UNL     1       2.190   7.460  18.891  0.00  0.00    +0.000 A 
ATOM      6  C   UNL     1       1.724   7.849  20.147  0.00  0.00    +0.000 A 
ATOM      7  C   UNL     1       1.134   9.113  20.344  0.00  0.00    +0.000 A 
ENDROOT
BRANCH   5   8
ATOM      8  C   UNL     1       2.728   6.082  18.620  0.00  0.00    +0.000 A 
ATOM      9  N   UNL     1       2.220   5.125  19.360  0.00  0.00    +0.000 NA
ATOM     10  N   UNL     1       2.635   3.857  19.074  0.00  0.00    +0.000 N 
ATOM     11  C   UNL     1       2.257   2.682  19.681  0.00  0.00    +0.000 A 
ATOM     12  C   UNL     1       1.307   2.593  20.808  0.00  0.00    +0.000 C 
ATOM     13  N   UNL     1       2.864   1.670  19.087  0.00  0.00    +0.000 NA
ATOM     14  N   UNL     1       3.648   2.178  18.075  0.00  0.00    +0.000 NA
ATOM     15  C   UNL     1       3.499   3.484  18.078  0.00  0.00    +0.000 A 
ATOM     16  C   UNL     1       4.095   4.503  17.251  0.00  0.00    +0.000 A 
ATOM     17  C   UNL     1       4.983   4.179  16.219  0.00  0.00    +0.000 A 
ATOM     18  C   UNL     1       5.565   5.192  15.461  0.00  0.00    +0.000 A 
ATOM     19  C   UNL     1       5.302   6.523  15.773  0.00  0.00    +0.000 A 
ATOM     20  C   UNL     1       4.441   6.847  16.828  0.00  0.00    +0.000 A 
ATOM     21  C   UNL     1       3.774   5.840  17.538  0.00  0.00    +0.000 A 
ENDBRANCH   5   8
BRANCH   7  22
ATOM     22  S   UNL     1       0.248   9.305  21.895  0.00  0.00    +0.000 S 
ATOM     23  O   UNL     1      -0.686   8.214  22.049  0.00  0.00    +0.000 OA
ATOM     24  O   UNL     1       1.254   9.571  22.902  0.00  0.00    +0.000 OA
BRANCH  22  25
ATOM     25  N   UNL     1      -0.610  10.739  21.673  0.00  0.00    +0.000 NA
ATOM     26  H   UNL     1      -1.355  10.649  20.982  0.00  0.00    +0.000 HD
BRANCH  25  27
ATOM     27  C   UNL     1      -1.071  11.384  22.907  0.00  0.00    +0.000 C 
BRANCH  27  28
ATOM     28  C   UNL     1      -2.315  12.139  22.622  0.00  0.00    +0.000 A 
ATOM     29  C   UNL     1      -2.674  13.046  21.647  0.00  0.00    +0.000 A 
ATOM     30  C   UNL     1      -3.975  13.492  21.982  0.00  0.00    +0.000 A 
ATOM     31  C   UNL     1      -4.333  12.815  23.124  0.00  0.00    +0.000 A 
ATOM     32  O   UNL     1      -3.336  11.981  23.514  0.00  0.00    +0.000 OA
ENDBRANCH  27  28
ENDBRANCH  25  27
ENDBRANCH  22  25
ENDBRANCH   7  22
TORSDOF 5
ENDMDL
MODEL 4
REMARK VINA RESULT:      -9.3      2.816      3.557
REMARK  Name = 
REMARK  7 active torsions:
REMARK  status: ('A' for Active; 'I' for Inactive)
REMARK    1  A    between atoms: C_1  and  C_2
REMARK    2  A    between atoms: C_5  and  C_6
REMARK    3  A    between atoms: C_9  and  C_10
REMARK    4  A    between atoms: C_21  and  S_22
REMARK    5  A    between atoms: S_22  and  N_25
REMARK    6  A    between atoms: N_25  and  C_26
REMARK    7  A    between atoms: C_26  and  C_27
REMARK                            x       y       z     vdW  Elec       q    Type
REMARK                         _______ _______ _______ _____ _____    ______ ____
ROOT
ATOM      1  C   UNL     1      -0.523  11.100  19.164  0.00  0.00    +0.000 C 
ATOM      2  C   UNL     1       0.453   9.960  19.219  0.00  0.00    +0.000 A 
ATOM      3  C   UNL     1       1.001   9.508  18.002  0.00  0.00    +0.000 A 
ATOM      4  C   UNL     1       1.851   8.399  17.954  0.00  0.00    +0.000 A 
ATOM      5  C   UNL     1       2.209   7.724  19.125  0.00  0.00    +0.000 A 
ATOM      6  C   UNL     1       1.754   8.225  20.345  0.00  0.00    +0.000 A 
ATOM      7  C   UNL     1       0.834   9.291  20.396  0.00  0.00    +0.000 A 
ENDROOT
BRANCH   5   8
ATOM      8  C   UNL     1       3.106   6.521  19.030  0.00  0.00    +0.000 A 
ATOM      9  N   UNL     1       4.271   6.732  18.465  0.00  0.00    +0.000 NA
ATOM     10  N   UNL     1       5.131   5.672  18.442  0.00  0.00    +0.000 N 
ATOM     11  C   UNL     1       6.405   5.622  17.927  0.00  0.00    +0.000 A 
ATOM     12  C   UNL     1       7.082   6.756  17.266  0.00  0.00    +0.000 C 
ATOM     13  N   UNL     1       6.911   4.420  18.134  0.00  0.00    +0.000 NA
ATOM     14  N   UNL     1       5.967   3.666  18.794  0.00  0.00    +0.000 NA
ATOM     15  C   UNL     1       4.910   4.429  18.974  0.00  0.00    +0.000 A 
ATOM     16  C   UNL     1       3.638   4.146  19.589  0.00  0.00    +0.000 A 
ATOM     17  C   UNL     1       3.359   2.894  20.148  0.00  0.00    +0.000 A 
ATOM     18  C   UNL     1       2.107   2.647  20.705  0.00  0.00    +0.000 A 
ATOM     19  C   UNL     1       1.122   3.629  20.650  0.00  0.00    +0.000 A 
ATOM     20  C   UNL     1       1.390   4.869  20.059  0.00  0.00    +0.000 A 
ATOM     21  C   UNL     1       2.673   5.167  19.580  0.00  0.00    +0.000 A 
ENDBRANCH   5   8
BRANCH   7  22
ATOM     22  S   UNL     1       0.061   9.553  21.997  0.00  0.00    +0.000 S 
ATOM     23  O   UNL     1      -0.933   8.528  22.219  0.00  0.00    +0.000 OA
ATOM     24  O   UNL     1       1.144   9.756  22.936  0.00  0.00    +0.000 OA
BRANCH  22  25
ATOM     25  N   UNL     1      -0.710  11.040  21.812  0.00  0.00    +0.000 NA
ATOM     26  H   UNL     1      -1.343  11.058  21.013  0.00  0.00    +0.000 HD
BRANCH  25  27
ATOM     27  C   UNL     1      -1.336  11.570  23.028  0.00  0.00    +0.000 C 
BRANCH  27  28
ATOM     28  C   UNL     1      -2.565  12.310  22.657  0.00  0.00    +0.000 A 
ATOM     29  C   UNL     1      -2.853  13.254  21.693  0.00  0.00    +0.000 A 
ATOM     30  C   UNL     1      -4.191  13.655  21.918  0.00  0.00    +0.000 A 
ATOM     31  C   UNL     1      -4.641  12.916  22.988  0.00  0.00    +0.000 A 
ATOM     32  O   UNL     1      -3.664  12.087  23.437  0.00  0.00    +0.000 OA
ENDBRANCH  27  28
ENDBRANCH  25  27
ENDBRANCH  22  25
ENDBRANCH   7  22
TORSDOF 5
ENDMDL
MODEL 5
REMARK VINA RESULT:      -9.1      3.105      4.704
REMARK  Name = 
REMARK  7 active torsions:
REMARK  status: ('A' for Active; 'I' for Inactive)
REMARK    1  A    between atoms: C_1  and  C_2
REMARK    2  A    between atoms: C_5  and  C_6
REMARK    3  A    between atoms: C_9  and  C_10
REMARK    4  A    between atoms: C_21  and  S_22
REMARK    5  A    between atoms: S_22  and  N_25
REMARK    6  A    between atoms: N_25  and  C_26
REMARK    7  A    between atoms: C_26  and  C_27
REMARK                            x       y       z     vdW  Elec       q    Type
REMARK                         _______ _______ _______ _____ _____    ______ ____
ROOT
ATOM      1  C   UNL     1       0.220  11.391  19.391  0.00  0.00    +0.000 C 
ATOM      2  C   UNL     1       0.904  10.056  19.298  0.00  0.00    +0.000 A 
ATOM      3  C   UNL     1       1.272   9.599  18.017  0.00  0.00    +0.000 A 
ATOM      4  C   UNL     1       1.836   8.332  17.832  0.00  0.00    +0.000 A 
ATOM      5  C   UNL     1       2.081   7.494  18.924  0.00  0.00    +0.000 A 
ATOM      6  C   UNL     1       1.813   7.978  20.204  0.00  0.00    +0.000 A 
ATOM      7  C   UNL     1       1.173   9.219  20.394  0.00  0.00    +0.000 A 
ENDROOT
BRANCH   5   8
ATOM      8  C   UNL     1       2.665   6.130  18.681  0.00  0.00    +0.000 A 
ATOM      9  N   UNL     1       2.180   5.170  19.432  0.00  0.00    +0.000 NA
ATOM     10  N   UNL     1       2.638   3.911  19.172  0.00  0.00    +0.000 N 
ATOM     11  C   UNL     1       2.292   2.734  19.794  0.00  0.00    +0.000 A 
ATOM     12  C   UNL     1       1.334   2.634  20.914  0.00  0.00    +0.000 C 
ATOM     13  N   UNL     1       2.937   1.733  19.223  0.00  0.00    +0.000 NA
ATOM     14  N   UNL     1       3.715   2.249  18.211  0.00  0.00    +0.000 NA
ATOM     15  C   UNL     1       3.524   3.550  18.190  0.00  0.00    +0.000 A 
ATOM     16  C   UNL     1       4.096   4.573  17.352  0.00  0.00    +0.000 A 
ATOM     17  C   UNL     1       5.004   4.262  16.335  0.00  0.00    +0.000 A 
ATOM     18  C   UNL     1       5.561   5.280  15.566  0.00  0.00    +0.000 A 
ATOM     19  C   UNL     1       5.252   6.607  15.852  0.00  0.00    +0.000 A 
ATOM     20  C   UNL     1       4.371   6.920  16.893  0.00  0.00    +0.000 A 
ATOM     21  C   UNL     1       3.729   5.904  17.614  0.00  0.00    +0.000 A 
ENDBRANCH   5   8
BRANCH   7  22
ATOM     22  S   UNL     1       0.559   9.511  22.058  0.00  0.00    +0.000 S 
ATOM     23  O   UNL     1      -0.649   8.745  22.262  0.00  0.00    +0.000 OA
ATOM     24  O   UNL     1       1.698   9.355  22.938  0.00  0.00    +0.000 OA
BRANCH  22  25
ATOM     25  N   UNL     1       0.176  11.152  22.043  0.00  0.00    +0.000 NA
ATOM     26  H   UNL     1       0.146  11.541  21.100  0.00  0.00    +0.000 HD
BRANCH  25  27
ATOM     27  C   UNL     1      -1.001  11.523  22.835  0.00  0.00    +0.000 C 
BRANCH  27  28
ATOM     28  C   UNL     1      -1.227  12.983  22.713  0.00  0.00    +0.000 A 
ATOM     29  C   UNL     1      -1.788  13.780  21.737  0.00  0.00    +0.000 A 
ATOM     30  C   UNL     1      -1.612  15.116  22.169  0.00  0.00    +0.000 A 
ATOM     31  C   UNL     1      -0.977  15.048  23.387  0.00  0.00    +0.000 A 
ATOM     32  O   UNL     1      -0.749  13.755  23.732  0.00  0.00    +0.000 OA
ENDBRANCH  27  28
ENDBRANCH  25  27
ENDBRANCH  22  25
ENDBRANCH   7  22
TORSDOF 5
ENDMDL
MODEL 6
REMARK VINA RESULT:      -9.0      1.597      1.949
REMARK  Name = 
REMARK  7 active torsions:
REMARK  status: ('A' for Active; 'I' for Inactive)
REMARK    1  A    between atoms: C_1  and  C_2
REMARK    2  A    between atoms: C_5  and  C_6
REMARK    3  A    between atoms: C_9  and  C_10
REMARK    4  A    between atoms: C_21  and  S_22
REMARK    5  A    between atoms: S_22  and  N_25
REMARK    6  A    between atoms: N_25  and  C_26
REMARK    7  A    between atoms: C_26  and  C_27
REMARK                            x       y       z     vdW  Elec       q    Type
REMARK                         _______ _______ _______ _____ _____    ______ ____
ROOT
ATOM      1  C   UNL     1      -0.054   9.973  21.431  0.00  0.00    +0.000 C 
ATOM      2  C   UNL     1       0.799   9.075  20.581  0.00  0.00    +0.000 A 
ATOM      3  C   UNL     1       1.077   7.782  21.068  0.00  0.00    +0.000 A 
ATOM      4  C   UNL     1       1.931   6.913  20.381  0.00  0.00    +0.000 A 
ATOM      5  C   UNL     1       2.510   7.295  19.167  0.00  0.00    +0.000 A 
ATOM      6  C   UNL     1       2.161   8.533  18.626  0.00  0.00    +0.000 A 
ATOM      7  C   UNL     1       1.366   9.445  19.349  0.00  0.00    +0.000 A 
ENDROOT
BRANCH   5   8
ATOM      8  C   UNL     1       3.442   6.343  18.471  0.00  0.00    +0.000 A 
ATOM      9  N   UNL     1       4.621   6.832  18.168  0.00  0.00    +0.000 NA
ATOM     10  N   UNL     1       5.510   5.960  17.609  0.00  0.00    +0.000 N 
ATOM     11  C   UNL     1       6.803   6.203  17.211  0.00  0.00    +0.000 A 
ATOM     12  C   UNL     1       7.473   7.515  17.309  0.00  0.00    +0.000 C 
ATOM     13  N   UNL     1       7.334   5.085  16.750  0.00  0.00    +0.000 NA
ATOM     14  N   UNL     1       6.387   4.090  16.846  0.00  0.00    +0.000 NA
ATOM     15  C   UNL     1       5.304   4.627  17.364  0.00  0.00    +0.000 A 
ATOM     16  C   UNL     1       4.018   4.050  17.664  0.00  0.00    +0.000 A 
ATOM     17  C   UNL     1       3.752   2.696  17.435  0.00  0.00    +0.000 A 
ATOM     18  C   UNL     1       2.488   2.181  17.707  0.00  0.00    +0.000 A 
ATOM     19  C   UNL     1       1.479   3.030  18.153  0.00  0.00    +0.000 A 
ATOM     20  C   UNL     1       1.735   4.392  18.348  0.00  0.00    +0.000 A 
ATOM     21  C   UNL     1       3.026   4.907  18.171  0.00  0.00    +0.000 A 
ENDBRANCH   5   8
BRANCH   7  22
ATOM     22  S   UNL     1       1.336  11.116  18.689  0.00  0.00    +0.000 S 
ATOM     23  O   UNL     1       1.623  12.053  19.751  0.00  0.00    +0.000 OA
ATOM     24  O   UNL     1       2.140  11.086  17.485  0.00  0.00    +0.000 OA
BRANCH  22  25
ATOM     25  N   UNL     1      -0.265  11.308  18.202  0.00  0.00    +0.000 NA
ATOM     26  H   UNL     1      -0.890  10.620  18.623  0.00  0.00    +0.000 HD
BRANCH  25  27
ATOM     27  C   UNL     1      -0.789  12.674  18.311  0.00  0.00    +0.000 C 
BRANCH  27  28
ATOM     28  C   UNL     1      -1.719  12.745  19.463  0.00  0.00    +0.000 A 
ATOM     29  C   UNL     1      -3.006  12.294  19.675  0.00  0.00    +0.000 A 
ATOM     30  C   UNL     1      -3.386  12.770  20.952  0.00  0.00    +0.000 A 
ATOM     31  C   UNL     1      -2.303  13.459  21.446  0.00  0.00    +0.000 A 
ATOM     32  O   UNL     1      -1.280  13.440  20.553  0.00  0.00    +0.000 OA
ENDBRANCH  27  28
ENDBRANCH  25  27
ENDBRANCH  22  25
ENDBRANCH   7  22
TORSDOF 5
ENDMDL
MODEL 7
REMARK VINA RESULT:      -8.9      1.221      1.431
REMARK  Name = 
REMARK  7 active torsions:
REMARK  status: ('A' for Active; 'I' for Inactive)
REMARK    1  A    between atoms: C_1  and  C_2
REMARK    2  A    between atoms: C_5  and  C_6
REMARK    3  A    between atoms: C_9  and  C_10
REMARK    4  A    between atoms: C_21  and  S_22
REMARK    5  A    between atoms: S_22  and  N_25
REMARK    6  A    between atoms: N_25  and  C_26
REMARK    7  A    between atoms: C_26  and  C_27
REMARK                            x       y       z     vdW  Elec       q    Type
REMARK                         _______ _______ _______ _____ _____    ______ ____
ROOT
ATOM      1  C   UNL     1      -0.391  10.778  21.752  0.00  0.00    +0.000 C 
ATOM      2  C   UNL     1       0.376   9.680  21.070  0.00  0.00    +0.000 A 
ATOM      3  C   UNL     1       0.479   8.443  21.736  0.00  0.00    +0.000 A 
ATOM      4  C   UNL     1       1.245   7.396  21.212  0.00  0.00    +0.000 A 
ATOM      5  C   UNL     1       1.905   7.540  19.988  0.00  0.00    +0.000 A 
ATOM      6  C   UNL     1       1.727   8.724  19.273  0.00  0.00    +0.000 A 
ATOM      7  C   UNL     1       1.024   9.812  19.830  0.00  0.00    +0.000 A 
ENDROOT
BRANCH   5   8
ATOM      8  C   UNL     1       2.738   6.401  19.470  0.00  0.00    +0.000 A 
ATOM      9  N   UNL     1       3.805   6.749  18.790  0.00  0.00    +0.000 NA
ATOM     10  N   UNL     1       4.618   5.732  18.381  0.00  0.00    +0.000 N 
ATOM     11  C   UNL     1       5.793   5.815  17.671  0.00  0.00    +0.000 A 
ATOM     12  C   UNL     1       6.390   7.078  17.194  0.00  0.00    +0.000 C 
ATOM     13  N   UNL     1       6.289   4.602  17.505  0.00  0.00    +0.000 NA
ATOM     14  N   UNL     1       5.438   3.706  18.114  0.00  0.00    +0.000 NA
ATOM     15  C   UNL     1       4.447   4.395  18.635  0.00  0.00    +0.000 A 
ATOM     16  C   UNL     1       3.280   3.965  19.363  0.00  0.00    +0.000 A 
ATOM     17  C   UNL     1       3.055   2.614  19.651  0.00  0.00    +0.000 A 
ATOM     18  C   UNL     1       1.900   2.232  20.328  0.00  0.00    +0.000 A 
ATOM     19  C   UNL     1       0.950   3.191  20.664  0.00  0.00    +0.000 A 
ATOM     20  C   UNL     1       1.158   4.538  20.345  0.00  0.00    +0.000 A 
ATOM     21  C   UNL     1       2.357   4.952  19.750  0.00  0.00    +0.000 A 
ENDBRANCH   5   8
BRANCH   7  22
ATOM     22  S   UNL     1       1.218  11.370  18.956  0.00  0.00    +0.000 S 
ATOM     23  O   UNL     1       1.520  12.415  19.906  0.00  0.00    +0.000 OA
ATOM     24  O   UNL     1       2.102  11.097  17.842  0.00  0.00    +0.000 OA
BRANCH  22  25
ATOM     25  N   UNL     1      -0.314  11.639  18.307  0.00  0.00    +0.000 NA
ATOM     26  H   UNL     1      -0.310  12.339  17.565  0.00  0.00    +0.000 HD
BRANCH  25  27
ATOM     27  C   UNL     1      -1.049  10.429  17.924  0.00  0.00    +0.000 C 
BRANCH  27  28
ATOM     28  C   UNL     1      -2.318  10.820  17.267  0.00  0.00    +0.000 A 
ATOM     29  C   UNL     1      -3.502  11.356  17.730  0.00  0.00    +0.000 A 
ATOM     30  C   UNL     1      -4.376  11.403  16.618  0.00  0.00    +0.000 A 
ATOM     31  C   UNL     1      -3.665  10.915  15.546  0.00  0.00    +0.000 A 
ATOM     32  O   UNL     1      -2.408  10.569  15.928  0.00  0.00    +0.000 OA
ENDBRANCH  27  28
ENDBRANCH  25  27
ENDBRANCH  22  25
ENDBRANCH   7  22
TORSDOF 5
ENDMDL
MODEL 8
REMARK VINA RESULT:      -8.8      2.916      3.736
REMARK  Name = 
REMARK  7 active torsions:
REMARK  status: ('A' for Active; 'I' for Inactive)
REMARK    1  A    between atoms: C_1  and  C_2
REMARK    2  A    between atoms: C_5  and  C_6
REMARK    3  A    between atoms: C_9  and  C_10
REMARK    4  A    between atoms: C_21  and  S_22
REMARK    5  A    between atoms: S_22  and  N_25
REMARK    6  A    between atoms: N_25  and  C_26
REMARK    7  A    between atoms: C_26  and  C_27
REMARK                            x       y       z     vdW  Elec       q    Type
REMARK                         _______ _______ _______ _____ _____    ______ ____
ROOT
ATOM      1  C   UNL     1       0.293  11.542  19.646  0.00  0.00    +0.000 C 
ATOM      2  C   UNL     1       0.957  10.211  19.436  0.00  0.00    +0.000 A 
ATOM      3  C   UNL     1       1.511   9.949  18.168  0.00  0.00    +0.000 A 
ATOM      4  C   UNL     1       2.073   8.705  17.861  0.00  0.00    +0.000 A 
ATOM      5  C   UNL     1       2.128   7.692  18.824  0.00  0.00    +0.000 A 
ATOM      6  C   UNL     1       1.674   7.975  20.112  0.00  0.00    +0.000 A 
ATOM      7  C   UNL     1       1.035   9.197  20.406  0.00  0.00    +0.000 A 
ENDROOT
BRANCH   5   8
ATOM      8  C   UNL     1       2.717   6.360  18.449  0.00  0.00    +0.000 A 
ATOM      9  N   UNL     1       3.571   6.384  17.454  0.00  0.00    +0.000 NA
ATOM     10  N   UNL     1       4.177   5.199  17.152  0.00  0.00    +0.000 N 
ATOM     11  C   UNL     1       5.111   4.947  16.174  0.00  0.00    +0.000 A 
ATOM     12  C   UNL     1       5.625   5.961  15.231  0.00  0.00    +0.000 C 
ATOM     13  N   UNL     1       5.470   3.677  16.231  0.00  0.00    +0.000 NA
ATOM     14  N   UNL     1       4.771   3.082  17.258  0.00  0.00    +0.000 NA
ATOM     15  C   UNL     1       4.006   4.004  17.800  0.00  0.00    +0.000 A 
ATOM     16  C   UNL     1       3.064   3.926  18.888  0.00  0.00    +0.000 A 
ATOM     17  C   UNL     1       2.850   2.733  19.586  0.00  0.00    +0.000 A 
ATOM     18  C   UNL     1       1.908   2.687  20.610  0.00  0.00    +0.000 A 
ATOM     19  C   UNL     1       1.146   3.816  20.896  0.00  0.00    +0.000 A 
ATOM     20  C   UNL     1       1.336   5.000  20.174  0.00  0.00    +0.000 A 
ATOM     21  C   UNL     1       2.345   5.091  19.206  0.00  0.00    +0.000 A 
ENDBRANCH   5   8
BRANCH   7  22
ATOM     22  S   UNL     1       0.176   9.244  21.984  0.00  0.00    +0.000 S 
ATOM     23  O   UNL     1      -0.674   8.081  22.099  0.00  0.00    +0.000 OA
ATOM     24  O   UNL     1       1.185   9.531  22.981  0.00  0.00    +0.000 OA
BRANCH  22  25
ATOM     25  N   UNL     1      -0.787  10.621  21.854  0.00  0.00    +0.000 NA
ATOM     26  H   UNL     1      -1.556  10.503  21.194  0.00  0.00    +0.000 HD
BRANCH  25  27
ATOM     27  C   UNL     1      -1.234  11.189  23.131  0.00  0.00    +0.000 C 
BRANCH  27  28
ATOM     28  C   UNL     1      -2.404  12.065  22.888  0.00  0.00    +0.000 A 
ATOM     29  C   UNL     1      -2.673  13.060  21.971  0.00  0.00    +0.000 A 
ATOM     30  C   UNL     1      -3.934  13.596  22.326  0.00  0.00    +0.000 A 
ATOM     31  C   UNL     1      -4.362  12.881  23.420  0.00  0.00    +0.000 A 
ATOM     32  O   UNL     1      -3.445  11.940  23.763  0.00  0.00    +0.000 OA
ENDBRANCH  27  28
ENDBRANCH  25  27
ENDBRANCH  22  25
ENDBRANCH   7  22
TORSDOF 5
ENDMDL
MODEL 9
REMARK VINA RESULT:      -8.8      2.368      3.342
REMARK  Name = 
REMARK  7 active torsions:
REMARK  status: ('A' for Active; 'I' for Inactive)
REMARK    1  A    between atoms: C_1  and  C_2
REMARK    2  A    between atoms: C_5  and  C_6
REMARK    3  A    between atoms: C_9  and  C_10
REMARK    4  A    between atoms: C_21  and  S_22
REMARK    5  A    between atoms: S_22  and  N_25
REMARK    6  A    between atoms: N_25  and  C_26
REMARK    7  A    between atoms: C_26  and  C_27
REMARK                            x       y       z     vdW  Elec       q    Type
REMARK                         _______ _______ _______ _____ _____    ______ ____
ROOT
ATOM      1  C   UNL     1      -0.122   9.858  21.572  0.00  0.00    +0.000 C 
ATOM      2  C   UNL     1       0.739   8.992  20.696  0.00  0.00    +0.000 A 
ATOM      3  C   UNL     1       1.065   7.705  21.167  0.00  0.00    +0.000 A 
ATOM      4  C   UNL     1       1.929   6.867  20.455  0.00  0.00    +0.000 A 
ATOM      5  C   UNL     1       2.471   7.275  19.232  0.00  0.00    +0.000 A 
ATOM      6  C   UNL     1       2.075   8.506  18.710  0.00  0.00    +0.000 A 
ATOM      7  C   UNL     1       1.269   9.389  19.456  0.00  0.00    +0.000 A 
ENDROOT
BRANCH   5   8
ATOM      8  C   UNL     1       3.415   6.356  18.509  0.00  0.00    +0.000 A 
ATOM      9  N   UNL     1       4.581   6.875  18.203  0.00  0.00    +0.000 NA
ATOM     10  N   UNL     1       5.482   6.033  17.619  0.00  0.00    +0.000 N 
ATOM     11  C   UNL     1       6.766   6.311  17.212  0.00  0.00    +0.000 A 
ATOM     12  C   UNL     1       7.408   7.636  17.328  0.00  0.00    +0.000 C 
ATOM     13  N   UNL     1       7.315   5.214  16.724  0.00  0.00    +0.000 NA
ATOM     14  N   UNL     1       6.390   4.198  16.812  0.00  0.00    +0.000 NA
ATOM     15  C   UNL     1       5.302   4.701  17.351  0.00  0.00    +0.000 A 
ATOM     16  C   UNL     1       4.032   4.092  17.654  0.00  0.00    +0.000 A 
ATOM     17  C   UNL     1       3.793   2.736  17.402  0.00  0.00    +0.000 A 
ATOM     18  C   UNL     1       2.542   2.189  17.678  0.00  0.00    +0.000 A 
ATOM     19  C   UNL     1       1.521   3.008  18.150  0.00  0.00    +0.000 A 
ATOM     20  C   UNL     1       1.749   4.372  18.368  0.00  0.00    +0.000 A 
ATOM     21  C   UNL     1       3.027   4.918  18.187  0.00  0.00    +0.000 A 
ENDBRANCH   5   8
BRANCH   7  22
ATOM     22  S   UNL     1       1.176  11.063  18.811  0.00  0.00    +0.000 S 
ATOM     23  O   UNL     1       2.204  11.248  17.813  0.00  0.00    +0.000 OA
ATOM     24  O   UNL     1      -0.218  11.295  18.496  0.00  0.00    +0.000 OA
BRANCH  22  25
ATOM     25  N   UNL     1       1.536  12.013  20.156  0.00  0.00    +0.000 NA
ATOM     26  H   UNL     1       2.533  12.031  20.370  0.00  0.00    +0.000 HD
BRANCH  25  27
ATOM     27  C   UNL     1       0.947  13.357  20.143  0.00  0.00    +0.000 C 
BRANCH  27  28
ATOM     28  C   UNL     1       1.881  14.289  19.469  0.00  0.00    +0.000 A 
ATOM     29  C   UNL     1       1.705  15.429  18.713  0.00  0.00    +0.000 A 
ATOM     30  C   UNL     1       2.992  15.807  18.262  0.00  0.00    +0.000 A 
ATOM     31  C   UNL     1       3.871  14.889  18.788  0.00  0.00    +0.000 A 
ATOM     32  O   UNL     1       3.206  13.969  19.534  0.00  0.00    +0.000 OA
ENDBRANCH  27  28
ENDBRANCH  25  27
ENDBRANCH  22  25
ENDBRANCH   7  22
TORSDOF 5
ENDMDL
