MODEL 1
REMARK VINA RESULT:      -8.3      0.000      0.000
REMARK  Name = 
REMARK  3 active torsions:
REMARK  status: ('A' for Active; 'I' for Inactive)
REMARK    1  A    between atoms: C_1  and  C_2
REMARK    2  A    between atoms: C_4  and  C_5
REMARK    3  A    between atoms: C_11  and  C_12
REMARK                            x       y       z     vdW  Elec       q    Type
REMARK                         _______ _______ _______ _____ _____    ______ ____
ROOT
ATOM      1  C   UNL     1       5.786   4.424  16.893  0.00  0.00    +0.000 C 
ATOM      2  O   UNL     1       6.225   4.975  17.896  0.00  0.00    +0.000 OA
ATOM      3  N   UNL     1       4.716   3.560  16.839  0.00  0.00    +0.000 N 
ATOM      4  C   UNL     1       3.923   3.179  17.889  0.00  0.00    +0.000 A 
ATOM      5  N   UNL     1       3.096   2.160  17.825  0.00  0.00    +0.000 NA
ATOM      6  N   UNL     1       2.416   1.963  19.011  0.00  0.00    +0.000 NA
ATOM      7  C   UNL     1       2.712   2.879  19.915  0.00  0.00    +0.000 A 
ATOM      8  S   UNL     1       3.866   4.033  19.363  0.00  0.00    +0.000 S 
ATOM      9  H   UNL     1       4.557   3.065  15.966  0.00  0.00    +0.000 HD
ENDROOT
BRANCH   1  13
ATOM     10  C   UNL     1       7.241   4.304  12.019  0.00  0.00    +0.000 C 
ATOM     11  C   UNL     1       7.002   4.498  13.461  0.00  0.00    +0.000 A 
ATOM     12  C   UNL     1       6.118   3.975  14.368  0.00  0.00    +0.000 A 
ATOM     13  C   UNL     1       6.436   4.615  15.593  0.00  0.00    +0.000 A 
ATOM     14  N   UNL     1       7.456   5.478  15.425  0.00  0.00    +0.000 NA
ATOM     15  O   UNL     1       7.808   5.393  14.090  0.00  0.00    +0.000 OA
ENDBRANCH   1  13
BRANCH   7  16
ATOM     16  C   UNL     1       2.149   2.984  21.291  0.00  0.00    +0.000 C 
ATOM     17  F   UNL     1       2.305   4.219  21.834  0.00  0.00    +0.000 F 
ATOM     18  F   UNL     1       0.813   2.719  21.322  0.00  0.00    +0.000 F 
ATOM     19  F   UNL     1       2.733   2.107  22.152  0.00  0.00    +0.000 F 
ENDBRANCH   7  16
TORSDOF 2
ENDMDL
MODEL 2
REMARK VINA RESULT:      -8.2      0.588      1.136
REMARK  Name = 
REMARK  3 active torsions:
REMARK  status: ('A' for Active; 'I' for Inactive)
REMARK    1  A    between atoms: C_1  and  C_2
REMARK    2  A    between atoms: C_4  and  C_5
REMARK    3  A    between atoms: C_11  and  C_12
REMARK                            x       y       z     vdW  Elec       q    Type
REMARK                         _______ _______ _______ _____ _____    ______ ____
ROOT
ATOM      1  C   UNL     1       5.424   4.774  16.725  0.00  0.00    +0.000 C 
ATOM      2  O   UNL     1       5.427   5.722  17.502  0.00  0.00    +0.000 OA
ATOM      3  N   UNL     1       4.768   3.577  16.899  0.00  0.00    +0.000 N 
ATOM      4  C   UNL     1       3.971   3.233  17.959  0.00  0.00    +0.000 A 
ATOM      5  N   UNL     1       3.594   1.996  18.195  0.00  0.00    +0.000 NA
ATOM      6  N   UNL     1       2.807   1.896  19.326  0.00  0.00    +0.000 NA
ATOM      7  C   UNL     1       2.569   3.074  19.874  0.00  0.00    +0.000 A 
ATOM      8  S   UNL     1       3.319   4.380  19.038  0.00  0.00    +0.000 S 
ATOM      9  H   UNL     1       4.974   2.829  16.244  0.00  0.00    +0.000 HD
ENDROOT
BRANCH   1  13
ATOM     10  C   UNL     1       7.285   4.256  12.017  0.00  0.00    +0.000 C 
ATOM     11  C   UNL     1       6.944   4.542  13.423  0.00  0.00    +0.000 A 
ATOM     12  C   UNL     1       5.921   4.177  14.258  0.00  0.00    +0.000 A 
ATOM     13  C   UNL     1       6.208   4.824  15.487  0.00  0.00    +0.000 A 
ATOM     14  N   UNL     1       7.344   5.540  15.390  0.00  0.00    +0.000 NA
ATOM     15  O   UNL     1       7.802   5.353  14.098  0.00  0.00    +0.000 OA
ENDBRANCH   1  13
BRANCH   7  16
ATOM     16  C   UNL     1       1.742   3.337  21.086  0.00  0.00    +0.000 C 
ATOM     17  F   UNL     1       1.409   2.203  21.756  0.00  0.00    +0.000 F 
ATOM     18  F   UNL     1       2.383   4.137  21.983  0.00  0.00    +0.000 F 
ATOM     19  F   UNL     1       0.571   3.962  20.783  0.00  0.00    +0.000 F 
ENDBRANCH   7  16
TORSDOF 2
ENDMDL
MODEL 3
REMARK VINA RESULT:      -7.7      1.051      1.095
REMARK  Name = 
REMARK  3 active torsions:
REMARK  status: ('A' for Active; 'I' for Inactive)
REMARK    1  A    between atoms: C_1  and  C_2
REMARK    2  A    between atoms: C_4  and  C_5
REMARK    3  A    between atoms: C_11  and  C_12
REMARK                            x       y       z     vdW  Elec       q    Type
REMARK                         _______ _______ _______ _____ _____    ______ ____
ROOT
ATOM      1  C   UNL     1       5.039   4.862  16.437  0.00  0.00    +0.000 C 
ATOM      2  O   UNL     1       4.470   5.902  16.748  0.00  0.00    +0.000 OA
ATOM      3  N   UNL     1       5.000   3.672  17.127  0.00  0.00    +0.000 N 
ATOM      4  C   UNL     1       4.294   3.418  18.272  0.00  0.00    +0.000 A 
ATOM      5  N   UNL     1       4.505   2.358  19.020  0.00  0.00    +0.000 NA
ATOM      6  N   UNL     1       3.681   2.327  20.129  0.00  0.00    +0.000 NA
ATOM      7  C   UNL     1       2.833   3.339  20.148  0.00  0.00    +0.000 A 
ATOM      8  S   UNL     1       3.012   4.406  18.808  0.00  0.00    +0.000 S 
ATOM      9  H   UNL     1       5.638   2.938  16.832  0.00  0.00    +0.000 HD
ENDROOT
BRANCH   1  13
ATOM     10  C   UNL     1       7.178   3.998  11.901  0.00  0.00    +0.000 C 
ATOM     11  C   UNL     1       6.758   4.380  13.262  0.00  0.00    +0.000 A 
ATOM     12  C   UNL     1       5.671   4.099  14.048  0.00  0.00    +0.000 A 
ATOM     13  C   UNL     1       5.903   4.811  15.252  0.00  0.00    +0.000 A 
ATOM     14  N   UNL     1       7.066   5.485  15.189  0.00  0.00    +0.000 NA
ATOM     15  O   UNL     1       7.599   5.204  13.943  0.00  0.00    +0.000 OA
ENDBRANCH   1  13
BRANCH   7  16
ATOM     16  C   UNL     1       1.791   3.603  21.181  0.00  0.00    +0.000 C 
ATOM     17  F   UNL     1       2.241   4.385  22.198  0.00  0.00    +0.000 F 
ATOM     18  F   UNL     1       0.703   4.238  20.665  0.00  0.00    +0.000 F 
ATOM     19  F   UNL     1       1.332   2.456  21.752  0.00  0.00    +0.000 F 
ENDBRANCH   7  16
TORSDOF 2
ENDMDL
MODEL 4
REMARK VINA RESULT:      -7.0      0.996      1.374
REMARK  Name = 
REMARK  3 active torsions:
REMARK  status: ('A' for Active; 'I' for Inactive)
REMARK    1  A    between atoms: C_1  and  C_2
REMARK    2  A    between atoms: C_4  and  C_5
REMARK    3  A    between atoms: C_11  and  C_12
REMARK                            x       y       z     vdW  Elec       q    Type
REMARK                         _______ _______ _______ _____ _____    ______ ____
ROOT
ATOM      1  C   UNL     1       5.567   4.154  16.777  0.00  0.00    +0.000 C 
ATOM      2  O   UNL     1       6.162   4.547  17.775  0.00  0.00    +0.000 OA
ATOM      3  N   UNL     1       4.368   3.480  16.757  0.00  0.00    +0.000 N 
ATOM      4  C   UNL     1       3.600   3.150  17.842  0.00  0.00    +0.000 A 
ATOM      5  N   UNL     1       2.613   2.284  17.780  0.00  0.00    +0.000 NA
ATOM      6  N   UNL     1       1.997   2.105  19.003  0.00  0.00    +0.000 NA
ATOM      7  C   UNL     1       2.505   2.889  19.937  0.00  0.00    +0.000 A 
ATOM      8  S   UNL     1       3.792   3.883  19.368  0.00  0.00    +0.000 S 
ATOM      9  H   UNL     1       4.067   3.087  15.869  0.00  0.00    +0.000 HD
ENDROOT
BRANCH   1  13
ATOM     10  C   UNL     1       8.255   5.583  12.700  0.00  0.00    +0.000 C 
ATOM     11  C   UNL     1       7.357   5.023  13.727  0.00  0.00    +0.000 A 
ATOM     12  C   UNL     1       7.181   5.234  15.070  0.00  0.00    +0.000 A 
ATOM     13  C   UNL     1       6.145   4.341  15.443  0.00  0.00    +0.000 A 
ATOM     14  N   UNL     1       5.725   3.632  14.378  0.00  0.00    +0.000 NA
ATOM     15  O   UNL     1       6.484   4.070  13.307  0.00  0.00    +0.000 OA
ENDBRANCH   1  13
BRANCH   7  16
ATOM     16  C   UNL     1       2.067   2.973  21.360  0.00  0.00    +0.000 C 
ATOM     17  F   UNL     1       2.716   2.092  22.166  0.00  0.00    +0.000 F 
ATOM     18  F   UNL     1       2.281   4.208  21.893  0.00  0.00    +0.000 F 
ATOM     19  F   UNL     1       0.738   2.718  21.503  0.00  0.00    +0.000 F 
ENDBRANCH   7  16
TORSDOF 2
ENDMDL
MODEL 5
REMARK VINA RESULT:      -6.9      1.640      1.807
REMARK  Name = 
REMARK  3 active torsions:
REMARK  status: ('A' for Active; 'I' for Inactive)
REMARK    1  A    between atoms: C_1  and  C_2
REMARK    2  A    between atoms: C_4  and  C_5
REMARK    3  A    between atoms: C_11  and  C_12
REMARK                            x       y       z     vdW  Elec       q    Type
REMARK                         _______ _______ _______ _____ _____    ______ ____
ROOT
ATOM      1  C   UNL     1       5.397   4.107  16.401  0.00  0.00    +0.000 C 
ATOM      2  O   UNL     1       5.016   2.942  16.391  0.00  0.00    +0.000 OA
ATOM      3  N   UNL     1       5.018   5.081  17.295  0.00  0.00    +0.000 N 
ATOM      4  C   UNL     1       4.168   4.925  18.358  0.00  0.00    +0.000 A 
ATOM      5  N   UNL     1       3.643   5.940  19.006  0.00  0.00    +0.000 NA
ATOM      6  N   UNL     1       2.808   5.533  20.029  0.00  0.00    +0.000 NA
ATOM      7  C   UNL     1       2.778   4.218  20.154  0.00  0.00    +0.000 A 
ATOM      8  S   UNL     1       3.763   3.400  19.003  0.00  0.00    +0.000 S 
ATOM      9  H   UNL     1       5.299   6.037  17.094  0.00  0.00    +0.000 HD
ENDROOT
BRANCH   1  13
ATOM     10  C   UNL     1       7.844   5.244  12.087  0.00  0.00    +0.000 C 
ATOM     11  C   UNL     1       7.311   5.042  13.447  0.00  0.00    +0.000 A 
ATOM     12  C   UNL     1       6.243   4.363  13.971  0.00  0.00    +0.000 A 
ATOM     13  C   UNL     1       6.312   4.601  15.367  0.00  0.00    +0.000 A 
ATOM     14  N   UNL     1       7.366   5.384  15.662  0.00  0.00    +0.000 NA
ATOM     15  O   UNL     1       7.990   5.650  14.456  0.00  0.00    +0.000 OA
ENDBRANCH   1  13
BRANCH   7  16
ATOM     16  C   UNL     1       2.003   3.441  21.164  0.00  0.00    +0.000 C 
ATOM     17  F   UNL     1       0.659   3.568  21.012  0.00  0.00    +0.000 F 
ATOM     18  F   UNL     1       2.270   2.107  21.102  0.00  0.00    +0.000 F 
ATOM     19  F   UNL     1       2.286   3.830  22.437  0.00  0.00    +0.000 F 
ENDBRANCH   7  16
TORSDOF 2
ENDMDL
MODEL 6
REMARK VINA RESULT:      -6.8      2.267      2.470
REMARK  Name = 
REMARK  3 active torsions:
REMARK  status: ('A' for Active; 'I' for Inactive)
REMARK    1  A    between atoms: C_1  and  C_2
REMARK    2  A    between atoms: C_4  and  C_5
REMARK    3  A    between atoms: C_11  and  C_12
REMARK                            x       y       z     vdW  Elec       q    Type
REMARK                         _______ _______ _______ _____ _____    ______ ____
ROOT
ATOM      1  C   UNL     1       5.149   4.565  16.152  0.00  0.00    +0.000 C 
ATOM      2  O   UNL     1       4.805   3.460  16.558  0.00  0.00    +0.000 OA
ATOM      3  N   UNL     1       4.716   5.780  16.631  0.00  0.00    +0.000 N 
ATOM      4  C   UNL     1       3.845   5.983  17.669  0.00  0.00    +0.000 A 
ATOM      5  N   UNL     1       3.271   7.142  17.902  0.00  0.00    +0.000 NA
ATOM      6  N   UNL     1       2.425   7.097  18.993  0.00  0.00    +0.000 NA
ATOM      7  C   UNL     1       2.433   5.915  19.582  0.00  0.00    +0.000 A 
ATOM      8  S   UNL     1       3.473   4.777  18.814  0.00  0.00    +0.000 S 
ATOM      9  H   UNL     1       4.971   6.610  16.103  0.00  0.00    +0.000 HD
ENDROOT
BRANCH   1  13
ATOM     10  C   UNL     1       7.563   4.319  11.680  0.00  0.00    +0.000 C 
ATOM     11  C   UNL     1       7.053   4.526  13.048  0.00  0.00    +0.000 A 
ATOM     12  C   UNL     1       5.945   4.104  13.736  0.00  0.00    +0.000 A 
ATOM     13  C   UNL     1       6.073   4.690  15.021  0.00  0.00    +0.000 A 
ATOM     14  N   UNL     1       7.197   5.426  15.096  0.00  0.00    +0.000 NA
ATOM     15  O   UNL     1       7.808   5.313  13.860  0.00  0.00    +0.000 OA
ENDBRANCH   1  13
BRANCH   7  16
ATOM     16  C   UNL     1       1.659   5.523  20.794  0.00  0.00    +0.000 C 
ATOM     17  F   UNL     1       1.113   6.587  21.440  0.00  0.00    +0.000 F 
ATOM     18  F   UNL     1       0.626   4.686  20.498  0.00  0.00    +0.000 F 
ATOM     19  F   UNL     1       2.430   4.872  21.707  0.00  0.00    +0.000 F 
ENDBRANCH   7  16
TORSDOF 2
ENDMDL
MODEL 7
REMARK VINA RESULT:      -6.8      5.839      8.092
REMARK  Name = 
REMARK  3 active torsions:
REMARK  status: ('A' for Active; 'I' for Inactive)
REMARK    1  A    between atoms: C_1  and  C_2
REMARK    2  A    between atoms: C_4  and  C_5
REMARK    3  A    between atoms: C_11  and  C_12
REMARK                            x       y       z     vdW  Elec       q    Type
REMARK                         _______ _______ _______ _____ _____    ______ ____
ROOT
ATOM      1  C   UNL     1       1.470   8.233  20.469  0.00  0.00    +0.000 C 
ATOM      2  O   UNL     1       1.676   8.641  19.332  0.00  0.00    +0.000 OA
ATOM      3  N   UNL     1       1.755   6.975  20.949  0.00  0.00    +0.000 N 
ATOM      4  C   UNL     1       2.349   5.955  20.256  0.00  0.00    +0.000 A 
ATOM      5  N   UNL     1       2.351   4.711  20.680  0.00  0.00    +0.000 NA
ATOM      6  N   UNL     1       2.999   3.861  19.805  0.00  0.00    +0.000 NA
ATOM      7  C   UNL     1       3.516   4.505  18.774  0.00  0.00    +0.000 A 
ATOM      8  S   UNL     1       3.217   6.201  18.810  0.00  0.00    +0.000 S 
ATOM      9  H   UNL     1       1.395   6.731  21.867  0.00  0.00    +0.000 HD
ENDROOT
BRANCH   1  13
ATOM     10  C   UNL     1      -1.557  11.413  23.042  0.00  0.00    +0.000 C 
ATOM     11  C   UNL     1      -0.548  10.484  22.502  0.00  0.00    +0.000 A 
ATOM     12  C   UNL     1      -0.348   9.881  21.287  0.00  0.00    +0.000 A 
ATOM     13  C   UNL     1       0.818   9.093  21.463  0.00  0.00    +0.000 A 
ATOM     14  N   UNL     1       1.289   9.217  22.718  0.00  0.00    +0.000 NA
ATOM     15  O   UNL     1       0.433  10.094  23.359  0.00  0.00    +0.000 OA
ENDBRANCH   1  13
BRANCH   7  16
ATOM     16  C   UNL     1       4.297   3.906  17.654  0.00  0.00    +0.000 C 
ATOM     17  F   UNL     1       4.135   4.572  16.481  0.00  0.00    +0.000 F 
ATOM     18  F   UNL     1       5.635   3.897  17.907  0.00  0.00    +0.000 F 
ATOM     19  F   UNL     1       3.942   2.614  17.415  0.00  0.00    +0.000 F 
ENDBRANCH   7  16
TORSDOF 2
ENDMDL
MODEL 8
REMARK VINA RESULT:      -6.7      6.057      8.290
REMARK  Name = 
REMARK  3 active torsions:
REMARK  status: ('A' for Active; 'I' for Inactive)
REMARK    1  A    between atoms: C_1  and  C_2
REMARK    2  A    between atoms: C_4  and  C_5
REMARK    3  A    between atoms: C_11  and  C_12
REMARK                            x       y       z     vdW  Elec       q    Type
REMARK                         _______ _______ _______ _____ _____    ______ ____
ROOT
ATOM      1  C   UNL     1       1.366   8.514  20.347  0.00  0.00    +0.000 C 
ATOM      2  O   UNL     1       1.480   8.989  19.223  0.00  0.00    +0.000 OA
ATOM      3  N   UNL     1       1.760   7.257  20.745  0.00  0.00    +0.000 N 
ATOM      4  C   UNL     1       2.381   6.314  19.969  0.00  0.00    +0.000 A 
ATOM      5  N   UNL     1       2.489   5.055  20.327  0.00  0.00    +0.000 NA
ATOM      6  N   UNL     1       3.141   4.294  19.375  0.00  0.00    +0.000 NA
ATOM      7  C   UNL     1       3.554   5.021  18.353  0.00  0.00    +0.000 A 
ATOM      8  S   UNL     1       3.147   6.689  18.493  0.00  0.00    +0.000 S 
ATOM      9  H   UNL     1       1.470   6.945  21.668  0.00  0.00    +0.000 HD
ENDROOT
BRANCH   1  13
ATOM     10  C   UNL     1      -1.663  11.429  23.214  0.00  0.00    +0.000 C 
ATOM     11  C   UNL     1      -0.651  10.560  22.586  0.00  0.00    +0.000 A 
ATOM     12  C   UNL     1      -0.458  10.066  21.322  0.00  0.00    +0.000 A 
ATOM     13  C   UNL     1       0.716   9.277  21.418  0.00  0.00    +0.000 A 
ATOM     14  N   UNL     1       1.199   9.297  22.674  0.00  0.00    +0.000 NA
ATOM     15  O   UNL     1       0.341  10.107  23.397  0.00  0.00    +0.000 OA
ENDBRANCH   1  13
BRANCH   7  16
ATOM     16  C   UNL     1       4.308   4.532  17.164  0.00  0.00    +0.000 C 
ATOM     17  F   UNL     1       5.507   3.981  17.488  0.00  0.00    +0.000 F 
ATOM     18  F   UNL     1       3.622   3.578  16.476  0.00  0.00    +0.000 F 
ATOM     19  F   UNL     1       4.571   5.531  16.277  0.00  0.00    +0.000 F 
ENDBRANCH   7  16
TORSDOF 2
ENDMDL
MODEL 9
REMARK VINA RESULT:      -6.7      6.246      7.286
REMARK  Name = 
REMARK  3 active torsions:
REMARK  status: ('A' for Active; 'I' for Inactive)
REMARK    1  A    between atoms: C_1  and  C_2
REMARK    2  A    between atoms: C_4  and  C_5
REMARK    3  A    between atoms: C_11  and  C_12
REMARK                            x       y       z     vdW  Elec       q    Type
REMARK                         _______ _______ _______ _____ _____    ______ ____
ROOT
ATOM      1  C   UNL     1       8.471   9.289  18.415  0.00  0.00    +0.000 C 
ATOM      2  O   UNL     1       7.648   9.637  17.576  0.00  0.00    +0.000 OA
ATOM      3  N   UNL     1       8.645   8.016  18.908  0.00  0.00    +0.000 N 
ATOM      4  C   UNL     1       7.953   6.896  18.531  0.00  0.00    +0.000 A 
ATOM      5  N   UNL     1       7.980   5.777  19.219  0.00  0.00    +0.000 NA
ATOM      6  N   UNL     1       7.193   4.793  18.650  0.00  0.00    +0.000 NA
ATOM      7  C   UNL     1       6.643   5.189  17.516  0.00  0.00    +0.000 A 
ATOM      8  S   UNL     1       7.047   6.808  17.090  0.00  0.00    +0.000 S 
ATOM      9  H   UNL     1       9.264   7.903  19.705  0.00  0.00    +0.000 HD
ENDROOT
BRANCH   1  13
ATOM     10  C   UNL     1      11.926  12.874  19.464  0.00  0.00    +0.000 C 
ATOM     11  C   UNL     1      10.886  11.831  19.400  0.00  0.00    +0.000 A 
ATOM     12  C   UNL     1      10.326  11.091  18.392  0.00  0.00    +0.000 A 
ATOM     13  C   UNL     1       9.364  10.273  19.036  0.00  0.00    +0.000 A 
ATOM     14  N   UNL     1       9.347  10.514  20.361  0.00  0.00    +0.000 NA
ATOM     15  O   UNL     1      10.308  11.485  20.581  0.00  0.00    +0.000 OA
ENDBRANCH   1  13
BRANCH   7  16
ATOM     16  C   UNL     1       5.758   4.380  16.630  0.00  0.00    +0.000 C 
ATOM     17  F   UNL     1       6.451   3.600  15.760  0.00  0.00    +0.000 F 
ATOM     18  F   UNL     1       4.951   3.540  17.336  0.00  0.00    +0.000 F 
ATOM     19  F   UNL     1       4.935   5.160  15.877  0.00  0.00    +0.000 F 
ENDBRANCH   7  16
TORSDOF 2
ENDMDL
