MODEL 1
REMARK VINA RESULT:      -8.0      0.000      0.000
REMARK  Name = 
REMARK  10 active torsions:
REMARK  status: ('A' for Active; 'I' for Inactive)
REMARK    1  A    between atoms: C_1  and  O_2
REMARK    2  A    between atoms: O_2  and  C_3
REMARK    3  A    between atoms: C_8  and  C_9
REMARK    4  A    between atoms: C_11  and  O_12
REMARK    5  A    between atoms: O_12  and  C_13
REMARK    6  A    between atoms: C_13  and  C_14
REMARK    7  A    between atoms: C_17  and  C_18
REMARK    8  A    between atoms: C_18  and  C_19
REMARK    9  A    between atoms: C_18  and  C_20
REMARK   10  A    between atoms: C_18  and  C_21
REMARK                            x       y       z     vdW  Elec       q    Type
REMARK                         _______ _______ _______ _____ _____    ______ ____
ROOT
ATOM      1  C   UNL     1       6.461   5.859  16.632  0.00  0.00    +0.000 A 
ATOM      2  C   UNL     1       6.504   4.544  16.185  0.00  0.00    +0.000 A 
ATOM      3  C   UNL     1       5.442   3.678  16.461  0.00  0.00    +0.000 A 
ATOM      4  C   UNL     1       4.329   4.085  17.178  0.00  0.00    +0.000 A 
ATOM      5  N   UNL     1       3.361   3.182  17.406  0.00  0.00    +0.000 NA
ATOM      6  C   UNL     1       2.274   3.561  18.107  0.00  0.00    +0.000 A 
ATOM      7  C   UNL     1       1.220   2.524  18.355  0.00  0.00    +0.000 C 
ATOM      8  C   UNL     1       2.110   4.846  18.598  0.00  0.00    +0.000 A 
ATOM      9  C   UNL     1       3.111   5.786  18.363  0.00  0.00    +0.000 A 
ATOM     10  C   UNL     1       4.264   5.411  17.637  0.00  0.00    +0.000 A 
ATOM     11  C   UNL     1       5.342   6.289  17.350  0.00  0.00    +0.000 A 
ENDROOT
BRANCH   1  13
ATOM     12  C   UNL     1       7.645   7.729  17.490  0.00  0.00    +0.000 C 
ATOM     13  O   UNL     1       7.435   6.799  16.433  0.00  0.00    +0.000 OA
ENDBRANCH   1  13
BRANCH   9  14
ATOM     14  O   UNL     1       3.060   7.083  18.804  0.00  0.00    +0.000 OA
BRANCH  14  15
ATOM     15  C   UNL     1       2.283   7.357  19.966  0.00  0.00    +0.000 C 
BRANCH  15  16
ATOM     16  C   UNL     1       1.424   8.553  19.660  0.00  0.00    +0.000 A 
ATOM     17  C   UNL     1       0.594   9.090  20.645  0.00  0.00    +0.000 A 
ATOM     18  C   UNL     1      -0.251  10.163  20.351  0.00  0.00    +0.000 A 
ATOM     19  C   UNL     1      -0.307  10.724  19.063  0.00  0.00    +0.000 A 
ATOM     20  C   UNL     1       0.536  10.171  18.082  0.00  0.00    +0.000 A 
ATOM     21  C   UNL     1       1.388   9.100  18.375  0.00  0.00    +0.000 A 
BRANCH  19  22
ATOM     22  C   UNL     1      -1.239  11.900  18.724  0.00  0.00    +0.000 C 
ATOM     23  C   UNL     1      -0.474  13.196  18.373  0.00  0.00    +0.000 C 
ATOM     24  C   UNL     1      -2.117  11.533  17.508  0.00  0.00    +0.000 C 
ATOM     25  C   UNL     1      -2.159  12.225  19.920  0.00  0.00    +0.000 C 
ENDBRANCH  19  22
ENDBRANCH  15  16
ENDBRANCH  14  15
ENDBRANCH   9  14
TORSDOF 5
ENDMDL
MODEL 2
REMARK VINA RESULT:      -8.0      3.509      8.513
REMARK  Name = 
REMARK  10 active torsions:
REMARK  status: ('A' for Active; 'I' for Inactive)
REMARK    1  A    between atoms: C_1  and  O_2
REMARK    2  A    between atoms: O_2  and  C_3
REMARK    3  A    between atoms: C_8  and  C_9
REMARK    4  A    between atoms: C_11  and  O_12
REMARK    5  A    between atoms: O_12  and  C_13
REMARK    6  A    between atoms: C_13  and  C_14
REMARK    7  A    between atoms: C_17  and  C_18
REMARK    8  A    between atoms: C_18  and  C_19
REMARK    9  A    between atoms: C_18  and  C_20
REMARK   10  A    between atoms: C_18  and  C_21
REMARK                            x       y       z     vdW  Elec       q    Type
REMARK                         _______ _______ _______ _____ _____    ______ ____
ROOT
ATOM      1  C   UNL     1      -3.221  10.269  16.581  0.00  0.00    +0.000 A 
ATOM      2  C   UNL     1      -3.985  11.134  17.355  0.00  0.00    +0.000 A 
ATOM      3  C   UNL     1      -3.447  11.691  18.518  0.00  0.00    +0.000 A 
ATOM      4  C   UNL     1      -2.158  11.408  18.940  0.00  0.00    +0.000 A 
ATOM      5  N   UNL     1      -1.727  11.980  20.076  0.00  0.00    +0.000 NA
ATOM      6  C   UNL     1      -0.477  11.711  20.503  0.00  0.00    +0.000 A 
ATOM      7  C   UNL     1      -0.034  12.355  21.782  0.00  0.00    +0.000 C 
ATOM      8  C   UNL     1       0.385  10.872  19.815  0.00  0.00    +0.000 A 
ATOM      9  C   UNL     1      -0.058  10.278  18.635  0.00  0.00    +0.000 A 
ATOM     10  C   UNL     1      -1.367  10.539  18.170  0.00  0.00    +0.000 A 
ATOM     11  C   UNL     1      -1.916   9.979  16.987  0.00  0.00    +0.000 A 
ENDROOT
BRANCH   1  13
ATOM     12  C   UNL     1      -3.038  10.112  14.220  0.00  0.00    +0.000 C 
ATOM     13  O   UNL     1      -3.633   9.657  15.430  0.00  0.00    +0.000 OA
ENDBRANCH   1  13
BRANCH   9  14
ATOM     14  O   UNL     1       0.703   9.429  17.874  0.00  0.00    +0.000 OA
BRANCH  14  15
ATOM     15  C   UNL     1       2.048   9.196  18.288  0.00  0.00    +0.000 C 
BRANCH  15  16
ATOM     16  C   UNL     1       2.128   7.775  18.773  0.00  0.00    +0.000 A 
ATOM     17  C   UNL     1       2.370   6.738  17.871  0.00  0.00    +0.000 A 
ATOM     18  C   UNL     1       2.384   5.410  18.305  0.00  0.00    +0.000 A 
ATOM     19  C   UNL     1       2.143   5.073  19.648  0.00  0.00    +0.000 A 
ATOM     20  C   UNL     1       1.901   6.130  20.544  0.00  0.00    +0.000 A 
ATOM     21  C   UNL     1       1.891   7.461  20.114  0.00  0.00    +0.000 A 
BRANCH  19  22
ATOM     22  C   UNL     1       2.148   3.614  20.138  0.00  0.00    +0.000 C 
ATOM     23  C   UNL     1       2.149   3.494  21.679  0.00  0.00    +0.000 C 
ATOM     24  C   UNL     1       0.891   2.886  19.614  0.00  0.00    +0.000 C 
ATOM     25  C   UNL     1       3.402   2.874  19.624  0.00  0.00    +0.000 C 
ENDBRANCH  19  22
ENDBRANCH  15  16
ENDBRANCH  14  15
ENDBRANCH   9  14
TORSDOF 5
ENDMDL
MODEL 3
REMARK VINA RESULT:      -7.8      1.438      1.779
REMARK  Name = 
REMARK  10 active torsions:
REMARK  status: ('A' for Active; 'I' for Inactive)
REMARK    1  A    between atoms: C_1  and  O_2
REMARK    2  A    between atoms: O_2  and  C_3
REMARK    3  A    between atoms: C_8  and  C_9
REMARK    4  A    between atoms: C_11  and  O_12
REMARK    5  A    between atoms: O_12  and  C_13
REMARK    6  A    between atoms: C_13  and  C_14
REMARK    7  A    between atoms: C_17  and  C_18
REMARK    8  A    between atoms: C_18  and  C_19
REMARK    9  A    between atoms: C_18  and  C_20
REMARK   10  A    between atoms: C_18  and  C_21
REMARK                            x       y       z     vdW  Elec       q    Type
REMARK                         _______ _______ _______ _____ _____    ______ ____
ROOT
ATOM      1  C   UNL     1       4.619   5.157  16.747  0.00  0.00    +0.000 A 
ATOM      2  C   UNL     1       4.686   3.769  16.759  0.00  0.00    +0.000 A 
ATOM      3  C   UNL     1       4.028   3.046  17.758  0.00  0.00    +0.000 A 
ATOM      4  C   UNL     1       3.300   3.670  18.758  0.00  0.00    +0.000 A 
ATOM      5  N   UNL     1       2.710   2.896  19.683  0.00  0.00    +0.000 NA
ATOM      6  C   UNL     1       2.002   3.489  20.666  0.00  0.00    +0.000 A 
ATOM      7  C   UNL     1       1.369   2.596  21.690  0.00  0.00    +0.000 C 
ATOM      8  C   UNL     1       1.853   4.863  20.758  0.00  0.00    +0.000 A 
ATOM      9  C   UNL     1       2.463   5.669  19.799  0.00  0.00    +0.000 A 
ATOM     10  C   UNL     1       3.217   5.072  18.762  0.00  0.00    +0.000 A 
ATOM     11  C   UNL     1       3.882   5.802  17.743  0.00  0.00    +0.000 A 
ENDROOT
BRANCH   1  13
ATOM     12  C   UNL     1       6.056   5.342  14.868  0.00  0.00    +0.000 C 
ATOM     13  O   UNL     1       5.221   5.975  15.831  0.00  0.00    +0.000 OA
ENDBRANCH   1  13
BRANCH   9  14
ATOM     14  O   UNL     1       2.389   7.038  19.791  0.00  0.00    +0.000 OA
BRANCH  14  15
ATOM     15  C   UNL     1       1.788   7.674  20.917  0.00  0.00    +0.000 C 
BRANCH  15  16
ATOM     16  C   UNL     1       1.028   8.866  20.405  0.00  0.00    +0.000 A 
ATOM     17  C   UNL     1       0.074   9.488  21.211  0.00  0.00    +0.000 A 
ATOM     18  C   UNL     1      -0.679  10.558  20.721  0.00  0.00    +0.000 A 
ATOM     19  C   UNL     1      -0.515  11.032  19.407  0.00  0.00    +0.000 A 
ATOM     20  C   UNL     1       0.451  10.394  18.608  0.00  0.00    +0.000 A 
ATOM     21  C   UNL     1       1.210   9.326  19.098  0.00  0.00    +0.000 A 
BRANCH  19  22
ATOM     22  C   UNL     1      -1.344  12.204  18.852  0.00  0.00    +0.000 C 
ATOM     23  C   UNL     1      -0.470  13.359  18.313  0.00  0.00    +0.000 C 
ATOM     24  C   UNL     1      -2.231  11.708  17.690  0.00  0.00    +0.000 C 
ATOM     25  C   UNL     1      -2.250  12.796  19.953  0.00  0.00    +0.000 C 
ENDBRANCH  19  22
ENDBRANCH  15  16
ENDBRANCH  14  15
ENDBRANCH   9  14
TORSDOF 5
ENDMDL
MODEL 4
REMARK VINA RESULT:      -7.8      1.751      3.927
REMARK  Name = 
REMARK  10 active torsions:
REMARK  status: ('A' for Active; 'I' for Inactive)
REMARK    1  A    between atoms: C_1  and  O_2
REMARK    2  A    between atoms: O_2  and  C_3
REMARK    3  A    between atoms: C_8  and  C_9
REMARK    4  A    between atoms: C_11  and  O_12
REMARK    5  A    between atoms: O_12  and  C_13
REMARK    6  A    between atoms: C_13  and  C_14
REMARK    7  A    between atoms: C_17  and  C_18
REMARK    8  A    between atoms: C_18  and  C_19
REMARK    9  A    between atoms: C_18  and  C_20
REMARK   10  A    between atoms: C_18  and  C_21
REMARK                            x       y       z     vdW  Elec       q    Type
REMARK                         _______ _______ _______ _____ _____    ______ ____
ROOT
ATOM      1  C   UNL     1       1.940   3.212  19.465  0.00  0.00    +0.000 A 
ATOM      2  C   UNL     1       2.509   2.131  18.802  0.00  0.00    +0.000 A 
ATOM      3  C   UNL     1       3.469   2.348  17.809  0.00  0.00    +0.000 A 
ATOM      4  C   UNL     1       3.881   3.622  17.451  0.00  0.00    +0.000 A 
ATOM      5  N   UNL     1       4.800   3.736  16.478  0.00  0.00    +0.000 NA
ATOM      6  C   UNL     1       5.207   4.969  16.115  0.00  0.00    +0.000 A 
ATOM      7  C   UNL     1       6.223   5.060  15.016  0.00  0.00    +0.000 C 
ATOM      8  C   UNL     1       4.721   6.123  16.706  0.00  0.00    +0.000 A 
ATOM      9  C   UNL     1       3.769   6.008  17.717  0.00  0.00    +0.000 A 
ATOM     10  C   UNL     1       3.320   4.727  18.111  0.00  0.00    +0.000 A 
ATOM     11  C   UNL     1       2.349   4.502  19.122  0.00  0.00    +0.000 A 
ENDROOT
BRANCH   1  13
ATOM     12  C   UNL     1       1.425   2.641  21.710  0.00  0.00    +0.000 C 
ATOM     13  O   UNL     1       0.991   3.132  20.447  0.00  0.00    +0.000 OA
ENDBRANCH   1  13
BRANCH   9  14
ATOM     14  O   UNL     1       3.214   7.079  18.370  0.00  0.00    +0.000 OA
BRANCH  14  15
ATOM     15  C   UNL     1       2.489   8.026  17.590  0.00  0.00    +0.000 C 
BRANCH  15  16
ATOM     16  C   UNL     1       1.784   8.948  18.546  0.00  0.00    +0.000 A 
ATOM     17  C   UNL     1       1.427   8.499  19.818  0.00  0.00    +0.000 A 
ATOM     18  C   UNL     1       0.718   9.329  20.690  0.00  0.00    +0.000 A 
ATOM     19  C   UNL     1       0.329  10.627  20.315  0.00  0.00    +0.000 A 
ATOM     20  C   UNL     1       0.696  11.064  19.029  0.00  0.00    +0.000 A 
ATOM     21  C   UNL     1       1.411  10.237  18.157  0.00  0.00    +0.000 A 
BRANCH  19  22
ATOM     22  C   UNL     1      -0.460  11.549  21.262  0.00  0.00    +0.000 C 
ATOM     23  C   UNL     1      -1.824  11.987  20.681  0.00  0.00    +0.000 C 
ATOM     24  C   UNL     1      -0.732  10.816  22.593  0.00  0.00    +0.000 C 
ATOM     25  C   UNL     1       0.341  12.835  21.557  0.00  0.00    +0.000 C 
ENDBRANCH  19  22
ENDBRANCH  15  16
ENDBRANCH  14  15
ENDBRANCH   9  14
TORSDOF 5
ENDMDL
MODEL 5
REMARK VINA RESULT:      -7.8      1.064      1.721
REMARK  Name = 
REMARK  10 active torsions:
REMARK  status: ('A' for Active; 'I' for Inactive)
REMARK    1  A    between atoms: C_1  and  O_2
REMARK    2  A    between atoms: O_2  and  C_3
REMARK    3  A    between atoms: C_8  and  C_9
REMARK    4  A    between atoms: C_11  and  O_12
REMARK    5  A    between atoms: O_12  and  C_13
REMARK    6  A    between atoms: C_13  and  C_14
REMARK    7  A    between atoms: C_17  and  C_18
REMARK    8  A    between atoms: C_18  and  C_19
REMARK    9  A    between atoms: C_18  and  C_20
REMARK   10  A    between atoms: C_18  and  C_21
REMARK                            x       y       z     vdW  Elec       q    Type
REMARK                         _______ _______ _______ _____ _____    ______ ____
ROOT
ATOM      1  C   UNL     1       6.780   6.176  16.753  0.00  0.00    +0.000 A 
ATOM      2  C   UNL     1       6.923   4.849  16.366  0.00  0.00    +0.000 A 
ATOM      3  C   UNL     1       5.884   3.942  16.587  0.00  0.00    +0.000 A 
ATOM      4  C   UNL     1       4.694   4.319  17.190  0.00  0.00    +0.000 A 
ATOM      5  N   UNL     1       3.755   3.377  17.372  0.00  0.00    +0.000 NA
ATOM      6  C   UNL     1       2.594   3.728  17.962  0.00  0.00    +0.000 A 
ATOM      7  C   UNL     1       1.573   2.649  18.163  0.00  0.00    +0.000 C 
ATOM      8  C   UNL     1       2.328   5.020  18.384  0.00  0.00    +0.000 A 
ATOM      9  C   UNL     1       3.301   6.000  18.196  0.00  0.00    +0.000 A 
ATOM     10  C   UNL     1       4.529   5.657  17.586  0.00  0.00    +0.000 A 
ATOM     11  C   UNL     1       5.585   6.576  17.355  0.00  0.00    +0.000 A 
ENDROOT
BRANCH   1  13
ATOM     12  C   UNL     1       7.791   8.139  17.624  0.00  0.00    +0.000 C 
ATOM     13  O   UNL     1       7.723   7.156  16.598  0.00  0.00    +0.000 OA
ENDBRANCH   1  13
BRANCH   9  14
ATOM     14  O   UNL     1       3.151   7.309  18.576  0.00  0.00    +0.000 OA
BRANCH  14  15
ATOM     15  C   UNL     1       2.297   8.133  17.787  0.00  0.00    +0.000 C 
BRANCH  15  16
ATOM     16  C   UNL     1       1.606   9.087  18.722  0.00  0.00    +0.000 A 
ATOM     17  C   UNL     1       1.295   8.691  20.024  0.00  0.00    +0.000 A 
ATOM     18  C   UNL     1       0.599   9.549  20.878  0.00  0.00    +0.000 A 
ATOM     19  C   UNL     1       0.177  10.823  20.458  0.00  0.00    +0.000 A 
ATOM     20  C   UNL     1       0.498  11.206  19.143  0.00  0.00    +0.000 A 
ATOM     21  C   UNL     1       1.200  10.351  18.287  0.00  0.00    +0.000 A 
BRANCH  19  22
ATOM     22  C   UNL     1      -0.598  11.774  21.386  0.00  0.00    +0.000 C 
ATOM     23  C   UNL     1      -0.879  11.164  22.778  0.00  0.00    +0.000 C 
ATOM     24  C   UNL     1       0.216  13.068  21.600  0.00  0.00    +0.000 C 
ATOM     25  C   UNL     1      -1.963  12.142  20.767  0.00  0.00    +0.000 C 
ENDBRANCH  19  22
ENDBRANCH  15  16
ENDBRANCH  14  15
ENDBRANCH   9  14
TORSDOF 5
ENDMDL
MODEL 6
REMARK VINA RESULT:      -7.8      1.036      1.867
REMARK  Name = 
REMARK  10 active torsions:
REMARK  status: ('A' for Active; 'I' for Inactive)
REMARK    1  A    between atoms: C_1  and  O_2
REMARK    2  A    between atoms: O_2  and  C_3
REMARK    3  A    between atoms: C_8  and  C_9
REMARK    4  A    between atoms: C_11  and  O_12
REMARK    5  A    between atoms: O_12  and  C_13
REMARK    6  A    between atoms: C_13  and  C_14
REMARK    7  A    between atoms: C_17  and  C_18
REMARK    8  A    between atoms: C_18  and  C_19
REMARK    9  A    between atoms: C_18  and  C_20
REMARK   10  A    between atoms: C_18  and  C_21
REMARK                            x       y       z     vdW  Elec       q    Type
REMARK                         _______ _______ _______ _____ _____    ______ ____
ROOT
ATOM      1  C   UNL     1       6.394   5.926  16.739  0.00  0.00    +0.000 A 
ATOM      2  C   UNL     1       6.429   4.594  16.342  0.00  0.00    +0.000 A 
ATOM      3  C   UNL     1       5.345   3.756  16.616  0.00  0.00    +0.000 A 
ATOM      4  C   UNL     1       4.216   4.207  17.282  0.00  0.00    +0.000 A 
ATOM      5  N   UNL     1       3.227   3.328  17.512  0.00  0.00    +0.000 NA
ATOM      6  C   UNL     1       2.125   3.751  18.163  0.00  0.00    +0.000 A 
ATOM      7  C   UNL     1       1.047   2.740  18.415  0.00  0.00    +0.000 C 
ATOM      8  C   UNL     1       1.967   5.055  18.601  0.00  0.00    +0.000 A 
ATOM      9  C   UNL     1       2.991   5.970  18.363  0.00  0.00    +0.000 A 
ATOM     10  C   UNL     1       4.160   5.550  17.688  0.00  0.00    +0.000 A 
ATOM     11  C   UNL     1       5.261   6.400  17.404  0.00  0.00    +0.000 A 
ENDROOT
BRANCH   1  13
ATOM     12  C   UNL     1       7.776   7.619  17.664  0.00  0.00    +0.000 C 
ATOM     13  O   UNL     1       7.389   6.842  16.536  0.00  0.00    +0.000 OA
ENDBRANCH   1  13
BRANCH   9  14
ATOM     14  O   UNL     1       2.948   7.283  18.753  0.00  0.00    +0.000 OA
BRANCH  14  15
ATOM     15  C   UNL     1       2.250   8.200  17.914  0.00  0.00    +0.000 C 
BRANCH  15  16
ATOM     16  C   UNL     1       1.448   9.105  18.808  0.00  0.00    +0.000 A 
ATOM     17  C   UNL     1       0.973  10.325  18.326  0.00  0.00    +0.000 A 
ATOM     18  C   UNL     1       0.281  11.199  19.168  0.00  0.00    +0.000 A 
ATOM     19  C   UNL     1       0.052  10.890  20.521  0.00  0.00    +0.000 A 
ATOM     20  C   UNL     1       0.538   9.656  20.991  0.00  0.00    +0.000 A 
ATOM     21  C   UNL     1       1.227   8.777  20.149  0.00  0.00    +0.000 A 
BRANCH  19  22
ATOM     22  C   UNL     1      -0.702  11.846  21.461  0.00  0.00    +0.000 C 
ATOM     23  C   UNL     1      -2.077  12.281  20.905  0.00  0.00    +0.000 C 
ATOM     24  C   UNL     1      -0.945  11.154  22.819  0.00  0.00    +0.000 C 
ATOM     25  C   UNL     1       0.119  13.132  21.698  0.00  0.00    +0.000 C 
ENDBRANCH  19  22
ENDBRANCH  15  16
ENDBRANCH  14  15
ENDBRANCH   9  14
TORSDOF 5
ENDMDL
MODEL 7
REMARK VINA RESULT:      -7.7      0.698      1.073
REMARK  Name = 
REMARK  10 active torsions:
REMARK  status: ('A' for Active; 'I' for Inactive)
REMARK    1  A    between atoms: C_1  and  O_2
REMARK    2  A    between atoms: O_2  and  C_3
REMARK    3  A    between atoms: C_8  and  C_9
REMARK    4  A    between atoms: C_11  and  O_12
REMARK    5  A    between atoms: O_12  and  C_13
REMARK    6  A    between atoms: C_13  and  C_14
REMARK    7  A    between atoms: C_17  and  C_18
REMARK    8  A    between atoms: C_18  and  C_19
REMARK    9  A    between atoms: C_18  and  C_20
REMARK   10  A    between atoms: C_18  and  C_21
REMARK                            x       y       z     vdW  Elec       q    Type
REMARK                         _______ _______ _______ _____ _____    ______ ____
ROOT
ATOM      1  C   UNL     1       6.803   6.634  16.976  0.00  0.00    +0.000 A 
ATOM      2  C   UNL     1       7.243   5.343  16.713  0.00  0.00    +0.000 A 
ATOM      3  C   UNL     1       6.364   4.265  16.846  0.00  0.00    +0.000 A 
ATOM      4  C   UNL     1       5.046   4.435  17.240  0.00  0.00    +0.000 A 
ATOM      5  N   UNL     1       4.276   3.341  17.352  0.00  0.00    +0.000 NA
ATOM      6  C   UNL     1       2.993   3.490  17.740  0.00  0.00    +0.000 A 
ATOM      7  C   UNL     1       2.166   2.247  17.869  0.00  0.00    +0.000 C 
ATOM      8  C   UNL     1       2.434   4.726  18.023  0.00  0.00    +0.000 A 
ATOM      9  C   UNL     1       3.231   5.864  17.906  0.00  0.00    +0.000 A 
ATOM     10  C   UNL     1       4.581   5.733  17.508  0.00  0.00    +0.000 A 
ATOM     11  C   UNL     1       5.476   6.826  17.367  0.00  0.00    +0.000 A 
ENDROOT
BRANCH   1  13
ATOM     12  C   UNL     1       8.136   8.244  18.101  0.00  0.00    +0.000 C 
ATOM     13  O   UNL     1       7.565   7.767  16.888  0.00  0.00    +0.000 OA
ENDBRANCH   1  13
BRANCH   9  14
ATOM     14  O   UNL     1       2.789   7.135  18.163  0.00  0.00    +0.000 OA
BRANCH  14  15
ATOM     15  C   UNL     1       2.370   7.434  19.493  0.00  0.00    +0.000 C 
BRANCH  15  16
ATOM     16  C   UNL     1       1.448   8.619  19.416  0.00  0.00    +0.000 A 
ATOM     17  C   UNL     1       0.865   9.130  20.577  0.00  0.00    +0.000 A 
ATOM     18  C   UNL     1      -0.040  10.191  20.507  0.00  0.00    +0.000 A 
ATOM     19  C   UNL     1      -0.405  10.768  19.278  0.00  0.00    +0.000 A 
ATOM     20  C   UNL     1       0.191  10.241  18.118  0.00  0.00    +0.000 A 
ATOM     21  C   UNL     1       1.102   9.182  18.185  0.00  0.00    +0.000 A 
BRANCH  19  22
ATOM     22  C   UNL     1      -1.407  11.932  19.186  0.00  0.00    +0.000 C 
ATOM     23  C   UNL     1      -1.994  12.333  20.559  0.00  0.00    +0.000 C 
ATOM     24  C   UNL     1      -0.707  13.175  18.597  0.00  0.00    +0.000 C 
ATOM     25  C   UNL     1      -2.596  11.553  18.277  0.00  0.00    +0.000 C 
ENDBRANCH  19  22
ENDBRANCH  15  16
ENDBRANCH  14  15
ENDBRANCH   9  14
TORSDOF 5
ENDMDL
MODEL 8
REMARK VINA RESULT:      -7.7      1.812      3.928
REMARK  Name = 
REMARK  10 active torsions:
REMARK  status: ('A' for Active; 'I' for Inactive)
REMARK    1  A    between atoms: C_1  and  O_2
REMARK    2  A    between atoms: O_2  and  C_3
REMARK    3  A    between atoms: C_8  and  C_9
REMARK    4  A    between atoms: C_11  and  O_12
REMARK    5  A    between atoms: O_12  and  C_13
REMARK    6  A    between atoms: C_13  and  C_14
REMARK    7  A    between atoms: C_17  and  C_18
REMARK    8  A    between atoms: C_18  and  C_19
REMARK    9  A    between atoms: C_18  and  C_20
REMARK   10  A    between atoms: C_18  and  C_21
REMARK                            x       y       z     vdW  Elec       q    Type
REMARK                         _______ _______ _______ _____ _____    ______ ____
ROOT
ATOM      1  C   UNL     1       2.008   2.819  19.409  0.00  0.00    +0.000 A 
ATOM      2  C   UNL     1       2.711   1.817  18.752  0.00  0.00    +0.000 A 
ATOM      3  C   UNL     1       3.673   2.152  17.795  0.00  0.00    +0.000 A 
ATOM      4  C   UNL     1       3.957   3.468  17.468  0.00  0.00    +0.000 A 
ATOM      5  N   UNL     1       4.889   3.697  16.528  0.00  0.00    +0.000 NA
ATOM      6  C   UNL     1       5.173   4.972  16.195  0.00  0.00    +0.000 A 
ATOM      7  C   UNL     1       6.207   5.190  15.133  0.00  0.00    +0.000 C 
ATOM      8  C   UNL     1       4.546   6.058  16.785  0.00  0.00    +0.000 A 
ATOM      9  C   UNL     1       3.579   5.824  17.761  0.00  0.00    +0.000 A 
ATOM     10  C   UNL     1       3.259   4.496  18.123  0.00  0.00    +0.000 A 
ATOM     11  C   UNL     1       2.286   4.152  19.098  0.00  0.00    +0.000 A 
ENDROOT
BRANCH   1  13
ATOM     12  C   UNL     1       1.440   2.784  21.714  0.00  0.00    +0.000 C 
ATOM     13  O   UNL     1       1.041   2.621  20.357  0.00  0.00    +0.000 OA
ENDBRANCH   1  13
BRANCH   9  14
ATOM     14  O   UNL     1       2.892   6.818  18.409  0.00  0.00    +0.000 OA
BRANCH  14  15
ATOM     15  C   UNL     1       2.739   8.064  17.734  0.00  0.00    +0.000 C 
BRANCH  15  16
ATOM     16  C   UNL     1       1.867   8.936  18.596  0.00  0.00    +0.000 A 
ATOM     17  C   UNL     1       1.450  10.185  18.134  0.00  0.00    +0.000 A 
ATOM     18  C   UNL     1       0.692  11.026  18.952  0.00  0.00    +0.000 A 
ATOM     19  C   UNL     1       0.338  10.655  20.261  0.00  0.00    +0.000 A 
ATOM     20  C   UNL     1       0.767   9.393  20.712  0.00  0.00    +0.000 A 
ATOM     21  C   UNL     1       1.522   8.547  19.893  0.00  0.00    +0.000 A 
BRANCH  19  22
ATOM     22  C   UNL     1      -0.489  11.575  21.176  0.00  0.00    +0.000 C 
ATOM     23  C   UNL     1       0.251  12.879  21.551  0.00  0.00    +0.000 C 
ATOM     24  C   UNL     1      -1.801  11.972  20.465  0.00  0.00    +0.000 C 
ATOM     25  C   UNL     1      -0.837  10.856  22.496  0.00  0.00    +0.000 C 
ENDBRANCH  19  22
ENDBRANCH  15  16
ENDBRANCH  14  15
ENDBRANCH   9  14
TORSDOF 5
ENDMDL
MODEL 9
REMARK VINA RESULT:      -7.7      0.981      1.722
REMARK  Name = 
REMARK  10 active torsions:
REMARK  status: ('A' for Active; 'I' for Inactive)
REMARK    1  A    between atoms: C_1  and  O_2
REMARK    2  A    between atoms: O_2  and  C_3
REMARK    3  A    between atoms: C_8  and  C_9
REMARK    4  A    between atoms: C_11  and  O_12
REMARK    5  A    between atoms: O_12  and  C_13
REMARK    6  A    between atoms: C_13  and  C_14
REMARK    7  A    between atoms: C_17  and  C_18
REMARK    8  A    between atoms: C_18  and  C_19
REMARK    9  A    between atoms: C_18  and  C_20
REMARK   10  A    between atoms: C_18  and  C_21
REMARK                            x       y       z     vdW  Elec       q    Type
REMARK                         _______ _______ _______ _____ _____    ______ ____
ROOT
ATOM      1  C   UNL     1       5.649   6.108  16.680  0.00  0.00    +0.000 A 
ATOM      2  C   UNL     1       5.646   4.872  16.044  0.00  0.00    +0.000 A 
ATOM      3  C   UNL     1       4.669   3.925  16.363  0.00  0.00    +0.000 A 
ATOM      4  C   UNL     1       3.687   4.172  17.308  0.00  0.00    +0.000 A 
ATOM      5  N   UNL     1       2.795   3.199  17.559  0.00  0.00    +0.000 NA
ATOM      6  C   UNL     1       1.836   3.423  18.481  0.00  0.00    +0.000 A 
ATOM      7  C   UNL     1       0.867   2.310  18.746  0.00  0.00    +0.000 C 
ATOM      8  C   UNL     1       1.728   4.616  19.176  0.00  0.00    +0.000 A 
ATOM      9  C   UNL     1       2.651   5.628  18.917  0.00  0.00    +0.000 A 
ATOM     10  C   UNL     1       3.670   5.416  17.961  0.00  0.00    +0.000 A 
ATOM     11  C   UNL     1       4.661   6.377  17.630  0.00  0.00    +0.000 A 
ENDROOT
BRANCH   1  13
ATOM     12  C   UNL     1       7.472   7.379  17.512  0.00  0.00    +0.000 C 
ATOM     13  O   UNL     1       6.550   7.113  16.461  0.00  0.00    +0.000 OA
ENDBRANCH   1  13
BRANCH   9  14
ATOM     14  O   UNL     1       2.645   6.846  19.546  0.00  0.00    +0.000 OA
BRANCH  14  15
ATOM     15  C   UNL     1       1.780   7.008  20.667  0.00  0.00    +0.000 C 
BRANCH  15  16
ATOM     16  C   UNL     1       1.105   8.344  20.523  0.00  0.00    +0.000 A 
ATOM     17  C   UNL     1       1.321   9.119  19.383  0.00  0.00    +0.000 A 
ATOM     18  C   UNL     1       0.747  10.388  19.270  0.00  0.00    +0.000 A 
ATOM     19  C   UNL     1      -0.048  10.930  20.295  0.00  0.00    +0.000 A 
ATOM     20  C   UNL     1      -0.255  10.135  21.438  0.00  0.00    +0.000 A 
ATOM     21  C   UNL     1       0.314   8.862  21.552  0.00  0.00    +0.000 A 
BRANCH  19  22
ATOM     22  C   UNL     1      -0.680  12.329  20.187  0.00  0.00    +0.000 C 
ATOM     23  C   UNL     1      -2.076  12.413  20.845  0.00  0.00    +0.000 C 
ATOM     24  C   UNL     1       0.229  13.364  20.885  0.00  0.00    +0.000 C 
ATOM     25  C   UNL     1      -0.850  12.733  18.707  0.00  0.00    +0.000 C 
ENDBRANCH  19  22
ENDBRANCH  15  16
ENDBRANCH  14  15
ENDBRANCH   9  14
TORSDOF 5
ENDMDL
