MODEL 1
REMARK VINA RESULT:      -8.3      0.000      0.000
REMARK  Name = 
REMARK  10 active torsions:
REMARK  status: ('A' for Active; 'I' for Inactive)
REMARK    1  A    between atoms: C_1  and  O_2
REMARK    2  A    between atoms: O_2  and  C_3
REMARK    3  A    between atoms: C_5  and  C_6
REMARK    4  A    between atoms: C_15  and  N_16
REMARK    5  A    between atoms: N_16  and  C_17
REMARK    6  A    between atoms: C_17  and  C_18
REMARK    7  A    between atoms: C_27  and  O_28
REMARK    8  A    between atoms: O_28  and  C_29
REMARK    9  A    between atoms: C_30  and  O_31
REMARK   10  A    between atoms: O_31  and  C_32
REMARK                            x       y       z     vdW  Elec       q    Type
REMARK                         _______ _______ _______ _____ _____    ______ ____
ROOT
ATOM      1  C   UNL     1       2.180   7.805  18.822  0.00  0.00    +0.000 A 
ATOM      2  C   UNL     1       1.902   8.636  17.743  0.00  0.00    +0.000 A 
ATOM      3  C   UNL     1       1.149   9.804  17.943  0.00  0.00    +0.000 A 
ATOM      4  C   UNL     1       0.681  10.112  19.220  0.00  0.00    +0.000 A 
ATOM      5  C   UNL     1       1.009   9.247  20.240  0.00  0.00    +0.000 A 
ATOM      6  N   UNL     1       1.746   8.111  20.070  0.00  0.00    +0.000 NA
ATOM      7  C   UNL     1       0.570   9.527  21.628  0.00  0.00    +0.000 C 
ATOM      8  O   UNL     1       0.845   8.811  22.568  0.00  0.00    +0.000 OA
ATOM      9  C   UNL     1      -0.246  10.732  21.851  0.00  0.00    +0.000 C 
ATOM     10  C   UNL     1      -0.593  11.584  20.887  0.00  0.00    +0.000 C 
ATOM     11  C   UNL     1      -0.126  11.329  19.475  0.00  0.00    +0.000 C 
ATOM     12  O   UNL     1      -0.391  12.106  18.565  0.00  0.00    +0.000 OA
ENDROOT
BRANCH   1  15
ATOM     13  C   UNL     1       4.792   5.078  19.209  0.00  0.00    +0.000 A 
ATOM     14  C   UNL     1       4.206   6.349  19.034  0.00  0.00    +0.000 A 
ATOM     15  C   UNL     1       2.864   6.501  18.688  0.00  0.00    +0.000 A 
ATOM     16  C   UNL     1       2.169   5.341  18.339  0.00  0.00    +0.000 A 
ATOM     17  C   UNL     1       2.760   4.066  18.390  0.00  0.00    +0.000 A 
ATOM     18  C   UNL     1       4.086   3.914  18.843  0.00  0.00    +0.000 A 
BRANCH  13  20
ATOM     19  C   UNL     1       7.071   5.641  19.012  0.00  0.00    +0.000 C 
ATOM     20  O   UNL     1       6.042   4.990  19.775  0.00  0.00    +0.000 OA
ENDBRANCH  13  20
BRANCH  17  21
ATOM     21  O   UNL     1       1.857   3.098  18.021  0.00  0.00    +0.000 OA
ATOM     22  C   UNL     1       0.940   2.585  18.974  0.00  0.00    +0.000 C 
ENDBRANCH  17  21
BRANCH  18  23
ATOM     23  O   UNL     1       4.537   2.628  18.886  0.00  0.00    +0.000 OA
ATOM     24  C   UNL     1       4.518   1.853  20.066  0.00  0.00    +0.000 C 
ENDBRANCH  18  23
ENDBRANCH   1  15
BRANCH  10  25
ATOM     25  N   UNL     1      -1.415  12.684  21.169  0.00  0.00    +0.000 N 
ATOM     26  H   UNL     1      -1.387  12.892  22.168  0.00  0.00    +0.000 HD
BRANCH  25  27
ATOM     27  C   UNL     1      -2.816  12.714  20.734  0.00  0.00    +0.000 C 
BRANCH  27  28
ATOM     28  C   UNL     1      -3.714  12.747  21.952  0.00  0.00    +0.000 A 
ATOM     29  C   UNL     1      -3.183  12.524  23.227  0.00  0.00    +0.000 A 
ATOM     30  C   UNL     1      -4.014  12.527  24.354  0.00  0.00    +0.000 A 
ATOM     31  C   UNL     1      -5.381  12.745  24.212  0.00  0.00    +0.000 A 
ATOM     32  C   UNL     1      -5.924  12.970  22.950  0.00  0.00    +0.000 A 
ATOM     33  C   UNL     1      -5.095  12.967  21.822  0.00  0.00    +0.000 A 
ENDBRANCH  27  28
ENDBRANCH  25  27
ENDBRANCH  10  25
TORSDOF 7
ENDMDL
MODEL 2
REMARK VINA RESULT:      -8.3      1.283      2.275
REMARK  Name = 
REMARK  10 active torsions:
REMARK  status: ('A' for Active; 'I' for Inactive)
REMARK    1  A    between atoms: C_1  and  O_2
REMARK    2  A    between atoms: O_2  and  C_3
REMARK    3  A    between atoms: C_5  and  C_6
REMARK    4  A    between atoms: C_15  and  N_16
REMARK    5  A    between atoms: N_16  and  C_17
REMARK    6  A    between atoms: C_17  and  C_18
REMARK    7  A    between atoms: C_27  and  O_28
REMARK    8  A    between atoms: O_28  and  C_29
REMARK    9  A    between atoms: C_30  and  O_31
REMARK   10  A    between atoms: O_31  and  C_32
REMARK                            x       y       z     vdW  Elec       q    Type
REMARK                         _______ _______ _______ _____ _____    ______ ____
ROOT
ATOM      1  C   UNL     1       1.990   7.955  19.305  0.00  0.00    +0.000 A 
ATOM      2  C   UNL     1       1.733   8.704  18.164  0.00  0.00    +0.000 A 
ATOM      3  C   UNL     1       0.953   9.868  18.259  0.00  0.00    +0.000 A 
ATOM      4  C   UNL     1       0.437  10.253  19.497  0.00  0.00    +0.000 A 
ATOM      5  C   UNL     1       0.747   9.465  20.583  0.00  0.00    +0.000 A 
ATOM      6  N   UNL     1       1.510   8.336  20.514  0.00  0.00    +0.000 NA
ATOM      7  C   UNL     1       0.257   9.831  21.934  0.00  0.00    +0.000 C 
ATOM      8  O   UNL     1       0.514   9.186  22.929  0.00  0.00    +0.000 OA
ATOM      9  C   UNL     1      -0.587  11.031  22.047  0.00  0.00    +0.000 C 
ATOM     10  C   UNL     1      -0.917  11.809  21.016  0.00  0.00    +0.000 C 
ATOM     11  C   UNL     1      -0.400  11.468  19.641  0.00  0.00    +0.000 C 
ATOM     12  O   UNL     1      -0.648  12.175  18.672  0.00  0.00    +0.000 OA
ENDROOT
BRANCH   1  15
ATOM     13  C   UNL     1       2.890   4.352  20.093  0.00  0.00    +0.000 A 
ATOM     14  C   UNL     1       2.469   5.689  20.257  0.00  0.00    +0.000 A 
ATOM     15  C   UNL     1       2.701   6.659  19.282  0.00  0.00    +0.000 A 
ATOM     16  C   UNL     1       3.530   6.296  18.219  0.00  0.00    +0.000 A 
ATOM     17  C   UNL     1       4.063   5.002  18.087  0.00  0.00    +0.000 A 
ATOM     18  C   UNL     1       3.736   3.999  19.023  0.00  0.00    +0.000 A 
BRANCH  13  20
ATOM     19  C   UNL     1       1.083   2.972  20.713  0.00  0.00    +0.000 C 
ATOM     20  O   UNL     1       2.432   3.396  20.970  0.00  0.00    +0.000 OA
ENDBRANCH  13  20
BRANCH  17  21
ATOM     21  O   UNL     1       4.823   4.903  16.946  0.00  0.00    +0.000 OA
ATOM     22  C   UNL     1       5.063   6.056  16.155  0.00  0.00    +0.000 C 
ENDBRANCH  17  21
BRANCH  18  23
ATOM     23  O   UNL     1       4.280   2.774  18.771  0.00  0.00    +0.000 OA
ATOM     24  C   UNL     1       3.559   1.736  18.142  0.00  0.00    +0.000 C 
ENDBRANCH  18  23
ENDBRANCH   1  15
BRANCH  10  25
ATOM     25  N   UNL     1      -1.768  12.908  21.196  0.00  0.00    +0.000 N 
ATOM     26  H   UNL     1      -1.488  13.670  20.575  0.00  0.00    +0.000 HD
BRANCH  25  27
ATOM     27  C   UNL     1      -2.009  13.470  22.530  0.00  0.00    +0.000 C 
BRANCH  27  28
ATOM     28  C   UNL     1      -3.435  13.178  22.942  0.00  0.00    +0.000 A 
ATOM     29  C   UNL     1      -4.490  13.409  22.052  0.00  0.00    +0.000 A 
ATOM     30  C   UNL     1      -5.813  13.166  22.438  0.00  0.00    +0.000 A 
ATOM     31  C   UNL     1      -6.091  12.697  23.719  0.00  0.00    +0.000 A 
ATOM     32  C   UNL     1      -5.052  12.460  24.615  0.00  0.00    +0.000 A 
ATOM     33  C   UNL     1      -3.728  12.703  24.231  0.00  0.00    +0.000 A 
ENDBRANCH  27  28
ENDBRANCH  25  27
ENDBRANCH  10  25
TORSDOF 7
ENDMDL
MODEL 3
REMARK VINA RESULT:      -8.3      1.535      2.656
REMARK  Name = 
REMARK  10 active torsions:
REMARK  status: ('A' for Active; 'I' for Inactive)
REMARK    1  A    between atoms: C_1  and  O_2
REMARK    2  A    between atoms: O_2  and  C_3
REMARK    3  A    between atoms: C_5  and  C_6
REMARK    4  A    between atoms: C_15  and  N_16
REMARK    5  A    between atoms: N_16  and  C_17
REMARK    6  A    between atoms: C_17  and  C_18
REMARK    7  A    between atoms: C_27  and  O_28
REMARK    8  A    between atoms: O_28  and  C_29
REMARK    9  A    between atoms: C_30  and  O_31
REMARK   10  A    between atoms: O_31  and  C_32
REMARK                            x       y       z     vdW  Elec       q    Type
REMARK                         _______ _______ _______ _____ _____    ______ ____
ROOT
ATOM      1  C   UNL     1       1.409   8.671  19.607  0.00  0.00    +0.000 A 
ATOM      2  C   UNL     1       0.897   9.395  18.538  0.00  0.00    +0.000 A 
ATOM      3  C   UNL     1       0.014  10.459  18.780  0.00  0.00    +0.000 A 
ATOM      4  C   UNL     1      -0.347  10.772  20.091  0.00  0.00    +0.000 A 
ATOM      5  C   UNL     1       0.212  10.016  21.097  0.00  0.00    +0.000 A 
ATOM      6  N   UNL     1       1.079   8.984  20.885  0.00  0.00    +0.000 NA
ATOM      7  C   UNL     1      -0.103  10.311  22.516  0.00  0.00    +0.000 C 
ATOM      8  O   UNL     1       0.374   9.691  23.443  0.00  0.00    +0.000 OA
ATOM      9  C   UNL     1      -1.050  11.404  22.787  0.00  0.00    +0.000 C 
ATOM     10  C   UNL     1      -1.620  12.147  21.838  0.00  0.00    +0.000 C 
ATOM     11  C   UNL     1      -1.284  11.880  20.392  0.00  0.00    +0.000 C 
ATOM     12  O   UNL     1      -1.756  12.562  19.490  0.00  0.00    +0.000 OA
ENDROOT
BRANCH   1  15
ATOM     13  C   UNL     1       2.736   5.143  20.062  0.00  0.00    +0.000 A 
ATOM     14  C   UNL     1       2.188   6.410  20.353  0.00  0.00    +0.000 A 
ATOM     15  C   UNL     1       2.251   7.466  19.444  0.00  0.00    +0.000 A 
ATOM     16  C   UNL     1       3.042   7.273  18.310  0.00  0.00    +0.000 A 
ATOM     17  C   UNL     1       3.699   6.058  18.048  0.00  0.00    +0.000 A 
ATOM     18  C   UNL     1       3.542   4.963  18.921  0.00  0.00    +0.000 A 
BRANCH  13  20
ATOM     19  C   UNL     1       1.175   3.465  20.607  0.00  0.00    +0.000 C 
ATOM     20  O   UNL     1       2.441   4.083  20.888  0.00  0.00    +0.000 OA
ENDBRANCH  13  20
BRANCH  17  21
ATOM     21  O   UNL     1       4.389   6.125  16.861  0.00  0.00    +0.000 OA
ATOM     22  C   UNL     1       5.685   6.700  16.828  0.00  0.00    +0.000 C 
ENDBRANCH  17  21
BRANCH  18  23
ATOM     23  O   UNL     1       4.196   3.826  18.545  0.00  0.00    +0.000 OA
ATOM     24  C   UNL     1       3.578   2.810  17.782  0.00  0.00    +0.000 C 
ENDBRANCH  18  23
ENDBRANCH   1  15
BRANCH  10  25
ATOM     25  N   UNL     1      -2.552  13.139  22.172  0.00  0.00    +0.000 N 
ATOM     26  H   UNL     1      -2.108  14.058  22.143  0.00  0.00    +0.000 HD
BRANCH  25  27
ATOM     27  C   UNL     1      -3.342  13.051  23.406  0.00  0.00    +0.000 C 
BRANCH  27  28
ATOM     28  C   UNL     1      -4.801  12.861  23.049  0.00  0.00    +0.000 A 
ATOM     29  C   UNL     1      -5.190  12.729  21.711  0.00  0.00    +0.000 A 
ATOM     30  C   UNL     1      -6.541  12.581  21.374  0.00  0.00    +0.000 A 
ATOM     31  C   UNL     1      -7.511  12.571  22.372  0.00  0.00    +0.000 A 
ATOM     32  C   UNL     1      -7.140  12.699  23.707  0.00  0.00    +0.000 A 
ATOM     33  C   UNL     1      -5.790  12.848  24.047  0.00  0.00    +0.000 A 
ENDBRANCH  27  28
ENDBRANCH  25  27
ENDBRANCH  10  25
TORSDOF 7
ENDMDL
MODEL 4
REMARK VINA RESULT:      -8.2      1.180      2.115
REMARK  Name = 
REMARK  10 active torsions:
REMARK  status: ('A' for Active; 'I' for Inactive)
REMARK    1  A    between atoms: C_1  and  O_2
REMARK    2  A    between atoms: O_2  and  C_3
REMARK    3  A    between atoms: C_5  and  C_6
REMARK    4  A    between atoms: C_15  and  N_16
REMARK    5  A    between atoms: N_16  and  C_17
REMARK    6  A    between atoms: C_17  and  C_18
REMARK    7  A    between atoms: C_27  and  O_28
REMARK    8  A    between atoms: O_28  and  C_29
REMARK    9  A    between atoms: C_30  and  O_31
REMARK   10  A    between atoms: O_31  and  C_32
REMARK                            x       y       z     vdW  Elec       q    Type
REMARK                         _______ _______ _______ _____ _____    ______ ____
ROOT
ATOM      1  C   UNL     1       2.007   7.736  19.479  0.00  0.00    +0.000 A 
ATOM      2  C   UNL     1       1.901   8.488  18.316  0.00  0.00    +0.000 A 
ATOM      3  C   UNL     1       1.207   9.709  18.340  0.00  0.00    +0.000 A 
ATOM      4  C   UNL     1       0.625  10.147  19.529  0.00  0.00    +0.000 A 
ATOM      5  C   UNL     1       0.784   9.352  20.642  0.00  0.00    +0.000 A 
ATOM      6  N   UNL     1       1.462   8.168  20.643  0.00  0.00    +0.000 NA
ATOM      7  C   UNL     1       0.217   9.771  21.946  0.00  0.00    +0.000 C 
ATOM      8  O   UNL     1       0.342   9.120  22.963  0.00  0.00    +0.000 OA
ATOM      9  C   UNL     1      -0.540  11.033  21.983  0.00  0.00    +0.000 C 
ATOM     10  C   UNL     1      -0.725  11.820  20.924  0.00  0.00    +0.000 C 
ATOM     11  C   UNL     1      -0.126  11.424  19.598  0.00  0.00    +0.000 C 
ATOM     12  O   UNL     1      -0.240  12.136  18.607  0.00  0.00    +0.000 OA
ENDROOT
BRANCH   1  15
ATOM     13  C   UNL     1       2.388   3.995  19.998  0.00  0.00    +0.000 A 
ATOM     14  C   UNL     1       1.998   5.336  20.195  0.00  0.00    +0.000 A 
ATOM     15  C   UNL     1       2.617   6.390  19.523  0.00  0.00    +0.000 A 
ATOM     16  C   UNL     1       3.763   6.079  18.786  0.00  0.00    +0.000 A 
ATOM     17  C   UNL     1       4.247   4.765  18.666  0.00  0.00    +0.000 A 
ATOM     18  C   UNL     1       3.552   3.694  19.263  0.00  0.00    +0.000 A 
BRANCH  13  20
ATOM     19  C   UNL     1       1.893   2.643  21.863  0.00  0.00    +0.000 C 
ATOM     20  O   UNL     1       1.596   2.988  20.500  0.00  0.00    +0.000 OA
ENDBRANCH  13  20
BRANCH  17  21
ATOM     21  O   UNL     1       5.369   4.733  17.872  0.00  0.00    +0.000 OA
ATOM     22  C   UNL     1       5.238   4.564  16.470  0.00  0.00    +0.000 C 
ENDBRANCH  17  21
BRANCH  18  23
ATOM     23  O   UNL     1       4.095   2.462  19.045  0.00  0.00    +0.000 OA
ATOM     24  C   UNL     1       3.558   1.547  18.113  0.00  0.00    +0.000 C 
ENDBRANCH  18  23
ENDBRANCH   1  15
BRANCH  10  25
ATOM     25  N   UNL     1      -1.501  12.983  21.027  0.00  0.00    +0.000 N 
ATOM     26  H   UNL     1      -1.474  13.336  21.985  0.00  0.00    +0.000 HD
BRANCH  25  27
ATOM     27  C   UNL     1      -2.895  13.007  20.570  0.00  0.00    +0.000 C 
BRANCH  27  28
ATOM     28  C   UNL     1      -3.812  13.000  21.773  0.00  0.00    +0.000 A 
ATOM     29  C   UNL     1      -3.282  13.041  23.067  0.00  0.00    +0.000 A 
ATOM     30  C   UNL     1      -4.125  13.006  24.184  0.00  0.00    +0.000 A 
ATOM     31  C   UNL     1      -5.504  12.923  24.014  0.00  0.00    +0.000 A 
ATOM     32  C   UNL     1      -6.047  12.883  22.733  0.00  0.00    +0.000 A 
ATOM     33  C   UNL     1      -5.206  12.917  21.615  0.00  0.00    +0.000 A 
ENDBRANCH  27  28
ENDBRANCH  25  27
ENDBRANCH  10  25
TORSDOF 7
ENDMDL
MODEL 5
REMARK VINA RESULT:      -8.2      1.811      2.590
REMARK  Name = 
REMARK  10 active torsions:
REMARK  status: ('A' for Active; 'I' for Inactive)
REMARK    1  A    between atoms: C_1  and  O_2
REMARK    2  A    between atoms: O_2  and  C_3
REMARK    3  A    between atoms: C_5  and  C_6
REMARK    4  A    between atoms: C_15  and  N_16
REMARK    5  A    between atoms: N_16  and  C_17
REMARK    6  A    between atoms: C_17  and  C_18
REMARK    7  A    between atoms: C_27  and  O_28
REMARK    8  A    between atoms: O_28  and  C_29
REMARK    9  A    between atoms: C_30  and  O_31
REMARK   10  A    between atoms: O_31  and  C_32
REMARK                            x       y       z     vdW  Elec       q    Type
REMARK                         _______ _______ _______ _____ _____    ______ ____
ROOT
ATOM      1  C   UNL     1       2.318   7.075  19.107  0.00  0.00    +0.000 A 
ATOM      2  C   UNL     1       1.833   6.531  20.291  0.00  0.00    +0.000 A 
ATOM      3  C   UNL     1       1.073   7.330  21.161  0.00  0.00    +0.000 A 
ATOM      4  C   UNL     1       0.821   8.662  20.832  0.00  0.00    +0.000 A 
ATOM      5  C   UNL     1       1.324   9.123  19.636  0.00  0.00    +0.000 A 
ATOM      6  N   UNL     1       2.057   8.363  18.771  0.00  0.00    +0.000 NA
ATOM      7  C   UNL     1       1.069  10.520  19.208  0.00  0.00    +0.000 C 
ATOM      8  O   UNL     1       1.471  10.975  18.157  0.00  0.00    +0.000 OA
ATOM      9  C   UNL     1       0.300  11.379  20.122  0.00  0.00    +0.000 C 
ATOM     10  C   UNL     1      -0.190  10.970  21.292  0.00  0.00    +0.000 C 
ATOM     11  C   UNL     1       0.033   9.543  21.726  0.00  0.00    +0.000 C 
ATOM     12  O   UNL     1      -0.431   9.114  22.776  0.00  0.00    +0.000 OA
ENDROOT
BRANCH   1  15
ATOM     13  C   UNL     1       5.298   6.298  16.888  0.00  0.00    +0.000 A 
ATOM     14  C   UNL     1       4.250   7.004  17.517  0.00  0.00    +0.000 A 
ATOM     15  C   UNL     1       3.219   6.348  18.189  0.00  0.00    +0.000 A 
ATOM     16  C   UNL     1       3.167   4.958  18.057  0.00  0.00    +0.000 A 
ATOM     17  C   UNL     1       4.133   4.233  17.338  0.00  0.00    +0.000 A 
ATOM     18  C   UNL     1       5.229   4.897  16.750  0.00  0.00    +0.000 A 
BRANCH  13  20
ATOM     19  C   UNL     1       7.396   7.203  17.463  0.00  0.00    +0.000 C 
ATOM     20  O   UNL     1       6.401   6.992  16.448  0.00  0.00    +0.000 OA
ENDBRANCH  13  20
BRANCH  17  21
ATOM     21  O   UNL     1       3.861   2.887  17.382  0.00  0.00    +0.000 OA
ATOM     22  C   UNL     1       3.680   2.243  18.633  0.00  0.00    +0.000 C 
ENDBRANCH  17  21
BRANCH  18  23
ATOM     23  O   UNL     1       6.121   4.086  16.112  0.00  0.00    +0.000 OA
ATOM     24  C   UNL     1       6.151   3.945  14.708  0.00  0.00    +0.000 C 
ENDBRANCH  18  23
ENDBRANCH   1  15
BRANCH  10  25
ATOM     25  N   UNL     1      -0.871  11.863  22.131  0.00  0.00    +0.000 N 
ATOM     26  H   UNL     1      -1.379  11.346  22.850  0.00  0.00    +0.000 HD
BRANCH  25  27
ATOM     27  C   UNL     1      -1.768  12.886  21.582  0.00  0.00    +0.000 C 
BRANCH  27  28
ATOM     28  C   UNL     1      -3.026  12.945  22.421  0.00  0.00    +0.000 A 
ATOM     29  C   UNL     1      -3.065  12.337  23.681  0.00  0.00    +0.000 A 
ATOM     30  C   UNL     1      -4.235  12.365  24.449  0.00  0.00    +0.000 A 
ATOM     31  C   UNL     1      -5.376  12.994  23.958  0.00  0.00    +0.000 A 
ATOM     32  C   UNL     1      -5.353  13.604  22.707  0.00  0.00    +0.000 A 
ATOM     33  C   UNL     1      -4.184  13.577  21.937  0.00  0.00    +0.000 A 
ENDBRANCH  27  28
ENDBRANCH  25  27
ENDBRANCH  10  25
TORSDOF 7
ENDMDL
MODEL 6
REMARK VINA RESULT:      -8.1      1.442      2.852
REMARK  Name = 
REMARK  10 active torsions:
REMARK  status: ('A' for Active; 'I' for Inactive)
REMARK    1  A    between atoms: C_1  and  O_2
REMARK    2  A    between atoms: O_2  and  C_3
REMARK    3  A    between atoms: C_5  and  C_6
REMARK    4  A    between atoms: C_15  and  N_16
REMARK    5  A    between atoms: N_16  and  C_17
REMARK    6  A    between atoms: C_17  and  C_18
REMARK    7  A    between atoms: C_27  and  O_28
REMARK    8  A    between atoms: O_28  and  C_29
REMARK    9  A    between atoms: C_30  and  O_31
REMARK   10  A    between atoms: O_31  and  C_32
REMARK                            x       y       z     vdW  Elec       q    Type
REMARK                         _______ _______ _______ _____ _____    ______ ____
ROOT
ATOM      1  C   UNL     1       2.151   8.148  18.427  0.00  0.00    +0.000 A 
ATOM      2  C   UNL     1       1.475   8.884  17.463  0.00  0.00    +0.000 A 
ATOM      3  C   UNL     1       0.542   9.856  17.860  0.00  0.00    +0.000 A 
ATOM      4  C   UNL     1       0.299  10.064  19.217  0.00  0.00    +0.000 A 
ATOM      5  C   UNL     1       1.018   9.304  20.112  0.00  0.00    +0.000 A 
ATOM      6  N   UNL     1       1.935   8.361  19.749  0.00  0.00    +0.000 NA
ATOM      7  C   UNL     1       0.832   9.494  21.571  0.00  0.00    +0.000 C 
ATOM      8  O   UNL     1       1.451   8.866  22.405  0.00  0.00    +0.000 OA
ATOM      9  C   UNL     1      -0.164  10.487  22.004  0.00  0.00    +0.000 C 
ATOM     10  C   UNL     1      -0.886  11.230  21.167  0.00  0.00    +0.000 C 
ATOM     11  C   UNL     1      -0.685  11.072  19.680  0.00  0.00    +0.000 C 
ATOM     12  O   UNL     1      -1.301  11.760  18.875  0.00  0.00    +0.000 OA
ENDROOT
BRANCH   1  15
ATOM     13  C   UNL     1       3.369   4.648  17.603  0.00  0.00    +0.000 A 
ATOM     14  C   UNL     1       2.639   5.703  18.190  0.00  0.00    +0.000 A 
ATOM     15  C   UNL     1       3.062   7.029  18.104  0.00  0.00    +0.000 A 
ATOM     16  C   UNL     1       4.335   7.250  17.573  0.00  0.00    +0.000 A 
ATOM     17  C   UNL     1       5.139   6.205  17.085  0.00  0.00    +0.000 A 
ATOM     18  C   UNL     1       4.657   4.880  17.081  0.00  0.00    +0.000 A 
BRANCH  13  20
ATOM     19  C   UNL     1       1.546   3.291  18.225  0.00  0.00    +0.000 C 
ATOM     20  O   UNL     1       2.791   3.403  17.517  0.00  0.00    +0.000 OA
ENDBRANCH  13  20
BRANCH  17  21
ATOM     21  O   UNL     1       6.328   6.693  16.599  0.00  0.00    +0.000 OA
ATOM     22  C   UNL     1       7.442   6.834  17.466  0.00  0.00    +0.000 C 
ENDBRANCH  17  21
BRANCH  18  23
ATOM     23  O   UNL     1       5.509   3.958  16.549  0.00  0.00    +0.000 OA
ATOM     24  C   UNL     1       5.743   3.849  15.161  0.00  0.00    +0.000 C 
ENDBRANCH  18  23
ENDBRANCH   1  15
BRANCH  10  25
ATOM     25  N   UNL     1      -1.852  12.120  21.656  0.00  0.00    +0.000 N 
ATOM     26  H   UNL     1      -1.669  13.061  21.302  0.00  0.00    +0.000 HD
BRANCH  25  27
ATOM     27  C   UNL     1      -2.136  12.218  23.092  0.00  0.00    +0.000 C 
BRANCH  27  28
ATOM     28  C   UNL     1      -3.616  12.462  23.290  0.00  0.00    +0.000 A 
ATOM     29  C   UNL     1      -4.404  12.930  22.233  0.00  0.00    +0.000 A 
ATOM     30  C   UNL     1      -5.768  13.183  22.419  0.00  0.00    +0.000 A 
ATOM     31  C   UNL     1      -6.352  12.977  23.666  0.00  0.00    +0.000 A 
ATOM     32  C   UNL     1      -5.581  12.510  24.728  0.00  0.00    +0.000 A 
ATOM     33  C   UNL     1      -4.217  12.256  24.544  0.00  0.00    +0.000 A 
ENDBRANCH  27  28
ENDBRANCH  25  27
ENDBRANCH  10  25
TORSDOF 7
ENDMDL
MODEL 7
REMARK VINA RESULT:      -8.1      1.384      2.286
REMARK  Name = 
REMARK  10 active torsions:
REMARK  status: ('A' for Active; 'I' for Inactive)
REMARK    1  A    between atoms: C_1  and  O_2
REMARK    2  A    between atoms: O_2  and  C_3
REMARK    3  A    between atoms: C_5  and  C_6
REMARK    4  A    between atoms: C_15  and  N_16
REMARK    5  A    between atoms: N_16  and  C_17
REMARK    6  A    between atoms: C_17  and  C_18
REMARK    7  A    between atoms: C_27  and  O_28
REMARK    8  A    between atoms: O_28  and  C_29
REMARK    9  A    between atoms: C_30  and  O_31
REMARK   10  A    between atoms: O_31  and  C_32
REMARK                            x       y       z     vdW  Elec       q    Type
REMARK                         _______ _______ _______ _____ _____    ______ ____
ROOT
ATOM      1  C   UNL     1       2.190   7.650  19.151  0.00  0.00    +0.000 A 
ATOM      2  C   UNL     1       1.973   8.332  17.960  0.00  0.00    +0.000 A 
ATOM      3  C   UNL     1       1.233   9.525  17.969  0.00  0.00    +0.000 A 
ATOM      4  C   UNL     1       0.716  10.007  19.172  0.00  0.00    +0.000 A 
ATOM      5  C   UNL     1       0.985   9.281  20.311  0.00  0.00    +0.000 A 
ATOM      6  N   UNL     1       1.709   8.125  20.326  0.00  0.00    +0.000 NA
ATOM      7  C   UNL     1       0.492   9.750  21.628  0.00  0.00    +0.000 C 
ATOM      8  O   UNL     1       0.714   9.162  22.667  0.00  0.00    +0.000 OA
ATOM      9  C   UNL     1      -0.312  10.983  21.652  0.00  0.00    +0.000 C 
ATOM     10  C   UNL     1      -0.602  11.703  20.569  0.00  0.00    +0.000 C 
ATOM     11  C   UNL     1      -0.080  11.256  19.226  0.00  0.00    +0.000 C 
ATOM     12  O   UNL     1      -0.292  11.907  18.210  0.00  0.00    +0.000 OA
ENDROOT
BRANCH   1  15
ATOM     13  C   UNL     1       3.020   4.114  20.255  0.00  0.00    +0.000 A 
ATOM     14  C   UNL     1       2.653   5.476  20.303  0.00  0.00    +0.000 A 
ATOM     15  C   UNL     1       2.857   6.332  19.222  0.00  0.00    +0.000 A 
ATOM     16  C   UNL     1       3.608   5.832  18.156  0.00  0.00    +0.000 A 
ATOM     17  C   UNL     1       4.089   4.512  18.129  0.00  0.00    +0.000 A 
ATOM     18  C   UNL     1       3.787   3.623  19.180  0.00  0.00    +0.000 A 
BRANCH  13  20
ATOM     19  C   UNL     1       1.223   2.842  21.094  0.00  0.00    +0.000 C 
ATOM     20  O   UNL     1       2.585   3.270  21.250  0.00  0.00    +0.000 OA
ENDBRANCH  13  20
BRANCH  17  21
ATOM     21  O   UNL     1       4.775   4.269  16.963  0.00  0.00    +0.000 OA
ATOM     22  C   UNL     1       6.106   4.739  16.814  0.00  0.00    +0.000 C 
ENDBRANCH  17  21
BRANCH  18  23
ATOM     23  O   UNL     1       4.275   2.359  19.026  0.00  0.00    +0.000 OA
ATOM     24  C   UNL     1       3.537   1.328  18.403  0.00  0.00    +0.000 C 
ENDBRANCH  18  23
ENDBRANCH   1  15
BRANCH  10  25
ATOM     25  N   UNL     1      -1.417  12.839  20.665  0.00  0.00    +0.000 N 
ATOM     26  H   UNL     1      -0.972  13.536  21.266  0.00  0.00    +0.000 HD
BRANCH  25  27
ATOM     27  C   UNL     1      -2.827  12.731  21.057  0.00  0.00    +0.000 C 
BRANCH  27  28
ATOM     28  C   UNL     1      -3.001  13.301  22.448  0.00  0.00    +0.000 A 
ATOM     29  C   UNL     1      -3.742  12.605  23.409  0.00  0.00    +0.000 A 
ATOM     30  C   UNL     1      -3.930  13.141  24.689  0.00  0.00    +0.000 A 
ATOM     31  C   UNL     1      -3.383  14.380  25.013  0.00  0.00    +0.000 A 
ATOM     32  C   UNL     1      -2.642  15.084  24.067  0.00  0.00    +0.000 A 
ATOM     33  C   UNL     1      -2.454  14.550  22.787  0.00  0.00    +0.000 A 
ENDBRANCH  27  28
ENDBRANCH  25  27
ENDBRANCH  10  25
TORSDOF 7
ENDMDL
MODEL 8
REMARK VINA RESULT:      -8.1      1.762      2.116
REMARK  Name = 
REMARK  10 active torsions:
REMARK  status: ('A' for Active; 'I' for Inactive)
REMARK    1  A    between atoms: C_1  and  O_2
REMARK    2  A    between atoms: O_2  and  C_3
REMARK    3  A    between atoms: C_5  and  C_6
REMARK    4  A    between atoms: C_15  and  N_16
REMARK    5  A    between atoms: N_16  and  C_17
REMARK    6  A    between atoms: C_17  and  C_18
REMARK    7  A    between atoms: C_27  and  O_28
REMARK    8  A    between atoms: O_28  and  C_29
REMARK    9  A    between atoms: C_30  and  O_31
REMARK   10  A    between atoms: O_31  and  C_32
REMARK                            x       y       z     vdW  Elec       q    Type
REMARK                         _______ _______ _______ _____ _____    ______ ____
ROOT
ATOM      1  C   UNL     1       2.052   7.812  19.122  0.00  0.00    +0.000 A 
ATOM      2  C   UNL     1       2.060   8.692  18.046  0.00  0.00    +0.000 A 
ATOM      3  C   UNL     1       1.516   9.978  18.198  0.00  0.00    +0.000 A 
ATOM      4  C   UNL     1       0.965  10.353  19.423  0.00  0.00    +0.000 A 
ATOM      5  C   UNL     1       1.006   9.430  20.444  0.00  0.00    +0.000 A 
ATOM      6  N   UNL     1       1.539   8.180  20.322  0.00  0.00    +0.000 NA
ATOM      7  C   UNL     1       0.466   9.772  21.782  0.00  0.00    +0.000 C 
ATOM      8  O   UNL     1       0.493   9.006  22.723  0.00  0.00    +0.000 OA
ATOM      9  C   UNL     1      -0.136  11.104  21.950  0.00  0.00    +0.000 C 
ATOM     10  C   UNL     1      -0.205  12.017  20.982  0.00  0.00    +0.000 C 
ATOM     11  C   UNL     1       0.370  11.696  19.625  0.00  0.00    +0.000 C 
ATOM     12  O   UNL     1       0.361  12.518  18.716  0.00  0.00    +0.000 OA
ENDROOT
BRANCH   1  15
ATOM     13  C   UNL     1       3.934   4.727  17.960  0.00  0.00    +0.000 A 
ATOM     14  C   UNL     1       3.245   5.958  17.935  0.00  0.00    +0.000 A 
ATOM     15  C   UNL     1       2.497   6.406  19.023  0.00  0.00    +0.000 A 
ATOM     16  C   UNL     1       2.307   5.502  20.071  0.00  0.00    +0.000 A 
ATOM     17  C   UNL     1       2.886   4.221  20.074  0.00  0.00    +0.000 A 
ATOM     18  C   UNL     1       3.726   3.817  19.016  0.00  0.00    +0.000 A 
BRANCH  13  20
ATOM     19  C   UNL     1       6.192   4.800  17.288  0.00  0.00    +0.000 C 
ATOM     20  O   UNL     1       4.838   4.447  16.961  0.00  0.00    +0.000 OA
ENDBRANCH  13  20
BRANCH  17  21
ATOM     21  O   UNL     1       2.561   3.545  21.226  0.00  0.00    +0.000 OA
ATOM     22  C   UNL     1       1.331   2.844  21.312  0.00  0.00    +0.000 C 
ENDBRANCH  17  21
BRANCH  18  23
ATOM     23  O   UNL     1       4.260   2.569  19.147  0.00  0.00    +0.000 OA
ATOM     24  C   UNL     1       3.673   1.425  18.565  0.00  0.00    +0.000 C 
ENDBRANCH  18  23
ENDBRANCH   1  15
BRANCH  10  25
ATOM     25  N   UNL     1      -0.839  13.247  21.204  0.00  0.00    +0.000 N 
ATOM     26  H   UNL     1      -1.011  13.717  20.314  0.00  0.00    +0.000 HD
BRANCH  25  27
ATOM     27  C   UNL     1      -0.280  14.230  22.139  0.00  0.00    +0.000 C 
BRANCH  27  28
ATOM     28  C   UNL     1      -1.242  14.424  23.291  0.00  0.00    +0.000 A 
ATOM     29  C   UNL     1      -2.456  13.728  23.322  0.00  0.00    +0.000 A 
ATOM     30  C   UNL     1      -3.362  13.925  24.371  0.00  0.00    +0.000 A 
ATOM     31  C   UNL     1      -3.063  14.823  25.392  0.00  0.00    +0.000 A 
ATOM     32  C   UNL     1      -1.859  15.521  25.375  0.00  0.00    +0.000 A 
ATOM     33  C   UNL     1      -0.952  15.327  24.328  0.00  0.00    +0.000 A 
ENDBRANCH  27  28
ENDBRANCH  25  27
ENDBRANCH  10  25
TORSDOF 7
ENDMDL
MODEL 9
REMARK VINA RESULT:      -8.1      1.204      1.284
REMARK  Name = 
REMARK  10 active torsions:
REMARK  status: ('A' for Active; 'I' for Inactive)
REMARK    1  A    between atoms: C_1  and  O_2
REMARK    2  A    between atoms: O_2  and  C_3
REMARK    3  A    between atoms: C_5  and  C_6
REMARK    4  A    between atoms: C_15  and  N_16
REMARK    5  A    between atoms: N_16  and  C_17
REMARK    6  A    between atoms: C_17  and  C_18
REMARK    7  A    between atoms: C_27  and  O_28
REMARK    8  A    between atoms: O_28  and  C_29
REMARK    9  A    between atoms: C_30  and  O_31
REMARK   10  A    between atoms: O_31  and  C_32
REMARK                            x       y       z     vdW  Elec       q    Type
REMARK                         _______ _______ _______ _____ _____    ______ ____
ROOT
ATOM      1  C   UNL     1       2.252   7.514  19.100  0.00  0.00    +0.000 A 
ATOM      2  C   UNL     1       2.232   8.358  17.996  0.00  0.00    +0.000 A 
ATOM      3  C   UNL     1       1.655   9.633  18.108  0.00  0.00    +0.000 A 
ATOM      4  C   UNL     1       1.100  10.035  19.323  0.00  0.00    +0.000 A 
ATOM      5  C   UNL     1       1.171   9.148  20.374  0.00  0.00    +0.000 A 
ATOM      6  N   UNL     1       1.734   7.908  20.290  0.00  0.00    +0.000 NA
ATOM      7  C   UNL     1       0.628   9.521  21.702  0.00  0.00    +0.000 C 
ATOM      8  O   UNL     1       0.679   8.788  22.668  0.00  0.00    +0.000 OA
ATOM      9  C   UNL     1      -0.007  10.842  21.830  0.00  0.00    +0.000 C 
ATOM     10  C   UNL     1      -0.104  11.720  20.831  0.00  0.00    +0.000 C 
ATOM     11  C   UNL     1       0.472  11.369  19.482  0.00  0.00    +0.000 C 
ATOM     12  O   UNL     1       0.438  12.159  18.547  0.00  0.00    +0.000 OA
ENDROOT
BRANCH   1  15
ATOM     13  C   UNL     1       4.608   4.546  18.890  0.00  0.00    +0.000 A 
ATOM     14  C   UNL     1       4.037   5.815  18.658  0.00  0.00    +0.000 A 
ATOM     15  C   UNL     1       2.732   6.117  19.046  0.00  0.00    +0.000 A 
ATOM     16  C   UNL     1       1.951   5.055  19.506  0.00  0.00    +0.000 A 
ATOM     17  C   UNL     1       2.457   3.750  19.638  0.00  0.00    +0.000 A 
ATOM     18  C   UNL     1       3.808   3.478  19.343  0.00  0.00    +0.000 A 
BRANCH  13  20
ATOM     19  C   UNL     1       6.745   5.518  19.092  0.00  0.00    +0.000 C 
ATOM     20  O   UNL     1       5.961   4.378  18.703  0.00  0.00    +0.000 OA
ENDBRANCH  13  20
BRANCH  17  21
ATOM     21  O   UNL     1       1.493   2.904  20.131  0.00  0.00    +0.000 OA
ATOM     22  C   UNL     1       1.381   2.696  21.530  0.00  0.00    +0.000 C 
ENDBRANCH  17  21
BRANCH  18  23
ATOM     23  O   UNL     1       4.195   2.186  19.546  0.00  0.00    +0.000 OA
ATOM     24  C   UNL     1       3.950   1.162  18.606  0.00  0.00    +0.000 C 
ENDBRANCH  18  23
ENDBRANCH   1  15
BRANCH  10  25
ATOM     25  N   UNL     1      -0.769  12.940  21.017  0.00  0.00    +0.000 N 
ATOM     26  H   UNL     1      -0.466  13.612  20.310  0.00  0.00    +0.000 HD
BRANCH  25  27
ATOM     27  C   UNL     1      -0.766  13.614  22.320  0.00  0.00    +0.000 C 
BRANCH  27  28
ATOM     28  C   UNL     1      -2.179  13.649  22.863  0.00  0.00    +0.000 A 
ATOM     29  C   UNL     1      -2.727  12.519  23.478  0.00  0.00    +0.000 A 
ATOM     30  C   UNL     1      -4.043  12.537  23.958  0.00  0.00    +0.000 A 
ATOM     31  C   UNL     1      -4.820  13.683  23.819  0.00  0.00    +0.000 A 
ATOM     32  C   UNL     1      -4.287  14.817  23.210  0.00  0.00    +0.000 A 
ATOM     33  C   UNL     1      -2.973  14.801  22.729  0.00  0.00    +0.000 A 
ENDBRANCH  27  28
ENDBRANCH  25  27
ENDBRANCH  10  25
TORSDOF 7
ENDMDL
