MODEL 1
REMARK VINA RESULT:      -8.0      0.000      0.000
REMARK  Name = 
REMARK  11 active torsions:
REMARK  status: ('A' for Active; 'I' for Inactive)
REMARK    1  A    between atoms: C_2  and  C_3
REMARK    2  A    between atoms: C_3  and  N_4
REMARK    3  A    between atoms: N_4  and  C_5
REMARK    4  A    between atoms: N_4  and  C_7
REMARK    5  A    between atoms: N_4  and  C_9
REMARK    6  A    between atoms: C_5  and  C_6
REMARK    7  A    between atoms: C_7  and  C_8
REMARK    8  A    between atoms: C_12  and  N_13
REMARK    9  A    between atoms: C_14  and  C_16
REMARK   10  A    between atoms: C_17  and  C_18
REMARK   11  A    between atoms: C_26  and  C_27
REMARK                            x       y       z     vdW  Elec       q    Type
REMARK                         _______ _______ _______ _____ _____    ______ ____
ROOT
ATOM      1  N   UNL     1       2.670   6.497  19.810  0.00  0.00    +0.000 N 
ATOM      2  C   UNL     1       2.472   5.283  19.176  0.00  0.00    +0.000 C 
ATOM      3  O   UNL     1       1.724   5.093  18.231  0.00  0.00    +0.000 OA
ATOM      4  H   UNL     1       3.369   6.534  20.540  0.00  0.00    +0.000 HD
ENDROOT
BRANCH   1   8
ATOM      5  C   UNL     1       1.135  10.326  19.095  0.00  0.00    +0.000 A 
ATOM      6  C   UNL     1       0.760   9.661  20.272  0.00  0.00    +0.000 A 
ATOM      7  C   UNL     1       1.219   8.373  20.505  0.00  0.00    +0.000 A 
ATOM      8  C   UNL     1       1.966   7.691  19.544  0.00  0.00    +0.000 A 
ATOM      9  C   UNL     1       2.083   8.257  18.275  0.00  0.00    +0.000 A 
ATOM     10  C   UNL     1       1.635   9.567  18.042  0.00  0.00    +0.000 A 
BRANCH   5  11
ATOM     11  N   UNL     1       1.231  11.872  19.136  0.00  0.00    +0.000 NA
BRANCH  11  12
ATOM     12  C   UNL     1       1.433  12.222  20.631  0.00  0.00    +0.000 C 
ATOM     13  C   UNL     1       0.552  13.342  21.163  0.00  0.00    +0.000 C 
ENDBRANCH  11  12
BRANCH  11  14
ATOM     14  C   UNL     1      -0.104  12.502  18.622  0.00  0.00    +0.000 C 
ATOM     15  C   UNL     1      -1.266  11.542  18.419  0.00  0.00    +0.000 C 
ENDBRANCH  11  14
BRANCH  11  16
ATOM     16  C   UNL     1       2.499  12.217  18.181  0.00  0.00    +0.000 C 
BRANCH  16  18
ATOM     17  C   UNL     1       2.948  15.005  18.148  0.00  0.00    +0.000 C 
ATOM     18  C   UNL     1       2.741  13.718  18.163  0.00  0.00    +0.000 C 
ENDBRANCH  16  18
ENDBRANCH  11  16
ENDBRANCH   5  11
ENDBRANCH   1   8
BRANCH   2  19
ATOM     19  C   UNL     1       3.280   4.205  19.702  0.00  0.00    +0.000 A 
ATOM     20  C   UNL     1       4.628   3.883  19.353  0.00  0.00    +0.000 A 
ATOM     21  N   UNL     1       5.008   2.756  19.976  0.00  0.00    +0.000 NA
ATOM     22  O   UNL     1       3.936   2.343  20.733  0.00  0.00    +0.000 OA
ATOM     23  C   UNL     1       2.900   3.205  20.574  0.00  0.00    +0.000 A 
ATOM     24  C   UNL     1       1.659   2.853  21.292  0.00  0.00    +0.000 C 
BRANCH  20  25
ATOM     25  C   UNL     1       5.546   4.614  18.478  0.00  0.00    +0.000 A 
ATOM     26  C   UNL     1       6.524   5.469  19.010  0.00  0.00    +0.000 A 
ATOM     27  C   UNL     1       7.371   6.196  18.171  0.00  0.00    +0.000 A 
ATOM     28  C   UNL     1       7.265   6.062  16.790  0.00  0.00    +0.000 A 
ATOM     29  C   UNL     1       6.315   5.196  16.245  0.00  0.00    +0.000 A 
ATOM     30  C   UNL     1       5.463   4.474  17.086  0.00  0.00    +0.000 A 
ENDBRANCH  20  25
ENDBRANCH   2  19
TORSDOF 8
ENDMDL
MODEL 2
REMARK VINA RESULT:      -7.9      1.371      2.547
REMARK  Name = 
REMARK  11 active torsions:
REMARK  status: ('A' for Active; 'I' for Inactive)
REMARK    1  A    between atoms: C_2  and  C_3
REMARK    2  A    between atoms: C_3  and  N_4
REMARK    3  A    between atoms: N_4  and  C_5
REMARK    4  A    between atoms: N_4  and  C_7
REMARK    5  A    between atoms: N_4  and  C_9
REMARK    6  A    between atoms: C_5  and  C_6
REMARK    7  A    between atoms: C_7  and  C_8
REMARK    8  A    between atoms: C_12  and  N_13
REMARK    9  A    between atoms: C_14  and  C_16
REMARK   10  A    between atoms: C_17  and  C_18
REMARK   11  A    between atoms: C_26  and  C_27
REMARK                            x       y       z     vdW  Elec       q    Type
REMARK                         _______ _______ _______ _____ _____    ______ ____
ROOT
ATOM      1  N   UNL     1       2.590   6.796  19.825  0.00  0.00    +0.000 N 
ATOM      2  C   UNL     1       2.348   5.675  19.051  0.00  0.00    +0.000 C 
ATOM      3  O   UNL     1       1.654   5.645  18.047  0.00  0.00    +0.000 OA
ATOM      4  H   UNL     1       3.238   6.701  20.595  0.00  0.00    +0.000 HD
ENDROOT
BRANCH   1   8
ATOM      5  C   UNL     1       0.282  10.239  19.231  0.00  0.00    +0.000 A 
ATOM      6  C   UNL     1       1.213   9.877  18.247  0.00  0.00    +0.000 A 
ATOM      7  C   UNL     1       2.022   8.767  18.446  0.00  0.00    +0.000 A 
ATOM      8  C   UNL     1       1.993   8.063  19.650  0.00  0.00    +0.000 A 
ATOM      9  C   UNL     1       1.276   8.607  20.716  0.00  0.00    +0.000 A 
ATOM     10  C   UNL     1       0.444   9.720  20.512  0.00  0.00    +0.000 A 
BRANCH   5  11
ATOM     11  N   UNL     1      -1.010  10.963  18.775  0.00  0.00    +0.000 NA
BRANCH  11  12
ATOM     12  C   UNL     1      -0.526  12.084  17.823  0.00  0.00    +0.000 C 
ATOM     13  C   UNL     1       0.001  13.337  18.507  0.00  0.00    +0.000 C 
ENDBRANCH  11  12
BRANCH  11  14
ATOM     14  C   UNL     1      -1.731  11.593  20.010  0.00  0.00    +0.000 C 
ATOM     15  C   UNL     1      -3.080  12.244  19.740  0.00  0.00    +0.000 C 
ENDBRANCH  11  14
BRANCH  11  16
ATOM     16  C   UNL     1      -1.887   9.798  18.061  0.00  0.00    +0.000 C 
BRANCH  16  18
ATOM     17  C   UNL     1      -2.809  10.693  15.546  0.00  0.00    +0.000 C 
ATOM     18  C   UNL     1      -2.384  10.280  16.707  0.00  0.00    +0.000 C 
ENDBRANCH  16  18
ENDBRANCH  11  16
ENDBRANCH   5  11
ENDBRANCH   1   8
BRANCH   2  19
ATOM     19  C   UNL     1       3.038   4.487  19.502  0.00  0.00    +0.000 A 
ATOM     20  C   UNL     1       4.389   4.112  19.224  0.00  0.00    +0.000 A 
ATOM     21  N   UNL     1       4.642   2.895  19.731  0.00  0.00    +0.000 NA
ATOM     22  O   UNL     1       3.485   2.475  20.345  0.00  0.00    +0.000 OA
ATOM     23  C   UNL     1       2.523   3.422  20.211  0.00  0.00    +0.000 A 
ATOM     24  C   UNL     1       1.204   3.079  20.781  0.00  0.00    +0.000 C 
BRANCH  20  25
ATOM     25  C   UNL     1       5.423   4.873  18.520  0.00  0.00    +0.000 A 
ATOM     26  C   UNL     1       6.530   5.395  19.209  0.00  0.00    +0.000 A 
ATOM     27  C   UNL     1       7.493   6.154  18.541  0.00  0.00    +0.000 A 
ATOM     28  C   UNL     1       7.374   6.383  17.174  0.00  0.00    +0.000 A 
ATOM     29  C   UNL     1       6.294   5.849  16.470  0.00  0.00    +0.000 A 
ATOM     30  C   UNL     1       5.327   5.095  17.140  0.00  0.00    +0.000 A 
ENDBRANCH  20  25
ENDBRANCH   2  19
TORSDOF 8
ENDMDL
MODEL 3
REMARK VINA RESULT:      -7.9      0.844      2.097
REMARK  Name = 
REMARK  11 active torsions:
REMARK  status: ('A' for Active; 'I' for Inactive)
REMARK    1  A    between atoms: C_2  and  C_3
REMARK    2  A    between atoms: C_3  and  N_4
REMARK    3  A    between atoms: N_4  and  C_5
REMARK    4  A    between atoms: N_4  and  C_7
REMARK    5  A    between atoms: N_4  and  C_9
REMARK    6  A    between atoms: C_5  and  C_6
REMARK    7  A    between atoms: C_7  and  C_8
REMARK    8  A    between atoms: C_12  and  N_13
REMARK    9  A    between atoms: C_14  and  C_16
REMARK   10  A    between atoms: C_17  and  C_18
REMARK   11  A    between atoms: C_26  and  C_27
REMARK                            x       y       z     vdW  Elec       q    Type
REMARK                         _______ _______ _______ _____ _____    ______ ____
ROOT
ATOM      1  N   UNL     1       2.576   6.750  19.859  0.00  0.00    +0.000 N 
ATOM      2  C   UNL     1       2.526   5.631  19.047  0.00  0.00    +0.000 C 
ATOM      3  O   UNL     1       1.872   5.531  18.022  0.00  0.00    +0.000 OA
ATOM      4  H   UNL     1       3.210   6.729  20.646  0.00  0.00    +0.000 HD
ENDROOT
BRANCH   1   8
ATOM      5  C   UNL     1       0.815  10.532  19.489  0.00  0.00    +0.000 A 
ATOM      6  C   UNL     1       0.482   9.742  20.599  0.00  0.00    +0.000 A 
ATOM      7  C   UNL     1       1.017   8.467  20.716  0.00  0.00    +0.000 A 
ATOM      8  C   UNL     1       1.802   7.920  19.700  0.00  0.00    +0.000 A 
ATOM      9  C   UNL     1       1.882   8.605  18.487  0.00  0.00    +0.000 A 
ATOM     10  C   UNL     1       1.357   9.902  18.373  0.00  0.00    +0.000 A 
BRANCH   5  11
ATOM     11  N   UNL     1       0.820  12.071  19.671  0.00  0.00    +0.000 NA
BRANCH  11  12
ATOM     12  C   UNL     1       2.292  12.496  19.450  0.00  0.00    +0.000 C 
ATOM     13  C   UNL     1       2.542  13.367  18.228  0.00  0.00    +0.000 C 
ENDBRANCH  11  12
BRANCH  11  14
ATOM     14  C   UNL     1       0.376  12.437  21.123  0.00  0.00    +0.000 C 
ATOM     15  C   UNL     1       0.555  13.891  21.534  0.00  0.00    +0.000 C 
ENDBRANCH  11  14
BRANCH  11  16
ATOM     16  C   UNL     1      -0.218  12.606  18.541  0.00  0.00    +0.000 C 
BRANCH  16  18
ATOM     17  C   UNL     1      -2.868  11.997  19.302  0.00  0.00    +0.000 C 
ATOM     18  C   UNL     1      -1.645  12.278  18.951  0.00  0.00    +0.000 C 
ENDBRANCH  16  18
ENDBRANCH  11  16
ENDBRANCH   5  11
ENDBRANCH   1   8
BRANCH   2  19
ATOM     19  C   UNL     1       3.373   4.545  19.488  0.00  0.00    +0.000 A 
ATOM     20  C   UNL     1       4.779   4.404  19.277  0.00  0.00    +0.000 A 
ATOM     21  N   UNL     1       5.198   3.217  19.745  0.00  0.00    +0.000 NA
ATOM     22  O   UNL     1       4.092   2.587  20.268  0.00  0.00    +0.000 OA
ATOM     23  C   UNL     1       2.998   3.376  20.117  0.00  0.00    +0.000 A 
ATOM     24  C   UNL     1       1.723   2.799  20.589  0.00  0.00    +0.000 C 
BRANCH  20  25
ATOM     25  C   UNL     1       5.714   5.354  18.671  0.00  0.00    +0.000 A 
ATOM     26  C   UNL     1       6.984   5.572  19.229  0.00  0.00    +0.000 A 
ATOM     27  C   UNL     1       7.857   6.509  18.671  0.00  0.00    +0.000 A 
ATOM     28  C   UNL     1       7.480   7.225  17.540  0.00  0.00    +0.000 A 
ATOM     29  C   UNL     1       6.231   7.001  16.958  0.00  0.00    +0.000 A 
ATOM     30  C   UNL     1       5.355   6.068  17.520  0.00  0.00    +0.000 A 
ENDBRANCH  20  25
ENDBRANCH   2  19
TORSDOF 8
ENDMDL
MODEL 4
REMARK VINA RESULT:      -7.8      0.806      1.873
REMARK  Name = 
REMARK  11 active torsions:
REMARK  status: ('A' for Active; 'I' for Inactive)
REMARK    1  A    between atoms: C_2  and  C_3
REMARK    2  A    between atoms: C_3  and  N_4
REMARK    3  A    between atoms: N_4  and  C_5
REMARK    4  A    between atoms: N_4  and  C_7
REMARK    5  A    between atoms: N_4  and  C_9
REMARK    6  A    between atoms: C_5  and  C_6
REMARK    7  A    between atoms: C_7  and  C_8
REMARK    8  A    between atoms: C_12  and  N_13
REMARK    9  A    between atoms: C_14  and  C_16
REMARK   10  A    between atoms: C_17  and  C_18
REMARK   11  A    between atoms: C_26  and  C_27
REMARK                            x       y       z     vdW  Elec       q    Type
REMARK                         _______ _______ _______ _____ _____    ______ ____
ROOT
ATOM      1  N   UNL     1       2.639   6.748  19.791  0.00  0.00    +0.000 N 
ATOM      2  C   UNL     1       2.600   5.628  18.981  0.00  0.00    +0.000 C 
ATOM      3  O   UNL     1       1.959   5.524  17.948  0.00  0.00    +0.000 OA
ATOM      4  H   UNL     1       3.263   6.729  20.586  0.00  0.00    +0.000 HD
ENDROOT
BRANCH   1   8
ATOM      5  C   UNL     1       0.878  10.527  19.389  0.00  0.00    +0.000 A 
ATOM      6  C   UNL     1       0.539   9.743  20.501  0.00  0.00    +0.000 A 
ATOM      7  C   UNL     1       1.073   8.469  20.628  0.00  0.00    +0.000 A 
ATOM      8  C   UNL     1       1.865   7.917  19.621  0.00  0.00    +0.000 A 
ATOM      9  C   UNL     1       1.953   8.594  18.405  0.00  0.00    +0.000 A 
ATOM     10  C   UNL     1       1.428   9.891  18.279  0.00  0.00    +0.000 A 
BRANCH   5  11
ATOM     11  N   UNL     1       0.881  12.066  19.561  0.00  0.00    +0.000 NA
BRANCH  11  12
ATOM     12  C   UNL     1      -0.145  12.587  18.525  0.00  0.00    +0.000 C 
ATOM     13  C   UNL     1      -1.605  12.338  18.872  0.00  0.00    +0.000 C 
ENDBRANCH  11  12
BRANCH  11  14
ATOM     14  C   UNL     1       2.298  12.637  19.234  0.00  0.00    +0.000 C 
ATOM     15  C   UNL     1       2.362  13.687  18.135  0.00  0.00    +0.000 C 
ENDBRANCH  11  14
BRANCH  11  16
ATOM     16  C   UNL     1       0.454  12.293  21.112  0.00  0.00    +0.000 C 
BRANCH  16  18
ATOM     17  C   UNL     1       0.937  14.972  21.863  0.00  0.00    +0.000 C 
ATOM     18  C   UNL     1       0.714  13.736  21.516  0.00  0.00    +0.000 C 
ENDBRANCH  16  18
ENDBRANCH  11  16
ENDBRANCH   5  11
ENDBRANCH   1   8
BRANCH   2  19
ATOM     19  C   UNL     1       3.443   4.544  19.435  0.00  0.00    +0.000 A 
ATOM     20  C   UNL     1       4.853   4.405  19.243  0.00  0.00    +0.000 A 
ATOM     21  N   UNL     1       5.267   3.219  19.718  0.00  0.00    +0.000 NA
ATOM     22  O   UNL     1       4.155   2.587  20.226  0.00  0.00    +0.000 OA
ATOM     23  C   UNL     1       3.062   3.374  20.059  0.00  0.00    +0.000 A 
ATOM     24  C   UNL     1       1.782   2.795  20.513  0.00  0.00    +0.000 C 
BRANCH  20  25
ATOM     25  C   UNL     1       5.793   5.358  18.651  0.00  0.00    +0.000 A 
ATOM     26  C   UNL     1       7.041   5.606  19.246  0.00  0.00    +0.000 A 
ATOM     27  C   UNL     1       7.919   6.544  18.700  0.00  0.00    +0.000 A 
ATOM     28  C   UNL     1       7.570   7.232  17.542  0.00  0.00    +0.000 A 
ATOM     29  C   UNL     1       6.346   6.978  16.923  0.00  0.00    +0.000 A 
ATOM     30  C   UNL     1       5.464   6.043  17.473  0.00  0.00    +0.000 A 
ENDBRANCH  20  25
ENDBRANCH   2  19
TORSDOF 8
ENDMDL
MODEL 5
REMARK VINA RESULT:      -7.8      1.315      2.832
REMARK  Name = 
REMARK  11 active torsions:
REMARK  status: ('A' for Active; 'I' for Inactive)
REMARK    1  A    between atoms: C_2  and  C_3
REMARK    2  A    between atoms: C_3  and  N_4
REMARK    3  A    between atoms: N_4  and  C_5
REMARK    4  A    between atoms: N_4  and  C_7
REMARK    5  A    between atoms: N_4  and  C_9
REMARK    6  A    between atoms: C_5  and  C_6
REMARK    7  A    between atoms: C_7  and  C_8
REMARK    8  A    between atoms: C_12  and  N_13
REMARK    9  A    between atoms: C_14  and  C_16
REMARK   10  A    between atoms: C_17  and  C_18
REMARK   11  A    between atoms: C_26  and  C_27
REMARK                            x       y       z     vdW  Elec       q    Type
REMARK                         _______ _______ _______ _____ _____    ______ ____
ROOT
ATOM      1  N   UNL     1       2.590   6.568  19.863  0.00  0.00    +0.000 N 
ATOM      2  C   UNL     1       2.432   5.561  18.928  0.00  0.00    +0.000 C 
ATOM      3  O   UNL     1       1.913   5.690  17.831  0.00  0.00    +0.000 OA
ATOM      4  H   UNL     1       3.097   6.346  20.708  0.00  0.00    +0.000 HD
ENDROOT
BRANCH   1   8
ATOM      5  C   UNL     1       0.525  10.193  19.503  0.00  0.00    +0.000 A 
ATOM      6  C   UNL     1       1.342   9.778  18.442  0.00  0.00    +0.000 A 
ATOM      7  C   UNL     1       2.072   8.604  18.560  0.00  0.00    +0.000 A 
ATOM      8  C   UNL     1       2.084   7.882  19.754  0.00  0.00    +0.000 A 
ATOM      9  C   UNL     1       1.501   8.460  20.881  0.00  0.00    +0.000 A 
ATOM     10  C   UNL     1       0.747   9.638  20.760  0.00  0.00    +0.000 A 
BRANCH   5  11
ATOM     11  N   UNL     1      -0.737  11.025  19.164  0.00  0.00    +0.000 NA
BRANCH  11  12
ATOM     12  C   UNL     1      -1.682  10.039  18.433  0.00  0.00    +0.000 C 
ATOM     13  C   UNL     1      -2.163  10.492  17.063  0.00  0.00    +0.000 C 
ENDBRANCH  11  12
BRANCH  11  14
ATOM     14  C   UNL     1      -0.359  12.201  18.207  0.00  0.00    +0.000 C 
ATOM     15  C   UNL     1       0.488  13.312  18.809  0.00  0.00    +0.000 C 
ENDBRANCH  11  14
BRANCH  11  16
ATOM     16  C   UNL     1      -1.276  11.537  20.608  0.00  0.00    +0.000 C 
BRANCH  16  18
ATOM     17  C   UNL     1      -3.716  12.924  20.289  0.00  0.00    +0.000 C 
ATOM     18  C   UNL     1      -2.590  12.284  20.436  0.00  0.00    +0.000 C 
ENDBRANCH  16  18
ENDBRANCH  11  16
ENDBRANCH   5  11
ENDBRANCH   1   8
BRANCH   2  19
ATOM     19  C   UNL     1       2.987   4.289  19.333  0.00  0.00    +0.000 A 
ATOM     20  C   UNL     1       4.131   3.629  18.785  0.00  0.00    +0.000 A 
ATOM     21  N   UNL     1       4.280   2.420  19.351  0.00  0.00    +0.000 NA
ATOM     22  O   UNL     1       3.261   2.285  20.266  0.00  0.00    +0.000 OA
ATOM     23  C   UNL     1       2.485   3.398  20.260  0.00  0.00    +0.000 A 
ATOM     24  C   UNL     1       1.317   3.369  21.162  0.00  0.00    +0.000 C 
BRANCH  20  25
ATOM     25  C   UNL     1       5.071   4.116  17.774  0.00  0.00    +0.000 A 
ATOM     26  C   UNL     1       4.755   4.058  16.407  0.00  0.00    +0.000 A 
ATOM     27  C   UNL     1       5.670   4.487  15.444  0.00  0.00    +0.000 A 
ATOM     28  C   UNL     1       6.904   4.999  15.835  0.00  0.00    +0.000 A 
ATOM     29  C   UNL     1       7.222   5.088  17.191  0.00  0.00    +0.000 A 
ATOM     30  C   UNL     1       6.309   4.653  18.154  0.00  0.00    +0.000 A 
ENDBRANCH  20  25
ENDBRANCH   2  19
TORSDOF 8
ENDMDL
MODEL 6
REMARK VINA RESULT:      -7.8      1.408      1.996
REMARK  Name = 
REMARK  11 active torsions:
REMARK  status: ('A' for Active; 'I' for Inactive)
REMARK    1  A    between atoms: C_2  and  C_3
REMARK    2  A    between atoms: C_3  and  N_4
REMARK    3  A    between atoms: N_4  and  C_5
REMARK    4  A    between atoms: N_4  and  C_7
REMARK    5  A    between atoms: N_4  and  C_9
REMARK    6  A    between atoms: C_5  and  C_6
REMARK    7  A    between atoms: C_7  and  C_8
REMARK    8  A    between atoms: C_12  and  N_13
REMARK    9  A    between atoms: C_14  and  C_16
REMARK   10  A    between atoms: C_17  and  C_18
REMARK   11  A    between atoms: C_26  and  C_27
REMARK                            x       y       z     vdW  Elec       q    Type
REMARK                         _______ _______ _______ _____ _____    ______ ____
ROOT
ATOM      1  N   UNL     1       2.495   7.011  19.912  0.00  0.00    +0.000 N 
ATOM      2  C   UNL     1       2.422   5.955  19.022  0.00  0.00    +0.000 C 
ATOM      3  O   UNL     1       1.880   5.988  17.929  0.00  0.00    +0.000 OA
ATOM      4  H   UNL     1       3.030   6.874  20.758  0.00  0.00    +0.000 HD
ENDROOT
BRANCH   1   8
ATOM      5  C   UNL     1       0.106  10.403  19.342  0.00  0.00    +0.000 A 
ATOM      6  C   UNL     1       1.087  10.104  18.385  0.00  0.00    +0.000 A 
ATOM      7  C   UNL     1       1.921   9.013  18.580  0.00  0.00    +0.000 A 
ATOM      8  C   UNL     1       1.866   8.266  19.757  0.00  0.00    +0.000 A 
ATOM      9  C   UNL     1       1.090   8.750  20.810  0.00  0.00    +0.000 A 
ATOM     10  C   UNL     1       0.232   9.844  20.610  0.00  0.00    +0.000 A 
BRANCH   5  11
ATOM     11  N   UNL     1      -1.189  11.104  18.858  0.00  0.00    +0.000 NA
BRANCH  11  12
ATOM     12  C   UNL     1      -1.836  11.680  20.142  0.00  0.00    +0.000 C 
ATOM     13  C   UNL     1      -3.183  12.359  19.943  0.00  0.00    +0.000 C 
ENDBRANCH  11  12
BRANCH  11  14
ATOM     14  C   UNL     1      -2.148  10.057  18.206  0.00  0.00    +0.000 C 
ATOM     15  C   UNL     1      -2.226  10.072  16.687  0.00  0.00    +0.000 C 
ENDBRANCH  11  14
BRANCH  11  16
ATOM     16  C   UNL     1      -0.664  12.222  17.803  0.00  0.00    +0.000 C 
BRANCH  16  18
ATOM     17  C   UNL     1       0.287  14.488  19.193  0.00  0.00    +0.000 C 
ATOM     18  C   UNL     1      -0.152  13.442  18.551  0.00  0.00    +0.000 C 
ENDBRANCH  16  18
ENDBRANCH  11  16
ENDBRANCH   5  11
ENDBRANCH   1   8
BRANCH   2  19
ATOM     19  C   UNL     1       3.099   4.759  19.471  0.00  0.00    +0.000 A 
ATOM     20  C   UNL     1       4.474   4.417  19.276  0.00  0.00    +0.000 A 
ATOM     21  N   UNL     1       4.712   3.183  19.747  0.00  0.00    +0.000 NA
ATOM     22  O   UNL     1       3.521   2.718  20.256  0.00  0.00    +0.000 OA
ATOM     23  C   UNL     1       2.554   3.655  20.094  0.00  0.00    +0.000 A 
ATOM     24  C   UNL     1       1.204   3.267  20.550  0.00  0.00    +0.000 C 
BRANCH  20  25
ATOM     25  C   UNL     1       5.541   5.224  18.684  0.00  0.00    +0.000 A 
ATOM     26  C   UNL     1       6.754   5.428  19.362  0.00  0.00    +0.000 A 
ATOM     27  C   UNL     1       7.755   6.231  18.811  0.00  0.00    +0.000 A 
ATOM     28  C   UNL     1       7.565   6.824  17.567  0.00  0.00    +0.000 A 
ATOM     29  C   UNL     1       6.376   6.611  16.868  0.00  0.00    +0.000 A 
ATOM     30  C   UNL     1       5.372   5.812  17.422  0.00  0.00    +0.000 A 
ENDBRANCH  20  25
ENDBRANCH   2  19
TORSDOF 8
ENDMDL
MODEL 7
REMARK VINA RESULT:      -7.7      1.166      1.998
REMARK  Name = 
REMARK  11 active torsions:
REMARK  status: ('A' for Active; 'I' for Inactive)
REMARK    1  A    between atoms: C_2  and  C_3
REMARK    2  A    between atoms: C_3  and  N_4
REMARK    3  A    between atoms: N_4  and  C_5
REMARK    4  A    between atoms: N_4  and  C_7
REMARK    5  A    between atoms: N_4  and  C_9
REMARK    6  A    between atoms: C_5  and  C_6
REMARK    7  A    between atoms: C_7  and  C_8
REMARK    8  A    between atoms: C_12  and  N_13
REMARK    9  A    between atoms: C_14  and  C_16
REMARK   10  A    between atoms: C_17  and  C_18
REMARK   11  A    between atoms: C_26  and  C_27
REMARK                            x       y       z     vdW  Elec       q    Type
REMARK                         _______ _______ _______ _____ _____    ______ ____
ROOT
ATOM      1  N   UNL     1       2.589   6.602  19.822  0.00  0.00    +0.000 N 
ATOM      2  C   UNL     1       2.432   5.561  18.924  0.00  0.00    +0.000 C 
ATOM      3  O   UNL     1       1.902   5.646  17.829  0.00  0.00    +0.000 OA
ATOM      4  H   UNL     1       3.106   6.414  20.670  0.00  0.00    +0.000 HD
ENDROOT
BRANCH   1   8
ATOM      5  C   UNL     1       0.485  10.192  19.354  0.00  0.00    +0.000 A 
ATOM      6  C   UNL     1       1.299   9.749  18.302  0.00  0.00    +0.000 A 
ATOM      7  C   UNL     1       2.042   8.587  18.455  0.00  0.00    +0.000 A 
ATOM      8  C   UNL     1       2.069   7.906  19.672  0.00  0.00    +0.000 A 
ATOM      9  C   UNL     1       1.487   8.516  20.783  0.00  0.00    +0.000 A 
ATOM     10  C   UNL     1       0.721   9.682  20.628  0.00  0.00    +0.000 A 
BRANCH   5  11
ATOM     11  N   UNL     1      -0.788  10.999  18.995  0.00  0.00    +0.000 NA
BRANCH  11  12
ATOM     12  C   UNL     1      -1.435  11.353  20.357  0.00  0.00    +0.000 C 
ATOM     13  C   UNL     1      -2.521  12.418  20.304  0.00  0.00    +0.000 C 
ENDBRANCH  11  12
BRANCH  11  14
ATOM     14  C   UNL     1      -1.765  10.109  18.162  0.00  0.00    +0.000 C 
ATOM     15  C   UNL     1      -2.338  10.739  16.901  0.00  0.00    +0.000 C 
ENDBRANCH  11  14
BRANCH  11  16
ATOM     16  C   UNL     1      -0.228  12.273  18.158  0.00  0.00    +0.000 C 
BRANCH  16  18
ATOM     17  C   UNL     1       1.519  13.794  19.775  0.00  0.00    +0.000 C 
ATOM     18  C   UNL     1       0.713  13.092  19.029  0.00  0.00    +0.000 C 
ENDBRANCH  16  18
ENDBRANCH  11  16
ENDBRANCH   5  11
ENDBRANCH   1   8
BRANCH   2  19
ATOM     19  C   UNL     1       3.004   4.309  19.368  0.00  0.00    +0.000 A 
ATOM     20  C   UNL     1       4.157   3.649  18.842  0.00  0.00    +0.000 A 
ATOM     21  N   UNL     1       4.322   2.460  19.444  0.00  0.00    +0.000 NA
ATOM     22  O   UNL     1       3.304   2.338  20.362  0.00  0.00    +0.000 OA
ATOM     23  C   UNL     1       2.513   3.440  20.321  0.00  0.00    +0.000 A 
ATOM     24  C   UNL     1       1.343   3.421  21.221  0.00  0.00    +0.000 C 
BRANCH  20  25
ATOM     25  C   UNL     1       5.093   4.119  17.819  0.00  0.00    +0.000 A 
ATOM     26  C   UNL     1       4.778   4.021  16.453  0.00  0.00    +0.000 A 
ATOM     27  C   UNL     1       5.689   4.433  15.479  0.00  0.00    +0.000 A 
ATOM     28  C   UNL     1       6.917   4.968  15.856  0.00  0.00    +0.000 A 
ATOM     29  C   UNL     1       7.234   5.096  17.209  0.00  0.00    +0.000 A 
ATOM     30  C   UNL     1       6.325   4.677  18.184  0.00  0.00    +0.000 A 
ENDBRANCH  20  25
ENDBRANCH   2  19
TORSDOF 8
ENDMDL
MODEL 8
REMARK VINA RESULT:      -7.7      1.453      2.843
REMARK  Name = 
REMARK  11 active torsions:
REMARK  status: ('A' for Active; 'I' for Inactive)
REMARK    1  A    between atoms: C_2  and  C_3
REMARK    2  A    between atoms: C_3  and  N_4
REMARK    3  A    between atoms: N_4  and  C_5
REMARK    4  A    between atoms: N_4  and  C_7
REMARK    5  A    between atoms: N_4  and  C_9
REMARK    6  A    between atoms: C_5  and  C_6
REMARK    7  A    between atoms: C_7  and  C_8
REMARK    8  A    between atoms: C_12  and  N_13
REMARK    9  A    between atoms: C_14  and  C_16
REMARK   10  A    between atoms: C_17  and  C_18
REMARK   11  A    between atoms: C_26  and  C_27
REMARK                            x       y       z     vdW  Elec       q    Type
REMARK                         _______ _______ _______ _____ _____    ______ ____
ROOT
ATOM      1  N   UNL     1       2.392   6.962  20.137  0.00  0.00    +0.000 N 
ATOM      2  C   UNL     1       2.497   6.017  19.133  0.00  0.00    +0.000 C 
ATOM      3  O   UNL     1       2.156   6.178  17.972  0.00  0.00    +0.000 OA
ATOM      4  H   UNL     1       2.773   6.726  21.043  0.00  0.00    +0.000 HD
ENDROOT
BRANCH   1   8
ATOM      5  C   UNL     1       0.058  10.398  19.608  0.00  0.00    +0.000 A 
ATOM      6  C   UNL     1       1.117  10.162  18.718  0.00  0.00    +0.000 A 
ATOM      7  C   UNL     1       1.932   9.055  18.905  0.00  0.00    +0.000 A 
ATOM      8  C   UNL     1       1.778   8.228  20.018  0.00  0.00    +0.000 A 
ATOM      9  C   UNL     1       0.916   8.641  21.033  0.00  0.00    +0.000 A 
ATOM     10  C   UNL     1       0.077   9.750  20.840  0.00  0.00    +0.000 A 
BRANCH   5  11
ATOM     11  N   UNL     1      -1.191  11.138  19.067  0.00  0.00    +0.000 NA
BRANCH  11  12
ATOM     12  C   UNL     1      -2.061  10.033  18.418  0.00  0.00    +0.000 C 
ATOM     13  C   UNL     1      -2.161  10.091  16.901  0.00  0.00    +0.000 C 
ENDBRANCH  11  12
BRANCH  11  14
ATOM     14  C   UNL     1      -0.766  12.180  17.984  0.00  0.00    +0.000 C 
ATOM     15  C   UNL     1      -0.218  13.502  18.501  0.00  0.00    +0.000 C 
ENDBRANCH  11  14
BRANCH  11  16
ATOM     16  C   UNL     1      -1.845  11.829  20.384  0.00  0.00    +0.000 C 
BRANCH  16  18
ATOM     17  C   UNL     1      -4.482  12.668  19.822  0.00  0.00    +0.000 C 
ATOM     18  C   UNL     1      -3.265  12.281  20.082  0.00  0.00    +0.000 C 
ENDBRANCH  16  18
ENDBRANCH  11  16
ENDBRANCH   5  11
ENDBRANCH   1   8
BRANCH   2  19
ATOM     19  C   UNL     1       3.107   4.775  19.554  0.00  0.00    +0.000 A 
ATOM     20  C   UNL     1       4.426   4.312  19.255  0.00  0.00    +0.000 A 
ATOM     21  N   UNL     1       4.598   3.070  19.735  0.00  0.00    +0.000 NA
ATOM     22  O   UNL     1       3.419   2.720  20.353  0.00  0.00    +0.000 OA
ATOM     23  C   UNL     1       2.525   3.734  20.248  0.00  0.00    +0.000 A 
ATOM     24  C   UNL     1       1.190   3.473  20.825  0.00  0.00    +0.000 C 
BRANCH  20  25
ATOM     25  C   UNL     1       5.504   5.013  18.555  0.00  0.00    +0.000 A 
ATOM     26  C   UNL     1       6.619   5.502  19.253  0.00  0.00    +0.000 A 
ATOM     27  C   UNL     1       7.626   6.205  18.588  0.00  0.00    +0.000 A 
ATOM     28  C   UNL     1       7.541   6.409  17.215  0.00  0.00    +0.000 A 
ATOM     29  C   UNL     1       6.453   5.907  16.502  0.00  0.00    +0.000 A 
ATOM     30  C   UNL     1       5.442   5.209  17.168  0.00  0.00    +0.000 A 
ENDBRANCH  20  25
ENDBRANCH   2  19
TORSDOF 8
ENDMDL
MODEL 9
REMARK VINA RESULT:      -7.7      0.556      1.115
REMARK  Name = 
REMARK  11 active torsions:
REMARK  status: ('A' for Active; 'I' for Inactive)
REMARK    1  A    between atoms: C_2  and  C_3
REMARK    2  A    between atoms: C_3  and  N_4
REMARK    3  A    between atoms: N_4  and  C_5
REMARK    4  A    between atoms: N_4  and  C_7
REMARK    5  A    between atoms: N_4  and  C_9
REMARK    6  A    between atoms: C_5  and  C_6
REMARK    7  A    between atoms: C_7  and  C_8
REMARK    8  A    between atoms: C_12  and  N_13
REMARK    9  A    between atoms: C_14  and  C_16
REMARK   10  A    between atoms: C_17  and  C_18
REMARK   11  A    between atoms: C_26  and  C_27
REMARK                            x       y       z     vdW  Elec       q    Type
REMARK                         _______ _______ _______ _____ _____    ______ ____
ROOT
ATOM      1  N   UNL     1       2.672   6.407  19.779  0.00  0.00    +0.000 N 
ATOM      2  C   UNL     1       2.470   5.187  19.159  0.00  0.00    +0.000 C 
ATOM      3  O   UNL     1       1.689   4.980  18.245  0.00  0.00    +0.000 OA
ATOM      4  H   UNL     1       3.397   6.460  20.482  0.00  0.00    +0.000 HD
ENDROOT
BRANCH   1   8
ATOM      5  C   UNL     1       1.025  10.213  19.196  0.00  0.00    +0.000 A 
ATOM      6  C   UNL     1       0.584   9.451  20.288  0.00  0.00    +0.000 A 
ATOM      7  C   UNL     1       1.081   8.168  20.471  0.00  0.00    +0.000 A 
ATOM      8  C   UNL     1       1.938   7.588  19.535  0.00  0.00    +0.000 A 
ATOM      9  C   UNL     1       2.134   8.247  18.322  0.00  0.00    +0.000 A 
ATOM     10  C   UNL     1       1.646   9.552  18.140  0.00  0.00    +0.000 A 
BRANCH   5  11
ATOM     11  N   UNL     1       1.046  11.755  19.350  0.00  0.00    +0.000 NA
BRANCH  11  12
ATOM     12  C   UNL     1       1.335  12.003  20.851  0.00  0.00    +0.000 C 
ATOM     13  C   UNL     1       0.361  12.936  21.556  0.00  0.00    +0.000 C 
ENDBRANCH  11  12
BRANCH  11  14
ATOM     14  C   UNL     1      -0.351  12.346  18.976  0.00  0.00    +0.000 C 
ATOM     15  C   UNL     1      -0.345  13.543  18.037  0.00  0.00    +0.000 C 
ENDBRANCH  11  14
BRANCH  11  16
ATOM     16  C   UNL     1       2.224  12.239  18.343  0.00  0.00    +0.000 C 
BRANCH  16  18
ATOM     17  C   UNL     1       3.496  14.536  19.384  0.00  0.00    +0.000 C 
ATOM     18  C   UNL     1       2.910  13.475  18.903  0.00  0.00    +0.000 C 
ENDBRANCH  16  18
ENDBRANCH  11  16
ENDBRANCH   5  11
ENDBRANCH   1   8
BRANCH   2  19
ATOM     19  C   UNL     1       3.315   4.126  19.659  0.00  0.00    +0.000 A 
ATOM     20  C   UNL     1       4.584   3.714  19.144  0.00  0.00    +0.000 A 
ATOM     21  N   UNL     1       5.020   2.631  19.808  0.00  0.00    +0.000 NA
ATOM     22  O   UNL     1       4.065   2.336  20.753  0.00  0.00    +0.000 OA
ATOM     23  C   UNL     1       3.044   3.226  20.669  0.00  0.00    +0.000 A 
ATOM     24  C   UNL     1       1.917   2.996  21.596  0.00  0.00    +0.000 C 
BRANCH  20  25
ATOM     25  C   UNL     1       5.378   4.322  18.076  0.00  0.00    +0.000 A 
ATOM     26  C   UNL     1       5.092   4.060  16.726  0.00  0.00    +0.000 A 
ATOM     27  C   UNL     1       5.877   4.610  15.710  0.00  0.00    +0.000 A 
ATOM     28  C   UNL     1       6.944   5.445  16.029  0.00  0.00    +0.000 A 
ATOM     29  C   UNL     1       7.224   5.736  17.365  0.00  0.00    +0.000 A 
ATOM     30  C   UNL     1       6.443   5.181  18.381  0.00  0.00    +0.000 A 
ENDBRANCH  20  25
ENDBRANCH   2  19
TORSDOF 8
ENDMDL
