MODEL 1
REMARK VINA RESULT:      -7.3      0.000      0.000
REMARK  Name = 
REMARK  4 active torsions:
REMARK  status: ('A' for Active; 'I' for Inactive)
REMARK    1  A    between atoms: C_1  and  C_2
REMARK    2  A    between atoms: C_5  and  C_7
REMARK    3  A    between atoms: C_16  and  N_17
REMARK    4  A    between atoms: C_18  and  C_19
REMARK                            x       y       z     vdW  Elec       q    Type
REMARK                         _______ _______ _______ _____ _____    ______ ____
ROOT
ATOM      1  C   UNL     1      -3.214   9.658  15.557  0.00  0.00    +0.000 C 
ATOM      2  C   UNL     1      -2.721  10.276  16.816  0.00  0.00    +0.000 A 
ATOM      3  N   UNL     1      -1.449  10.068  17.187  0.00  0.00    +0.000 NA
ATOM      4  N   UNL     1      -1.292  10.814  18.313  0.00  0.00    +0.000 N 
ATOM      5  C   UNL     1      -0.051  10.857  18.985  0.00  0.00    +0.000 C 
ATOM      6  O   UNL     1       0.179  11.838  19.702  0.00  0.00    +0.000 OA
ATOM      7  C   UNL     1      -2.481  11.427  18.703  0.00  0.00    +0.000 A 
ATOM      8  C   UNL     1      -3.430  11.098  17.743  0.00  0.00    +0.000 A 
ENDROOT
BRANCH   5   9
ATOM      9  C   UNL     1       0.954   9.761  18.974  0.00  0.00    +0.000 A 
ATOM     10  C   UNL     1       1.806   9.585  17.861  0.00  0.00    +0.000 A 
ATOM     11  C   UNL     1       2.620   8.451  17.751  0.00  0.00    +0.000 A 
ATOM     12  C   UNL     1       2.547   7.515  18.763  0.00  0.00    +0.000 A 
ATOM     13  C   UNL     1       1.724   7.685  19.853  0.00  0.00    +0.000 A 
ATOM     14  C   UNL     1       0.916   8.794  19.991  0.00  0.00    +0.000 A 
ATOM     15  O   UNL     1       1.791   6.635  20.715  0.00  0.00    +0.000 OA
ATOM     16  C   UNL     1       2.715   5.770  20.023  0.00  0.00    +0.000 C 
ATOM     17  O   UNL     1       3.224   6.338  18.798  0.00  0.00    +0.000 OA
ENDBRANCH   5   9
BRANCH   8  18
ATOM     18  C   UNL     1      -4.834  11.492  17.820  0.00  0.00    +0.000 A 
ATOM     19  C   UNL     1      -5.367  12.426  16.917  0.00  0.00    +0.000 A 
ATOM     20  C   UNL     1      -6.654  12.940  17.089  0.00  0.00    +0.000 A 
ATOM     21  C   UNL     1      -7.451  12.479  18.131  0.00  0.00    +0.000 A 
ATOM     22  C   UNL     1      -6.967  11.495  18.989  0.00  0.00    +0.000 A 
ATOM     23  C   UNL     1      -5.662  11.012  18.842  0.00  0.00    +0.000 A 
ENDBRANCH   8  18
BRANCH   7  24
ATOM     24  N   UNL     1      -2.580  12.108  19.869  0.00  0.00    +0.000 N 
ATOM     25  H   UNL     1      -2.987  13.048  19.895  0.00  0.00    +0.000 HD
ATOM     26  H   UNL     1      -2.396  11.693  20.777  0.00  0.00    +0.000 HD
ENDBRANCH   7  24
TORSDOF 3
ENDMDL
MODEL 2
REMARK VINA RESULT:      -7.1      0.267      1.004
REMARK  Name = 
REMARK  4 active torsions:
REMARK  status: ('A' for Active; 'I' for Inactive)
REMARK    1  A    between atoms: C_1  and  C_2
REMARK    2  A    between atoms: C_5  and  C_7
REMARK    3  A    between atoms: C_16  and  N_17
REMARK    4  A    between atoms: C_18  and  C_19
REMARK                            x       y       z     vdW  Elec       q    Type
REMARK                         _______ _______ _______ _____ _____    ______ ____
ROOT
ATOM      1  C   UNL     1      -3.352   9.770  15.848  0.00  0.00    +0.000 C 
ATOM      2  C   UNL     1      -2.754  10.414  17.047  0.00  0.00    +0.000 A 
ATOM      3  N   UNL     1      -1.474  10.157  17.352  0.00  0.00    +0.000 NA
ATOM      4  N   UNL     1      -1.213  10.941  18.432  0.00  0.00    +0.000 N 
ATOM      5  C   UNL     1       0.067  10.949  19.029  0.00  0.00    +0.000 C 
ATOM      6  O   UNL     1       0.386  11.946  19.686  0.00  0.00    +0.000 OA
ATOM      7  C   UNL     1      -2.346  11.629  18.864  0.00  0.00    +0.000 A 
ATOM      8  C   UNL     1      -3.366  11.309  17.977  0.00  0.00    +0.000 A 
ENDROOT
BRANCH   5   9
ATOM      9  C   UNL     1       1.015   9.804  19.008  0.00  0.00    +0.000 A 
ATOM     10  C   UNL     1       1.813   9.559  17.867  0.00  0.00    +0.000 A 
ATOM     11  C   UNL     1       2.565   8.383  17.756  0.00  0.00    +0.000 A 
ATOM     12  C   UNL     1       2.486   7.477  18.795  0.00  0.00    +0.000 A 
ATOM     13  C   UNL     1       1.716   7.714  19.911  0.00  0.00    +0.000 A 
ATOM     14  C   UNL     1       0.970   8.865  20.050  0.00  0.00    +0.000 A 
ATOM     15  O   UNL     1       1.766   6.683  20.796  0.00  0.00    +0.000 OA
ATOM     16  C   UNL     1       2.618   5.757  20.092  0.00  0.00    +0.000 C 
ATOM     17  O   UNL     1       3.105   6.269  18.834  0.00  0.00    +0.000 OA
ENDBRANCH   5   9
BRANCH   8  18
ATOM     18  C   UNL     1      -4.742  11.776  18.118  0.00  0.00    +0.000 A 
ATOM     19  C   UNL     1      -5.480  11.494  19.279  0.00  0.00    +0.000 A 
ATOM     20  C   UNL     1      -6.844  11.781  19.352  0.00  0.00    +0.000 A 
ATOM     21  C   UNL     1      -7.478  12.414  18.289  0.00  0.00    +0.000 A 
ATOM     22  C   UNL     1      -6.744  12.772  17.161  0.00  0.00    +0.000 A 
ATOM     23  C   UNL     1      -5.387  12.446  17.071  0.00  0.00    +0.000 A 
ENDBRANCH   8  18
BRANCH   7  24
ATOM     24  N   UNL     1      -2.342  12.363  20.003  0.00  0.00    +0.000 N 
ATOM     25  H   UNL     1      -2.555  13.364  19.982  0.00  0.00    +0.000 HD
ATOM     26  H   UNL     1      -2.269  11.955  20.929  0.00  0.00    +0.000 HD
ENDBRANCH   7  24
TORSDOF 3
ENDMDL
MODEL 3
REMARK VINA RESULT:      -7.0      3.857      5.227
REMARK  Name = 
REMARK  4 active torsions:
REMARK  status: ('A' for Active; 'I' for Inactive)
REMARK    1  A    between atoms: C_1  and  C_2
REMARK    2  A    between atoms: C_5  and  C_7
REMARK    3  A    between atoms: C_16  and  N_17
REMARK    4  A    between atoms: C_18  and  C_19
REMARK                            x       y       z     vdW  Elec       q    Type
REMARK                         _______ _______ _______ _____ _____    ______ ____
ROOT
ATOM      1  C   UNL     1       3.038  14.324  20.718  0.00  0.00    +0.000 C 
ATOM      2  C   UNL     1       1.966  13.674  19.918  0.00  0.00    +0.000 A 
ATOM      3  N   UNL     1       1.872  12.336  19.925  0.00  0.00    +0.000 NA
ATOM      4  N   UNL     1       0.770  12.064  19.176  0.00  0.00    +0.000 N 
ATOM      5  C   UNL     1       0.342  10.734  18.975  0.00  0.00    +0.000 C 
ATOM      6  O   UNL     1      -0.846  10.551  18.687  0.00  0.00    +0.000 OA
ATOM      7  C   UNL     1       0.216  13.218  18.626  0.00  0.00    +0.000 A 
ATOM      8  C   UNL     1       0.972  14.284  19.095  0.00  0.00    +0.000 A 
ENDROOT
BRANCH   5   9
ATOM      9  C   UNL     1       1.239   9.547  18.984  0.00  0.00    +0.000 A 
ATOM     10  C   UNL     1       2.036   9.245  17.857  0.00  0.00    +0.000 A 
ATOM     11  C   UNL     1       2.736   8.036  17.775  0.00  0.00    +0.000 A 
ATOM     12  C   UNL     1       2.607   7.154  18.829  0.00  0.00    +0.000 A 
ATOM     13  C   UNL     1       1.837   7.445  19.933  0.00  0.00    +0.000 A 
ATOM     14  C   UNL     1       1.141   8.631  20.044  0.00  0.00    +0.000 A 
ATOM     15  O   UNL     1       1.832   6.430  20.837  0.00  0.00    +0.000 OA
ATOM     16  C   UNL     1       2.649   5.454  20.159  0.00  0.00    +0.000 C 
ATOM     17  O   UNL     1       3.171   5.920  18.897  0.00  0.00    +0.000 OA
ENDBRANCH   5   9
BRANCH   8  18
ATOM     18  C   UNL     1       0.757  15.672  18.696  0.00  0.00    +0.000 A 
ATOM     19  C   UNL     1      -0.507  16.269  18.830  0.00  0.00    +0.000 A 
ATOM     20  C   UNL     1      -0.768  17.531  18.292  0.00  0.00    +0.000 A 
ATOM     21  C   UNL     1       0.250  18.242  17.667  0.00  0.00    +0.000 A 
ATOM     22  C   UNL     1       1.530  17.698  17.594  0.00  0.00    +0.000 A 
ATOM     23  C   UNL     1       1.780  16.416  18.095  0.00  0.00    +0.000 A 
ENDBRANCH   8  18
BRANCH   7  24
ATOM     24  N   UNL     1      -0.807  13.162  17.740  0.00  0.00    +0.000 N 
ATOM     25  H   UNL     1      -0.754  12.559  16.914  0.00  0.00    +0.000 HD
ATOM     26  H   UNL     1      -1.712  13.590  17.905  0.00  0.00    +0.000 HD
ENDBRANCH   7  24
TORSDOF 3
ENDMDL
MODEL 4
REMARK VINA RESULT:      -6.9      3.928      8.023
REMARK  Name = 
REMARK  4 active torsions:
REMARK  status: ('A' for Active; 'I' for Inactive)
REMARK    1  A    between atoms: C_1  and  C_2
REMARK    2  A    between atoms: C_5  and  C_7
REMARK    3  A    between atoms: C_16  and  N_17
REMARK    4  A    between atoms: C_18  and  C_19
REMARK                            x       y       z     vdW  Elec       q    Type
REMARK                         _______ _______ _______ _____ _____    ______ ____
ROOT
ATOM      1  C   UNL     1      -0.634   9.946  17.903  0.00  0.00    +0.000 C 
ATOM      2  C   UNL     1      -0.169   9.886  19.314  0.00  0.00    +0.000 A 
ATOM      3  N   UNL     1      -0.790  10.636  20.235  0.00  0.00    +0.000 NA
ATOM      4  N   UNL     1      -0.193  10.304  21.411  0.00  0.00    +0.000 N 
ATOM      5  C   UNL     1      -0.608  10.892  22.625  0.00  0.00    +0.000 C 
ATOM      6  O   UNL     1      -0.372  10.276  23.671  0.00  0.00    +0.000 OA
ATOM      7  C   UNL     1       0.859   9.410  21.226  0.00  0.00    +0.000 A 
ATOM      8  C   UNL     1       0.897   9.115  19.869  0.00  0.00    +0.000 A 
ENDROOT
BRANCH   5   9
ATOM      9  C   UNL     1      -1.216  12.244  22.745  0.00  0.00    +0.000 A 
ATOM     10  C   UNL     1      -0.444  13.399  22.490  0.00  0.00    +0.000 A 
ATOM     11  C   UNL     1      -0.942  14.675  22.782  0.00  0.00    +0.000 A 
ATOM     12  C   UNL     1      -2.205  14.754  23.333  0.00  0.00    +0.000 A 
ATOM     13  C   UNL     1      -2.964  13.632  23.577  0.00  0.00    +0.000 A 
ATOM     14  C   UNL     1      -2.503  12.364  23.295  0.00  0.00    +0.000 A 
ATOM     15  O   UNL     1      -4.162  13.937  24.142  0.00  0.00    +0.000 OA
ATOM     16  C   UNL     1      -4.052  15.370  24.265  0.00  0.00    +0.000 C 
ATOM     17  O   UNL     1      -2.824  15.898  23.723  0.00  0.00    +0.000 OA
ENDBRANCH   5   9
BRANCH   8  18
ATOM     18  C   UNL     1       1.906   8.260  19.250  0.00  0.00    +0.000 A 
ATOM     19  C   UNL     1       2.535   8.643  18.055  0.00  0.00    +0.000 A 
ATOM     20  C   UNL     1       3.367   7.760  17.365  0.00  0.00    +0.000 A 
ATOM     21  C   UNL     1       3.633   6.502  17.893  0.00  0.00    +0.000 A 
ATOM     22  C   UNL     1       3.080   6.134  19.117  0.00  0.00    +0.000 A 
ATOM     23  C   UNL     1       2.213   7.003  19.787  0.00  0.00    +0.000 A 
ENDBRANCH   8  18
BRANCH   7  24
ATOM     24  N   UNL     1       1.674   9.050  22.247  0.00  0.00    +0.000 N 
ATOM     25  H   UNL     1       1.379   9.167  23.220  0.00  0.00    +0.000 HD
ATOM     26  H   UNL     1       2.537   8.531  22.117  0.00  0.00    +0.000 HD
ENDBRANCH   7  24
TORSDOF 3
ENDMDL
MODEL 5
REMARK VINA RESULT:      -6.9      3.822      5.578
REMARK  Name = 
REMARK  4 active torsions:
REMARK  status: ('A' for Active; 'I' for Inactive)
REMARK    1  A    between atoms: C_1  and  C_2
REMARK    2  A    between atoms: C_5  and  C_7
REMARK    3  A    between atoms: C_16  and  N_17
REMARK    4  A    between atoms: C_18  and  C_19
REMARK                            x       y       z     vdW  Elec       q    Type
REMARK                         _______ _______ _______ _____ _____    ______ ____
ROOT
ATOM      1  C   UNL     1       3.218  14.119  20.673  0.00  0.00    +0.000 C 
ATOM      2  C   UNL     1       2.055  13.576  19.921  0.00  0.00    +0.000 A 
ATOM      3  N   UNL     1       1.758  12.274  20.037  0.00  0.00    +0.000 NA
ATOM      4  N   UNL     1       0.623  12.113  19.304  0.00  0.00    +0.000 N 
ATOM      5  C   UNL     1      -0.004  10.852  19.209  0.00  0.00    +0.000 C 
ATOM      6  O   UNL     1      -1.207  10.830  18.928  0.00  0.00    +0.000 OA
ATOM      7  C   UNL     1       0.250  13.289  18.657  0.00  0.00    +0.000 A 
ATOM      8  C   UNL     1       1.162  14.262  19.043  0.00  0.00    +0.000 A 
ENDROOT
BRANCH   5   9
ATOM      9  C   UNL     1       0.701   9.547  19.323  0.00  0.00    +0.000 A 
ATOM     10  C   UNL     1       0.733   8.858  20.556  0.00  0.00    +0.000 A 
ATOM     11  C   UNL     1       1.548   7.732  20.729  0.00  0.00    +0.000 A 
ATOM     12  C   UNL     1       2.319   7.335  19.656  0.00  0.00    +0.000 A 
ATOM     13  C   UNL     1       2.287   7.999  18.450  0.00  0.00    +0.000 A 
ATOM     14  C   UNL     1       1.490   9.106  18.249  0.00  0.00    +0.000 A 
ATOM     15  O   UNL     1       3.140   7.454  17.542  0.00  0.00    +0.000 OA
ATOM     16  C   UNL     1       3.740   6.402  18.325  0.00  0.00    +0.000 C 
ATOM     17  O   UNL     1       3.200   6.301  19.659  0.00  0.00    +0.000 OA
ENDBRANCH   5   9
BRANCH   8  18
ATOM     18  C   UNL     1       1.159  15.629  18.530  0.00  0.00    +0.000 A 
ATOM     19  C   UNL     1      -0.004  16.413  18.583  0.00  0.00    +0.000 A 
ATOM     20  C   UNL     1      -0.069  17.651  17.940  0.00  0.00    +0.000 A 
ATOM     21  C   UNL     1       1.052  18.152  17.288  0.00  0.00    +0.000 A 
ATOM     22  C   UNL     1       2.239  17.424  17.292  0.00  0.00    +0.000 A 
ATOM     23  C   UNL     1       2.290  16.165  17.900  0.00  0.00    +0.000 A 
ENDBRANCH   8  18
BRANCH   7  24
ATOM     24  N   UNL     1      -0.775  13.318  17.770  0.00  0.00    +0.000 N 
ATOM     25  H   UNL     1      -1.091  12.462  17.306  0.00  0.00    +0.000 HD
ATOM     26  H   UNL     1      -1.362  14.132  17.622  0.00  0.00    +0.000 HD
ENDBRANCH   7  24
TORSDOF 3
ENDMDL
MODEL 6
REMARK VINA RESULT:      -6.8      4.049      4.979
REMARK  Name = 
REMARK  4 active torsions:
REMARK  status: ('A' for Active; 'I' for Inactive)
REMARK    1  A    between atoms: C_1  and  C_2
REMARK    2  A    between atoms: C_5  and  C_7
REMARK    3  A    between atoms: C_16  and  N_17
REMARK    4  A    between atoms: C_18  and  C_19
REMARK                            x       y       z     vdW  Elec       q    Type
REMARK                         _______ _______ _______ _____ _____    ______ ____
ROOT
ATOM      1  C   UNL     1       0.301   9.353  22.897  0.00  0.00    +0.000 C 
ATOM      2  C   UNL     1       0.614   9.689  21.482  0.00  0.00    +0.000 A 
ATOM      3  N   UNL     1       1.156   8.748  20.696  0.00  0.00    +0.000 NA
ATOM      4  N   UNL     1       1.246   9.333  19.471  0.00  0.00    +0.000 N 
ATOM      5  C   UNL     1       1.763   8.623  18.366  0.00  0.00    +0.000 C 
ATOM      6  O   UNL     1       1.434   9.001  17.237  0.00  0.00    +0.000 OA
ATOM      7  C   UNL     1       0.843  10.666  19.499  0.00  0.00    +0.000 A 
ATOM      8  C   UNL     1       0.420  10.926  20.796  0.00  0.00    +0.000 A 
ENDROOT
BRANCH   5   9
ATOM      9  C   UNL     1       2.753   7.517  18.461  0.00  0.00    +0.000 A 
ATOM     10  C   UNL     1       3.807   7.420  17.524  0.00  0.00    +0.000 A 
ATOM     11  C   UNL     1       4.629   6.287  17.482  0.00  0.00    +0.000 A 
ATOM     12  C   UNL     1       4.362   5.274  18.381  0.00  0.00    +0.000 A 
ATOM     13  C   UNL     1       3.341   5.367  19.301  0.00  0.00    +0.000 A 
ATOM     14  C   UNL     1       2.520   6.472  19.369  0.00  0.00    +0.000 A 
ATOM     15  O   UNL     1       3.242   4.250  20.070  0.00  0.00    +0.000 OA
ATOM     16  C   UNL     1       4.285   3.431  19.503  0.00  0.00    +0.000 C 
ATOM     17  O   UNL     1       5.022   4.089  18.451  0.00  0.00    +0.000 OA
ENDBRANCH   5   9
BRANCH   8  18
ATOM     18  C   UNL     1      -0.021  12.239  21.261  0.00  0.00    +0.000 A 
ATOM     19  C   UNL     1       0.884  13.309  21.351  0.00  0.00    +0.000 A 
ATOM     20  C   UNL     1       0.517  14.513  21.956  0.00  0.00    +0.000 A 
ATOM     21  C   UNL     1      -0.781  14.687  22.422  0.00  0.00    +0.000 A 
ATOM     22  C   UNL     1      -1.714  13.664  22.270  0.00  0.00    +0.000 A 
ATOM     23  C   UNL     1      -1.334  12.443  21.702  0.00  0.00    +0.000 A 
ENDBRANCH   8  18
BRANCH   7  24
ATOM     24  N   UNL     1       0.978  11.473  18.419  0.00  0.00    +0.000 N 
ATOM     25  H   UNL     1       0.162  11.750  17.866  0.00  0.00    +0.000 HD
ATOM     26  H   UNL     1       1.842  11.950  18.182  0.00  0.00    +0.000 HD
ENDBRANCH   7  24
TORSDOF 3
ENDMDL
MODEL 7
REMARK VINA RESULT:      -6.8      3.890      5.152
REMARK  Name = 
REMARK  4 active torsions:
REMARK  status: ('A' for Active; 'I' for Inactive)
REMARK    1  A    between atoms: C_1  and  C_2
REMARK    2  A    between atoms: C_5  and  C_7
REMARK    3  A    between atoms: C_16  and  N_17
REMARK    4  A    between atoms: C_18  and  C_19
REMARK                            x       y       z     vdW  Elec       q    Type
REMARK                         _______ _______ _______ _____ _____    ______ ____
ROOT
ATOM      1  C   UNL     1      -0.023   9.145  22.281  0.00  0.00    +0.000 C 
ATOM      2  C   UNL     1       0.627   9.317  20.954  0.00  0.00    +0.000 A 
ATOM      3  N   UNL     1       1.249   8.268  20.396  0.00  0.00    +0.000 NA
ATOM      4  N   UNL     1       1.661   8.719  19.181  0.00  0.00    +0.000 N 
ATOM      5  C   UNL     1       2.350   7.869  18.289  0.00  0.00    +0.000 C 
ATOM      6  O   UNL     1       2.316   8.151  17.086  0.00  0.00    +0.000 OA
ATOM      7  C   UNL     1       1.377  10.071  19.003  0.00  0.00    +0.000 A 
ATOM      8  C   UNL     1       0.698  10.488  20.140  0.00  0.00    +0.000 A 
ENDROOT
BRANCH   5   9
ATOM      9  C   UNL     1       3.196   6.717  18.703  0.00  0.00    +0.000 A 
ATOM     10  C   UNL     1       4.519   6.594  18.222  0.00  0.00    +0.000 A 
ATOM     11  C   UNL     1       5.259   5.426  18.445  0.00  0.00    +0.000 A 
ATOM     12  C   UNL     1       4.642   4.406  19.141  0.00  0.00    +0.000 A 
ATOM     13  C   UNL     1       3.356   4.524  19.617  0.00  0.00    +0.000 A 
ATOM     14  C   UNL     1       2.605   5.663  19.417  0.00  0.00    +0.000 A 
ATOM     15  O   UNL     1       2.939   3.395  20.250  0.00  0.00    +0.000 OA
ATOM     16  C   UNL     1       4.091   2.543  20.081  0.00  0.00    +0.000 C 
ATOM     17  O   UNL     1       5.188   3.191  19.405  0.00  0.00    +0.000 OA
ENDBRANCH   5   9
BRANCH   8  18
ATOM     18  C   UNL     1       0.278  11.866  20.378  0.00  0.00    +0.000 A 
ATOM     19  C   UNL     1       1.191  12.823  20.850  0.00  0.00    +0.000 A 
ATOM     20  C   UNL     1       0.763  14.091  21.246  0.00  0.00    +0.000 A 
ATOM     21  C   UNL     1      -0.575  14.444  21.116  0.00  0.00    +0.000 A 
ATOM     22  C   UNL     1      -1.481  13.534  20.576  0.00  0.00    +0.000 A 
ATOM     23  C   UNL     1      -1.060  12.249  20.219  0.00  0.00    +0.000 A 
ENDBRANCH   8  18
BRANCH   7  24
ATOM     24  N   UNL     1       1.819  10.754  17.919  0.00  0.00    +0.000 N 
ATOM     25  H   UNL     1       1.981  10.277  17.028  0.00  0.00    +0.000 HD
ATOM     26  H   UNL     1       1.881  11.766  17.884  0.00  0.00    +0.000 HD
ENDBRANCH   7  24
TORSDOF 3
ENDMDL
MODEL 8
REMARK VINA RESULT:      -6.8      3.910      5.178
REMARK  Name = 
REMARK  4 active torsions:
REMARK  status: ('A' for Active; 'I' for Inactive)
REMARK    1  A    between atoms: C_1  and  C_2
REMARK    2  A    between atoms: C_5  and  C_7
REMARK    3  A    between atoms: C_16  and  N_17
REMARK    4  A    between atoms: C_18  and  C_19
REMARK                            x       y       z     vdW  Elec       q    Type
REMARK                         _______ _______ _______ _____ _____    ______ ____
ROOT
ATOM      1  C   UNL     1       0.113   9.266  22.392  0.00  0.00    +0.000 C 
ATOM      2  C   UNL     1       0.704   9.408  21.034  0.00  0.00    +0.000 A 
ATOM      3  N   UNL     1       1.289   8.343  20.467  0.00  0.00    +0.000 NA
ATOM      4  N   UNL     1       1.651   8.769  19.226  0.00  0.00    +0.000 N 
ATOM      5  C   UNL     1       2.289   7.896  18.319  0.00  0.00    +0.000 C 
ATOM      6  O   UNL     1       2.204   8.159  17.114  0.00  0.00    +0.000 OA
ATOM      7  C   UNL     1       1.373  10.121  19.038  0.00  0.00    +0.000 A 
ATOM      8  C   UNL     1       0.750  10.564  20.198  0.00  0.00    +0.000 A 
ENDROOT
BRANCH   5   9
ATOM      9  C   UNL     1       3.141   6.743  18.714  0.00  0.00    +0.000 A 
ATOM     10  C   UNL     1       4.443   6.600  18.182  0.00  0.00    +0.000 A 
ATOM     11  C   UNL     1       5.180   5.429  18.391  0.00  0.00    +0.000 A 
ATOM     12  C   UNL     1       4.583   4.424  19.125  0.00  0.00    +0.000 A 
ATOM     13  C   UNL     1       3.318   4.559  19.651  0.00  0.00    +0.000 A 
ATOM     14  C   UNL     1       2.571   5.703  19.466  0.00  0.00    +0.000 A 
ATOM     15  O   UNL     1       2.918   3.443  20.316  0.00  0.00    +0.000 OA
ATOM     16  C   UNL     1       4.054   2.578  20.112  0.00  0.00    +0.000 C 
ATOM     17  O   UNL     1       5.129   3.207  19.383  0.00  0.00    +0.000 OA
ENDBRANCH   5   9
BRANCH   8  18
ATOM     18  C   UNL     1       0.356  11.951  20.431  0.00  0.00    +0.000 A 
ATOM     19  C   UNL     1      -0.946  12.386  20.133  0.00  0.00    +0.000 A 
ATOM     20  C   UNL     1      -1.282  13.739  20.185  0.00  0.00    +0.000 A 
ATOM     21  C   UNL     1      -0.338  14.673  20.597  0.00  0.00    +0.000 A 
ATOM     22  C   UNL     1       0.935  14.250  20.972  0.00  0.00    +0.000 A 
ATOM     23  C   UNL     1       1.284  12.898  20.879  0.00  0.00    +0.000 A 
ENDBRANCH   8  18
BRANCH   7  24
ATOM     24  N   UNL     1       1.773  10.781  17.924  0.00  0.00    +0.000 N 
ATOM     25  H   UNL     1       1.644  10.369  16.996  0.00  0.00    +0.000 HD
ATOM     26  H   UNL     1       2.083  11.747  17.929  0.00  0.00    +0.000 HD
ENDBRANCH   7  24
TORSDOF 3
ENDMDL
MODEL 9
REMARK VINA RESULT:      -6.7      3.810      5.124
REMARK  Name = 
REMARK  4 active torsions:
REMARK  status: ('A' for Active; 'I' for Inactive)
REMARK    1  A    between atoms: C_1  and  C_2
REMARK    2  A    between atoms: C_5  and  C_7
REMARK    3  A    between atoms: C_16  and  N_17
REMARK    4  A    between atoms: C_18  and  C_19
REMARK                            x       y       z     vdW  Elec       q    Type
REMARK                         _______ _______ _______ _____ _____    ______ ____
ROOT
ATOM      1  C   UNL     1       2.702  14.143  20.998  0.00  0.00    +0.000 C 
ATOM      2  C   UNL     1       1.733  13.498  20.072  0.00  0.00    +0.000 A 
ATOM      3  N   UNL     1       1.677  12.160  20.020  0.00  0.00    +0.000 NA
ATOM      4  N   UNL     1       0.662  11.890  19.156  0.00  0.00    +0.000 N 
ATOM      5  C   UNL     1       0.294  10.559  18.864  0.00  0.00    +0.000 C 
ATOM      6  O   UNL     1      -0.854  10.359  18.452  0.00  0.00    +0.000 OA
ATOM      7  C   UNL     1       0.133  13.051  18.596  0.00  0.00    +0.000 A 
ATOM      8  C   UNL     1       0.808  14.117  19.178  0.00  0.00    +0.000 A 
ENDROOT
BRANCH   5   9
ATOM      9  C   UNL     1       1.219   9.396  18.919  0.00  0.00    +0.000 A 
ATOM     10  C   UNL     1       2.064   9.103  17.825  0.00  0.00    +0.000 A 
ATOM     11  C   UNL     1       2.796   7.910  17.781  0.00  0.00    +0.000 A 
ATOM     12  C   UNL     1       2.650   7.036  18.839  0.00  0.00    +0.000 A 
ATOM     13  C   UNL     1       1.833   7.319  19.911  0.00  0.00    +0.000 A 
ATOM     14  C   UNL     1       1.105   8.487  19.984  0.00  0.00    +0.000 A 
ATOM     15  O   UNL     1       1.821   6.313  20.825  0.00  0.00    +0.000 OA
ATOM     16  C   UNL     1       2.686   5.350  20.188  0.00  0.00    +0.000 C 
ATOM     17  O   UNL     1       3.242   5.817  18.941  0.00  0.00    +0.000 OA
ENDBRANCH   5   9
BRANCH   8  18
ATOM     18  C   UNL     1       0.593  15.514  18.810  0.00  0.00    +0.000 A 
ATOM     19  C   UNL     1       1.614  16.259  18.200  0.00  0.00    +0.000 A 
ATOM     20  C   UNL     1       1.483  17.635  18.005  0.00  0.00    +0.000 A 
ATOM     21  C   UNL     1       0.301  18.276  18.360  0.00  0.00    +0.000 A 
ATOM     22  C   UNL     1      -0.752  17.538  18.895  0.00  0.00    +0.000 A 
ATOM     23  C   UNL     1      -0.604  16.167  19.129  0.00  0.00    +0.000 A 
ENDBRANCH   8  18
BRANCH   7  24
ATOM     24  N   UNL     1      -0.797  13.006  17.611  0.00  0.00    +0.000 N 
ATOM     25  H   UNL     1      -0.532  12.768  16.651  0.00  0.00    +0.000 HD
ATOM     26  H   UNL     1      -1.795  13.064  17.782  0.00  0.00    +0.000 HD
ENDBRANCH   7  24
TORSDOF 3
ENDMDL
