MODEL 1
REMARK VINA RESULT:      -8.2      0.000      0.000
REMARK  Name = 
REMARK  4 active torsions:
REMARK  status: ('A' for Active; 'I' for Inactive)
REMARK    1  A    between atoms: C_1  and  O_2
REMARK    2  A    between atoms: O_2  and  C_3
REMARK    3  A    between atoms: C_3  and  C_5
REMARK    4  A    between atoms: C_14  and  C_15
REMARK                            x       y       z     vdW  Elec       q    Type
REMARK                         _______ _______ _______ _____ _____    ______ ____
ROOT
ATOM      1  C   UNL     1       6.844   5.110  16.500  0.00  0.00    +0.000 A 
ATOM      2  N   UNL     1       7.595   5.431  15.388  0.00  0.00    +0.000 N 
ATOM      3  C   UNL     1       7.101   4.837  14.256  0.00  0.00    +0.000 A 
ATOM      4  C   UNL     1       7.597   4.875  12.948  0.00  0.00    +0.000 A 
ATOM      5  C   UNL     1       6.872   4.192  11.972  0.00  0.00    +0.000 A 
ATOM      6  C   UNL     1       5.701   3.524  12.306  0.00  0.00    +0.000 A 
ATOM      7  F   UNL     1       5.014   2.895  11.341  0.00  0.00    +0.000 F 
ATOM      8  C   UNL     1       5.220   3.485  13.618  0.00  0.00    +0.000 A 
ATOM      9  C   UNL     1       5.949   4.146  14.626  0.00  0.00    +0.000 A 
ATOM     10  C   UNL     1       5.811   4.301  16.042  0.00  0.00    +0.000 A 
ATOM     11  H   UNL     1       8.419   6.018  15.426  0.00  0.00    +0.000 HD
ENDROOT
BRANCH  10  12
ATOM     12  C   UNL     1       4.816   3.691  16.866  0.00  0.00    +0.000 C 
ATOM     13  C   UNL     1       3.842   4.332  17.530  0.00  0.00    +0.000 C 
ATOM     14  S   UNL     1       3.543   6.038  17.494  0.00  0.00    +0.000 S 
ATOM     15  C   UNL     1       2.764   5.995  19.053  0.00  0.00    +0.000 C 
ATOM     16  O   UNL     1       2.564   6.971  19.752  0.00  0.00    +0.000 OA
ATOM     17  N   UNL     1       2.479   4.705  19.381  0.00  0.00    +0.000 N 
ATOM     18  C   UNL     1       3.001   3.710  18.594  0.00  0.00    +0.000 C 
ATOM     19  S   UNL     1       2.707   2.109  18.943  0.00  0.00    +0.000 S 
ATOM     20  H   UNL     1       2.016   4.505  20.254  0.00  0.00    +0.000 HD
ENDBRANCH  10  12
BRANCH   1  21
ATOM     21  C   UNL     1       7.252   5.634  17.784  0.00  0.00    +0.000 C 
ATOM     22  O   UNL     1       7.841   4.972  18.629  0.00  0.00    +0.000 OA
BRANCH  21  24
ATOM     23  C   UNL     1       8.009   7.830  17.977  0.00  0.00    +0.000 C 
ATOM     24  O   UNL     1       6.892   6.937  17.946  0.00  0.00    +0.000 OA
ENDBRANCH  21  24
ENDBRANCH   1  21
TORSDOF 3
ENDMDL
MODEL 2
REMARK VINA RESULT:      -8.1      3.363      6.630
REMARK  Name = 
REMARK  4 active torsions:
REMARK  status: ('A' for Active; 'I' for Inactive)
REMARK    1  A    between atoms: C_1  and  O_2
REMARK    2  A    between atoms: O_2  and  C_3
REMARK    3  A    between atoms: C_3  and  C_5
REMARK    4  A    between atoms: C_14  and  C_15
REMARK                            x       y       z     vdW  Elec       q    Type
REMARK                         _______ _______ _______ _____ _____    ______ ____
ROOT
ATOM      1  C   UNL     1       3.172   4.446  19.657  0.00  0.00    +0.000 A 
ATOM      2  N   UNL     1       2.433   5.189  20.553  0.00  0.00    +0.000 N 
ATOM      3  C   UNL     1       2.170   6.446  20.074  0.00  0.00    +0.000 A 
ATOM      4  C   UNL     1       1.496   7.506  20.689  0.00  0.00    +0.000 A 
ATOM      5  C   UNL     1       1.348   8.681  19.953  0.00  0.00    +0.000 A 
ATOM      6  C   UNL     1       1.842   8.765  18.658  0.00  0.00    +0.000 A 
ATOM      7  F   UNL     1       1.664   9.900  17.967  0.00  0.00    +0.000 F 
ATOM      8  C   UNL     1       2.522   7.703  18.055  0.00  0.00    +0.000 A 
ATOM      9  C   UNL     1       2.707   6.514  18.789  0.00  0.00    +0.000 A 
ATOM     10  C   UNL     1       3.357   5.262  18.547  0.00  0.00    +0.000 A 
ATOM     11  H   UNL     1       2.146   4.840  21.459  0.00  0.00    +0.000 HD
ENDROOT
BRANCH  10  12
ATOM     12  C   UNL     1       4.117   4.916  17.387  0.00  0.00    +0.000 C 
ATOM     13  C   UNL     1       5.394   5.255  17.153  0.00  0.00    +0.000 C 
ATOM     14  S   UNL     1       6.422   6.142  18.228  0.00  0.00    +0.000 S 
ATOM     15  C   UNL     1       7.414   6.707  16.910  0.00  0.00    +0.000 C 
ATOM     16  O   UNL     1       8.183   7.648  16.979  0.00  0.00    +0.000 OA
ATOM     17  N   UNL     1       7.142   5.977  15.795  0.00  0.00    +0.000 N 
ATOM     18  C   UNL     1       6.067   5.126  15.828  0.00  0.00    +0.000 C 
ATOM     19  S   UNL     1       5.666   4.211  14.495  0.00  0.00    +0.000 S 
ATOM     20  H   UNL     1       7.640   6.172  14.939  0.00  0.00    +0.000 HD
ENDBRANCH  10  12
BRANCH   1  21
ATOM     21  C   UNL     1       3.560   3.103  20.025  0.00  0.00    +0.000 C 
ATOM     22  O   UNL     1       4.723   2.727  20.080  0.00  0.00    +0.000 OA
BRANCH  21  24
ATOM     23  C   UNL     1       1.710   2.010  19.122  0.00  0.00    +0.000 C 
ATOM     24  O   UNL     1       2.484   2.311  20.287  0.00  0.00    +0.000 OA
ENDBRANCH  21  24
ENDBRANCH   1  21
TORSDOF 3
ENDMDL
MODEL 3
REMARK VINA RESULT:      -7.5      3.283      6.563
REMARK  Name = 
REMARK  4 active torsions:
REMARK  status: ('A' for Active; 'I' for Inactive)
REMARK    1  A    between atoms: C_1  and  O_2
REMARK    2  A    between atoms: O_2  and  C_3
REMARK    3  A    between atoms: C_3  and  C_5
REMARK    4  A    between atoms: C_14  and  C_15
REMARK                            x       y       z     vdW  Elec       q    Type
REMARK                         _______ _______ _______ _____ _____    ______ ____
ROOT
ATOM      1  C   UNL     1       2.853   4.040  19.310  0.00  0.00    +0.000 A 
ATOM      2  N   UNL     1       2.129   4.746  20.248  0.00  0.00    +0.000 N 
ATOM      3  C   UNL     1       2.036   6.074  19.922  0.00  0.00    +0.000 A 
ATOM      4  C   UNL     1       1.432   7.119  20.628  0.00  0.00    +0.000 A 
ATOM      5  C   UNL     1       1.464   8.385  20.044  0.00  0.00    +0.000 A 
ATOM      6  C   UNL     1       2.063   8.571  18.804  0.00  0.00    +0.000 A 
ATOM      7  F   UNL     1       2.058   9.796  18.259  0.00  0.00    +0.000 F 
ATOM      8  C   UNL     1       2.672   7.521  18.112  0.00  0.00    +0.000 A 
ATOM      9  C   UNL     1       2.675   6.238  18.694  0.00  0.00    +0.000 A 
ATOM     10  C   UNL     1       3.208   4.960  18.331  0.00  0.00    +0.000 A 
ATOM     11  H   UNL     1       1.738   4.322  21.080  0.00  0.00    +0.000 HD
ENDROOT
BRANCH  10  12
ATOM     12  C   UNL     1       4.014   4.676  17.186  0.00  0.00    +0.000 C 
ATOM     13  C   UNL     1       5.294   5.041  17.015  0.00  0.00    +0.000 C 
ATOM     14  S   UNL     1       6.269   5.893  18.165  0.00  0.00    +0.000 S 
ATOM     15  C   UNL     1       7.299   6.529  16.911  0.00  0.00    +0.000 C 
ATOM     16  O   UNL     1       8.051   7.476  17.049  0.00  0.00    +0.000 OA
ATOM     17  N   UNL     1       7.079   5.846  15.755  0.00  0.00    +0.000 N 
ATOM     18  C   UNL     1       6.016   4.980  15.710  0.00  0.00    +0.000 C 
ATOM     19  S   UNL     1       5.678   4.120  14.325  0.00  0.00    +0.000 S 
ATOM     20  H   UNL     1       7.605   6.085  14.928  0.00  0.00    +0.000 HD
ENDBRANCH  10  12
BRANCH   1  21
ATOM     21  C   UNL     1       3.069   2.627  19.523  0.00  0.00    +0.000 C 
ATOM     22  O   UNL     1       2.751   1.765  18.715  0.00  0.00    +0.000 OA
BRANCH  21  24
ATOM     23  C   UNL     1       4.914   1.712  20.614  0.00  0.00    +0.000 C 
ATOM     24  O   UNL     1       3.650   2.371  20.728  0.00  0.00    +0.000 OA
ENDBRANCH  21  24
ENDBRANCH   1  21
TORSDOF 3
ENDMDL
MODEL 4
REMARK VINA RESULT:      -7.4      2.917      6.138
REMARK  Name = 
REMARK  4 active torsions:
REMARK  status: ('A' for Active; 'I' for Inactive)
REMARK    1  A    between atoms: C_1  and  O_2
REMARK    2  A    between atoms: O_2  and  C_3
REMARK    3  A    between atoms: C_3  and  C_5
REMARK    4  A    between atoms: C_14  and  C_15
REMARK                            x       y       z     vdW  Elec       q    Type
REMARK                         _______ _______ _______ _____ _____    ______ ____
ROOT
ATOM      1  C   UNL     1       2.506   6.262  19.115  0.00  0.00    +0.000 A 
ATOM      2  N   UNL     1       1.486   5.340  19.226  0.00  0.00    +0.000 N 
ATOM      3  C   UNL     1       1.935   4.061  19.023  0.00  0.00    +0.000 A 
ATOM      4  C   UNL     1       1.215   2.862  19.005  0.00  0.00    +0.000 A 
ATOM      5  C   UNL     1       1.938   1.687  18.797  0.00  0.00    +0.000 A 
ATOM      6  C   UNL     1       3.317   1.731  18.633  0.00  0.00    +0.000 A 
ATOM      7  F   UNL     1       3.986   0.583  18.458  0.00  0.00    +0.000 F 
ATOM      8  C   UNL     1       4.025   2.936  18.643  0.00  0.00    +0.000 A 
ATOM      9  C   UNL     1       3.313   4.138  18.826  0.00  0.00    +0.000 A 
ATOM     10  C   UNL     1       3.657   5.527  18.859  0.00  0.00    +0.000 A 
ATOM     11  H   UNL     1       0.525   5.596  19.416  0.00  0.00    +0.000 HD
ENDROOT
BRANCH  10  12
ATOM     12  C   UNL     1       4.952   6.082  18.619  0.00  0.00    +0.000 C 
ATOM     13  C   UNL     1       5.606   6.075  17.447  0.00  0.00    +0.000 C 
ATOM     14  S   UNL     1       5.004   5.439  15.953  0.00  0.00    +0.000 S 
ATOM     15  C   UNL     1       6.618   5.172  15.347  0.00  0.00    +0.000 C 
ATOM     16  O   UNL     1       6.891   4.448  14.408  0.00  0.00    +0.000 OA
ATOM     17  N   UNL     1       7.510   5.843  16.126  0.00  0.00    +0.000 N 
ATOM     18  C   UNL     1       7.054   6.402  17.293  0.00  0.00    +0.000 C 
ATOM     19  S   UNL     1       8.091   7.226  18.301  0.00  0.00    +0.000 S 
ATOM     20  H   UNL     1       8.493   5.801  15.905  0.00  0.00    +0.000 HD
ENDBRANCH  10  12
BRANCH   1  21
ATOM     21  C   UNL     1       2.191   7.664  19.273  0.00  0.00    +0.000 C 
ATOM     22  O   UNL     1       1.739   8.143  20.305  0.00  0.00    +0.000 OA
BRANCH  21  24
ATOM     23  C   UNL     1       1.542   9.474  17.957  0.00  0.00    +0.000 C 
ATOM     24  O   UNL     1       2.442   8.378  18.142  0.00  0.00    +0.000 OA
ENDBRANCH  21  24
ENDBRANCH   1  21
TORSDOF 3
ENDMDL
MODEL 5
REMARK VINA RESULT:      -7.3      1.665      1.924
REMARK  Name = 
REMARK  4 active torsions:
REMARK  status: ('A' for Active; 'I' for Inactive)
REMARK    1  A    between atoms: C_1  and  O_2
REMARK    2  A    between atoms: O_2  and  C_3
REMARK    3  A    between atoms: C_3  and  C_5
REMARK    4  A    between atoms: C_14  and  C_15
REMARK                            x       y       z     vdW  Elec       q    Type
REMARK                         _______ _______ _______ _____ _____    ______ ____
ROOT
ATOM      1  C   UNL     1       6.779   5.917  16.226  0.00  0.00    +0.000 A 
ATOM      2  N   UNL     1       7.643   5.691  15.176  0.00  0.00    +0.000 N 
ATOM      3  C   UNL     1       7.063   4.921  14.201  0.00  0.00    +0.000 A 
ATOM      4  C   UNL     1       7.615   4.437  13.010  0.00  0.00    +0.000 A 
ATOM      5  C   UNL     1       6.781   3.688  12.179  0.00  0.00    +0.000 A 
ATOM      6  C   UNL     1       5.458   3.462  12.533  0.00  0.00    +0.000 A 
ATOM      7  F   UNL     1       4.675   2.758  11.703  0.00  0.00    +0.000 F 
ATOM      8  C   UNL     1       4.919   3.942  13.730  0.00  0.00    +0.000 A 
ATOM      9  C   UNL     1       5.749   4.679  14.598  0.00  0.00    +0.000 A 
ATOM     10  C   UNL     1       5.589   5.286  15.885  0.00  0.00    +0.000 A 
ATOM     11  H   UNL     1       8.592   6.041  15.153  0.00  0.00    +0.000 HD
ENDROOT
BRANCH  10  12
ATOM     12  C   UNL     1       4.424   5.218  16.711  0.00  0.00    +0.000 C 
ATOM     13  C   UNL     1       4.344   4.620  17.909  0.00  0.00    +0.000 C 
ATOM     14  S   UNL     1       5.646   3.843  18.745  0.00  0.00    +0.000 S 
ATOM     15  C   UNL     1       4.546   2.825  19.637  0.00  0.00    +0.000 C 
ATOM     16  O   UNL     1       4.868   1.808  20.222  0.00  0.00    +0.000 OA
ATOM     17  N   UNL     1       3.282   3.313  19.517  0.00  0.00    +0.000 N 
ATOM     18  C   UNL     1       3.062   4.321  18.613  0.00  0.00    +0.000 C 
ATOM     19  S   UNL     1       1.538   4.957  18.402  0.00  0.00    +0.000 S 
ATOM     20  H   UNL     1       2.521   2.843  19.984  0.00  0.00    +0.000 HD
ENDBRANCH  10  12
BRANCH   1  21
ATOM     21  C   UNL     1       7.248   6.690  17.354  0.00  0.00    +0.000 C 
ATOM     22  O   UNL     1       7.765   6.194  18.346  0.00  0.00    +0.000 OA
BRANCH  21  24
ATOM     23  C   UNL     1       8.021   8.837  17.832  0.00  0.00    +0.000 C 
ATOM     24  O   UNL     1       7.035   8.025  17.188  0.00  0.00    +0.000 OA
ENDBRANCH  21  24
ENDBRANCH   1  21
TORSDOF 3
ENDMDL
MODEL 6
REMARK VINA RESULT:      -7.2      4.087      5.928
REMARK  Name = 
REMARK  4 active torsions:
REMARK  status: ('A' for Active; 'I' for Inactive)
REMARK    1  A    between atoms: C_1  and  O_2
REMARK    2  A    between atoms: O_2  and  C_3
REMARK    3  A    between atoms: C_3  and  C_5
REMARK    4  A    between atoms: C_14  and  C_15
REMARK                            x       y       z     vdW  Elec       q    Type
REMARK                         _______ _______ _______ _____ _____    ______ ____
ROOT
ATOM      1  C   UNL     1       4.243   6.836  17.290  0.00  0.00    +0.000 A 
ATOM      2  N   UNL     1       3.659   8.073  17.117  0.00  0.00    +0.000 N 
ATOM      3  C   UNL     1       2.734   8.337  18.093  0.00  0.00    +0.000 A 
ATOM      4  C   UNL     1       1.901   9.450  18.247  0.00  0.00    +0.000 A 
ATOM      5  C   UNL     1       1.062   9.470  19.361  0.00  0.00    +0.000 A 
ATOM      6  C   UNL     1       1.083   8.424  20.274  0.00  0.00    +0.000 A 
ATOM      7  F   UNL     1       0.280   8.482  21.346  0.00  0.00    +0.000 F 
ATOM      8  C   UNL     1       1.912   7.311  20.105  0.00  0.00    +0.000 A 
ATOM      9  C   UNL     1       2.750   7.257  18.974  0.00  0.00    +0.000 A 
ATOM     10  C   UNL     1       3.682   6.307  18.446  0.00  0.00    +0.000 A 
ATOM     11  H   UNL     1       3.884   8.690  16.346  0.00  0.00    +0.000 HD
ENDROOT
BRANCH  10  12
ATOM     12  C   UNL     1       3.959   5.010  18.978  0.00  0.00    +0.000 C 
ATOM     13  C   UNL     1       3.253   3.895  18.740  0.00  0.00    +0.000 C 
ATOM     14  S   UNL     1       1.880   3.768  17.693  0.00  0.00    +0.000 S 
ATOM     15  C   UNL     1       1.268   2.386  18.563  0.00  0.00    +0.000 C 
ATOM     16  O   UNL     1       0.125   1.974  18.489  0.00  0.00    +0.000 OA
ATOM     17  N   UNL     1       2.245   1.893  19.372  0.00  0.00    +0.000 N 
ATOM     18  C   UNL     1       3.392   2.631  19.521  0.00  0.00    +0.000 C 
ATOM     19  S   UNL     1       4.624   2.097  20.506  0.00  0.00    +0.000 S 
ATOM     20  H   UNL     1       2.057   1.082  19.941  0.00  0.00    +0.000 HD
ENDBRANCH  10  12
BRANCH   1  21
ATOM     21  C   UNL     1       5.223   6.393  16.324  0.00  0.00    +0.000 C 
ATOM     22  O   UNL     1       5.051   5.441  15.574  0.00  0.00    +0.000 OA
BRANCH  21  24
ATOM     23  C   UNL     1       7.233   6.797  17.432  0.00  0.00    +0.000 C 
ATOM     24  O   UNL     1       6.357   7.147  16.358  0.00  0.00    +0.000 OA
ENDBRANCH  21  24
ENDBRANCH   1  21
TORSDOF 3
ENDMDL
MODEL 7
REMARK VINA RESULT:      -7.2      3.476      6.849
REMARK  Name = 
REMARK  4 active torsions:
REMARK  status: ('A' for Active; 'I' for Inactive)
REMARK    1  A    between atoms: C_1  and  O_2
REMARK    2  A    between atoms: O_2  and  C_3
REMARK    3  A    between atoms: C_3  and  C_5
REMARK    4  A    between atoms: C_14  and  C_15
REMARK                            x       y       z     vdW  Elec       q    Type
REMARK                         _______ _______ _______ _____ _____    ______ ____
ROOT
ATOM      1  C   UNL     1       2.483   5.315  19.773  0.00  0.00    +0.000 A 
ATOM      2  N   UNL     1       1.738   6.217  20.503  0.00  0.00    +0.000 N 
ATOM      3  C   UNL     1       1.724   7.455  19.916  0.00  0.00    +0.000 A 
ATOM      4  C   UNL     1       1.127   8.640  20.359  0.00  0.00    +0.000 A 
ATOM      5  C   UNL     1       1.250   9.762  19.540  0.00  0.00    +0.000 A 
ATOM      6  C   UNL     1       1.928   9.677  18.331  0.00  0.00    +0.000 A 
ATOM      7  F   UNL     1       2.010  10.767  17.555  0.00  0.00    +0.000 F 
ATOM      8  C   UNL     1       2.529   8.490  17.901  0.00  0.00    +0.000 A 
ATOM      9  C   UNL     1       2.440   7.350  18.724  0.00  0.00    +0.000 A 
ATOM     10  C   UNL     1       2.935   6.008  18.657  0.00  0.00    +0.000 A 
ATOM     11  H   UNL     1       1.281   5.981  21.375  0.00  0.00    +0.000 HD
ENDROOT
BRANCH  10  12
ATOM     12  C   UNL     1       3.793   5.475  17.647  0.00  0.00    +0.000 C 
ATOM     13  C   UNL     1       5.100   5.205  17.787  0.00  0.00    +0.000 C 
ATOM     14  S   UNL     1       6.026   5.395  19.238  0.00  0.00    +0.000 S 
ATOM     15  C   UNL     1       7.510   5.572  18.340  0.00  0.00    +0.000 C 
ATOM     16  O   UNL     1       8.540   6.036  18.794  0.00  0.00    +0.000 OA
ATOM     17  N   UNL     1       7.311   5.175  17.054  0.00  0.00    +0.000 N 
ATOM     18  C   UNL     1       6.024   4.921  16.650  0.00  0.00    +0.000 C 
ATOM     19  S   UNL     1       5.703   4.444  15.088  0.00  0.00    +0.000 S 
ATOM     20  H   UNL     1       8.077   5.206  16.399  0.00  0.00    +0.000 HD
ENDBRANCH  10  12
BRANCH   1  21
ATOM     21  C   UNL     1       2.622   3.966  20.275  0.00  0.00    +0.000 C 
ATOM     22  O   UNL     1       3.055   3.037  19.607  0.00  0.00    +0.000 OA
BRANCH  21  24
ATOM     23  C   UNL     1       1.611   2.583  21.855  0.00  0.00    +0.000 C 
ATOM     24  O   UNL     1       2.204   3.852  21.566  0.00  0.00    +0.000 OA
ENDBRANCH  21  24
ENDBRANCH   1  21
TORSDOF 3
ENDMDL
MODEL 8
REMARK VINA RESULT:      -7.2      6.343      8.867
REMARK  Name = 
REMARK  4 active torsions:
REMARK  status: ('A' for Active; 'I' for Inactive)
REMARK    1  A    between atoms: C_1  and  O_2
REMARK    2  A    between atoms: O_2  and  C_3
REMARK    3  A    between atoms: C_3  and  C_5
REMARK    4  A    between atoms: C_14  and  C_15
REMARK                            x       y       z     vdW  Elec       q    Type
REMARK                         _______ _______ _______ _____ _____    ______ ____
ROOT
ATOM      1  C   UNL     1       0.737   9.254  21.531  0.00  0.00    +0.000 A 
ATOM      2  N   UNL     1       1.253   7.976  21.500  0.00  0.00    +0.000 N 
ATOM      3  C   UNL     1       1.821   7.689  20.286  0.00  0.00    +0.000 A 
ATOM      4  C   UNL     1       2.407   6.499  19.842  0.00  0.00    +0.000 A 
ATOM      5  C   UNL     1       2.936   6.491  18.551  0.00  0.00    +0.000 A 
ATOM      6  C   UNL     1       2.887   7.636  17.767  0.00  0.00    +0.000 A 
ATOM      7  F   UNL     1       3.425   7.605  16.539  0.00  0.00    +0.000 F 
ATOM      8  C   UNL     1       2.292   8.817  18.217  0.00  0.00    +0.000 A 
ATOM      9  C   UNL     1       1.727   8.841  19.508  0.00  0.00    +0.000 A 
ATOM     10  C   UNL     1       1.020   9.810  20.289  0.00  0.00    +0.000 A 
ATOM     11  H   UNL     1       1.192   7.335  22.281  0.00  0.00    +0.000 HD
ENDROOT
BRANCH  10  12
ATOM     12  C   UNL     1       0.621  11.113  19.859  0.00  0.00    +0.000 C 
ATOM     13  C   UNL     1      -0.433  11.395  19.078  0.00  0.00    +0.000 C 
ATOM     14  S   UNL     1      -1.575  10.248  18.461  0.00  0.00    +0.000 S 
ATOM     15  C   UNL     1      -1.977  11.282  17.115  0.00  0.00    +0.000 C 
ATOM     16  O   UNL     1      -2.548  10.911  16.106  0.00  0.00    +0.000 OA
ATOM     17  N   UNL     1      -1.499  12.534  17.348  0.00  0.00    +0.000 N 
ATOM     18  C   UNL     1      -0.660  12.715  18.419  0.00  0.00    +0.000 C 
ATOM     19  S   UNL     1      -0.025  14.216  18.757  0.00  0.00    +0.000 S 
ATOM     20  H   UNL     1      -1.655  13.261  16.667  0.00  0.00    +0.000 HD
ENDBRANCH  10  12
BRANCH   1  21
ATOM     21  C   UNL     1       0.074   9.704  22.735  0.00  0.00    +0.000 C 
ATOM     22  O   UNL     1       0.563   9.608  23.852  0.00  0.00    +0.000 OA
BRANCH  21  24
ATOM     23  C   UNL     1      -1.322  11.552  22.996  0.00  0.00    +0.000 C 
ATOM     24  O   UNL     1      -1.156  10.229  22.479  0.00  0.00    +0.000 OA
ENDBRANCH  21  24
ENDBRANCH   1  21
TORSDOF 3
ENDMDL
MODEL 9
REMARK VINA RESULT:      -6.8      1.735      2.247
REMARK  Name = 
REMARK  4 active torsions:
REMARK  status: ('A' for Active; 'I' for Inactive)
REMARK    1  A    between atoms: C_1  and  O_2
REMARK    2  A    between atoms: O_2  and  C_3
REMARK    3  A    between atoms: C_3  and  C_5
REMARK    4  A    between atoms: C_14  and  C_15
REMARK                            x       y       z     vdW  Elec       q    Type
REMARK                         _______ _______ _______ _____ _____    ______ ____
ROOT
ATOM      1  C   UNL     1       6.823   5.788  16.056  0.00  0.00    +0.000 A 
ATOM      2  N   UNL     1       7.663   5.494  15.003  0.00  0.00    +0.000 N 
ATOM      3  C   UNL     1       7.021   4.778  14.027  0.00  0.00    +0.000 A 
ATOM      4  C   UNL     1       7.528   4.254  12.834  0.00  0.00    +0.000 A 
ATOM      5  C   UNL     1       6.634   3.579  12.003  0.00  0.00    +0.000 A 
ATOM      6  C   UNL     1       5.297   3.460  12.360  0.00  0.00    +0.000 A 
ATOM      7  F   UNL     1       4.458   2.825  11.529  0.00  0.00    +0.000 F 
ATOM      8  C   UNL     1       4.803   3.979  13.559  0.00  0.00    +0.000 A 
ATOM      9  C   UNL     1       5.692   4.643  14.427  0.00  0.00    +0.000 A 
ATOM     10  C   UNL     1       5.585   5.257  15.716  0.00  0.00    +0.000 A 
ATOM     11  H   UNL     1       8.638   5.766  14.979  0.00  0.00    +0.000 HD
ENDROOT
BRANCH  10  12
ATOM     12  C   UNL     1       4.421   5.282  16.545  0.00  0.00    +0.000 C 
ATOM     13  C   UNL     1       4.093   4.366  17.468  0.00  0.00    +0.000 C 
ATOM     14  S   UNL     1       5.034   2.977  17.899  0.00  0.00    +0.000 S 
ATOM     15  C   UNL     1       3.623   2.120  18.460  0.00  0.00    +0.000 C 
ATOM     16  O   UNL     1       3.572   0.917  18.640  0.00  0.00    +0.000 OA
ATOM     17  N   UNL     1       2.589   2.994  18.599  0.00  0.00    +0.000 N 
ATOM     18  C   UNL     1       2.750   4.266  18.111  0.00  0.00    +0.000 C 
ATOM     19  S   UNL     1       1.523   5.384  18.234  0.00  0.00    +0.000 S 
ATOM     20  H   UNL     1       1.696   2.659  18.927  0.00  0.00    +0.000 HD
ENDBRANCH  10  12
BRANCH   1  21
ATOM     21  C   UNL     1       7.357   6.516  17.185  0.00  0.00    +0.000 C 
ATOM     22  O   UNL     1       7.384   7.738  17.250  0.00  0.00    +0.000 OA
BRANCH  21  24
ATOM     23  C   UNL     1       7.076   5.737  19.364  0.00  0.00    +0.000 C 
ATOM     24  O   UNL     1       7.835   5.687  18.153  0.00  0.00    +0.000 OA
ENDBRANCH  21  24
ENDBRANCH   1  21
TORSDOF 3
ENDMDL
