MODEL 1
REMARK VINA RESULT:      -8.1      0.000      0.000
REMARK  Name = 
REMARK  5 active torsions:
REMARK  status: ('A' for Active; 'I' for Inactive)
REMARK    1  A    between atoms: C_1  and  C_2
REMARK    2  A    between atoms: C_2  and  O_3
REMARK    3  A    between atoms: O_3  and  C_4
REMARK    4  A    between atoms: C_4  and  C_5
REMARK    5  A    between atoms: C_5  and  N_6
REMARK                            x       y       z     vdW  Elec       q    Type
REMARK                         _______ _______ _______ _____ _____    ______ ____
ROOT
ATOM      1  N   UNL     1       6.222   5.356  17.434  0.00  0.00    +0.000 N 
ATOM      2  C   UNL     1       6.382   4.983  16.113  0.00  0.00    +0.000 A 
ATOM      3  C   UNL     1       7.439   5.200  15.213  0.00  0.00    +0.000 A 
ATOM      4  C   UNL     1       7.320   4.691  13.918  0.00  0.00    +0.000 A 
ATOM      5  C   UNL     1       6.186   3.985  13.527  0.00  0.00    +0.000 A 
ATOM      6  C   UNL     1       5.137   3.770  14.428  0.00  0.00    +0.000 A 
ATOM      7  C   UNL     1       5.228   4.275  15.742  0.00  0.00    +0.000 A 
ATOM      8  C   UNL     1       4.371   4.236  16.880  0.00  0.00    +0.000 A 
ATOM      9  N   UNL     1       3.150   3.665  17.064  0.00  0.00    +0.000 NA
ATOM     10  C   UNL     1       2.640   3.823  18.303  0.00  0.00    +0.000 A 
ATOM     11  C   UNL     1       1.395   3.278  18.595  0.00  0.00    +0.000 A 
ATOM     12  C   UNL     1       0.809   3.403  19.856  0.00  0.00    +0.000 A 
ATOM     13  C   UNL     1       1.486   4.084  20.859  0.00  0.00    +0.000 A 
ATOM     14  C   UNL     1       2.737   4.636  20.586  0.00  0.00    +0.000 A 
ATOM     15  C   UNL     1       3.324   4.527  19.331  0.00  0.00    +0.000 A 
ATOM     16  N   UNL     1       4.524   5.096  19.149  0.00  0.00    +0.000 NA
ATOM     17  C   UNL     1       5.008   4.921  17.903  0.00  0.00    +0.000 A 
ENDROOT
BRANCH   1  18
ATOM     18  C   UNL     1       7.195   6.070  18.243  0.00  0.00    +0.000 C 
BRANCH  18  19
ATOM     19  C   UNL     1       7.446   7.480  17.729  0.00  0.00    +0.000 C 
BRANCH  19  20
ATOM     20  O   UNL     1       8.449   8.118  18.523  0.00  0.00    +0.000 OA
BRANCH  20  22
ATOM     21  C   UNL     1       9.273  10.223  19.310  0.00  0.00    +0.000 C 
ATOM     22  C   UNL     1       8.509   9.511  18.215  0.00  0.00    +0.000 C 
ENDBRANCH  20  22
ENDBRANCH  19  20
ENDBRANCH  18  19
ENDBRANCH   1  18
TORSDOF 4
ENDMDL
MODEL 2
REMARK VINA RESULT:      -7.8      3.188      4.976
REMARK  Name = 
REMARK  5 active torsions:
REMARK  status: ('A' for Active; 'I' for Inactive)
REMARK    1  A    between atoms: C_1  and  C_2
REMARK    2  A    between atoms: C_2  and  O_3
REMARK    3  A    between atoms: O_3  and  C_4
REMARK    4  A    between atoms: C_4  and  C_5
REMARK    5  A    between atoms: C_5  and  N_6
REMARK                            x       y       z     vdW  Elec       q    Type
REMARK                         _______ _______ _______ _____ _____    ______ ____
ROOT
ATOM      1  N   UNL     1       4.464   4.796  18.642  0.00  0.00    +0.000 N 
ATOM      2  C   UNL     1       5.077   4.816  17.404  0.00  0.00    +0.000 A 
ATOM      3  C   UNL     1       5.962   3.910  16.796  0.00  0.00    +0.000 A 
ATOM      4  C   UNL     1       6.422   4.197  15.509  0.00  0.00    +0.000 A 
ATOM      5  C   UNL     1       6.014   5.348  14.843  0.00  0.00    +0.000 A 
ATOM      6  C   UNL     1       5.131   6.247  15.452  0.00  0.00    +0.000 A 
ATOM      7  C   UNL     1       4.652   5.984  16.753  0.00  0.00    +0.000 A 
ATOM      8  C   UNL     1       3.766   6.665  17.639  0.00  0.00    +0.000 A 
ATOM      9  N   UNL     1       3.070   7.825  17.495  0.00  0.00    +0.000 NA
ATOM     10  C   UNL     1       2.308   8.154  18.558  0.00  0.00    +0.000 A 
ATOM     11  C   UNL     1       1.557   9.323  18.514  0.00  0.00    +0.000 A 
ATOM     12  C   UNL     1       0.746   9.723  19.578  0.00  0.00    +0.000 A 
ATOM     13  C   UNL     1       0.676   8.934  20.718  0.00  0.00    +0.000 A 
ATOM     14  C   UNL     1       1.421   7.757  20.780  0.00  0.00    +0.000 A 
ATOM     15  C   UNL     1       2.239   7.354  19.731  0.00  0.00    +0.000 A 
ATOM     16  N   UNL     1       2.930   6.216  19.877  0.00  0.00    +0.000 NA
ATOM     17  C   UNL     1       3.681   5.911  18.800  0.00  0.00    +0.000 A 
ENDROOT
BRANCH   1  18
ATOM     18  C   UNL     1       4.582   3.743  19.637  0.00  0.00    +0.000 C 
BRANCH  18  19
ATOM     19  C   UNL     1       3.342   2.863  19.694  0.00  0.00    +0.000 C 
BRANCH  19  20
ATOM     20  O   UNL     1       3.034   2.540  21.051  0.00  0.00    +0.000 OA
BRANCH  20  22
ATOM     21  C   UNL     1       0.926   3.261  20.177  0.00  0.00    +0.000 C 
ATOM     22  C   UNL     1       1.774   3.102  21.419  0.00  0.00    +0.000 C 
ENDBRANCH  20  22
ENDBRANCH  19  20
ENDBRANCH  18  19
ENDBRANCH   1  18
TORSDOF 4
ENDMDL
MODEL 3
REMARK VINA RESULT:      -7.5      3.286      6.943
REMARK  Name = 
REMARK  5 active torsions:
REMARK  status: ('A' for Active; 'I' for Inactive)
REMARK    1  A    between atoms: C_1  and  C_2
REMARK    2  A    between atoms: C_2  and  O_3
REMARK    3  A    between atoms: O_3  and  C_4
REMARK    4  A    between atoms: C_4  and  C_5
REMARK    5  A    between atoms: C_5  and  N_6
REMARK                            x       y       z     vdW  Elec       q    Type
REMARK                         _______ _______ _______ _____ _____    ______ ____
ROOT
ATOM      1  N   UNL     1       2.438   5.951  20.006  0.00  0.00    +0.000 N 
ATOM      2  C   UNL     1       1.861   7.206  20.051  0.00  0.00    +0.000 A 
ATOM      3  C   UNL     1       1.002   7.795  20.993  0.00  0.00    +0.000 A 
ATOM      4  C   UNL     1       0.577   9.107  20.772  0.00  0.00    +0.000 A 
ATOM      5  C   UNL     1       0.995   9.816  19.649  0.00  0.00    +0.000 A 
ATOM      6  C   UNL     1       1.852   9.224  18.714  0.00  0.00    +0.000 A 
ATOM      7  C   UNL     1       2.295   7.899  18.910  0.00  0.00    +0.000 A 
ATOM      8  C   UNL     1       3.148   7.022  18.179  0.00  0.00    +0.000 A 
ATOM      9  N   UNL     1       3.839   7.200  17.021  0.00  0.00    +0.000 NA
ATOM     10  C   UNL     1       4.566   6.132  16.634  0.00  0.00    +0.000 A 
ATOM     11  C   UNL     1       5.308   6.211  15.461  0.00  0.00    +0.000 A 
ATOM     12  C   UNL     1       6.085   5.144  15.003  0.00  0.00    +0.000 A 
ATOM     13  C   UNL     1       6.128   3.966  15.737  0.00  0.00    +0.000 A 
ATOM     14  C   UNL     1       5.392   3.870  16.917  0.00  0.00    +0.000 A 
ATOM     15  C   UNL     1       4.608   4.921  17.377  0.00  0.00    +0.000 A 
ATOM     16  N   UNL     1       3.923   4.741  18.514  0.00  0.00    +0.000 NA
ATOM     17  C   UNL     1       3.207   5.825  18.876  0.00  0.00    +0.000 A 
ENDROOT
BRANCH   1  18
ATOM     18  C   UNL     1       2.300   4.912  21.012  0.00  0.00    +0.000 C 
BRANCH  18  19
ATOM     19  C   UNL     1       1.133   3.979  20.719  0.00  0.00    +0.000 C 
BRANCH  19  20
ATOM     20  O   UNL     1       1.533   2.621  20.913  0.00  0.00    +0.000 OA
BRANCH  20  22
ATOM     21  C   UNL     1       0.885   2.394  18.620  0.00  0.00    +0.000 C 
ATOM     22  C   UNL     1       1.916   2.037  19.668  0.00  0.00    +0.000 C 
ENDBRANCH  20  22
ENDBRANCH  19  20
ENDBRANCH  18  19
ENDBRANCH   1  18
TORSDOF 4
ENDMDL
MODEL 4
REMARK VINA RESULT:      -7.5      3.431      5.293
REMARK  Name = 
REMARK  5 active torsions:
REMARK  status: ('A' for Active; 'I' for Inactive)
REMARK    1  A    between atoms: C_1  and  C_2
REMARK    2  A    between atoms: C_2  and  O_3
REMARK    3  A    between atoms: O_3  and  C_4
REMARK    4  A    between atoms: C_4  and  C_5
REMARK    5  A    between atoms: C_5  and  N_6
REMARK                            x       y       z     vdW  Elec       q    Type
REMARK                         _______ _______ _______ _____ _____    ______ ____
ROOT
ATOM      1  N   UNL     1       3.694   5.646  18.092  0.00  0.00    +0.000 N 
ATOM      2  C   UNL     1       3.589   4.587  18.974  0.00  0.00    +0.000 A 
ATOM      3  C   UNL     1       4.159   3.304  18.950  0.00  0.00    +0.000 A 
ATOM      4  C   UNL     1       3.873   2.432  20.003  0.00  0.00    +0.000 A 
ATOM      5  C   UNL     1       3.046   2.824  21.052  0.00  0.00    +0.000 A 
ATOM      6  C   UNL     1       2.482   4.104  21.072  0.00  0.00    +0.000 A 
ATOM      7  C   UNL     1       2.752   5.005  20.020  0.00  0.00    +0.000 A 
ATOM      8  C   UNL     1       2.356   6.345  19.737  0.00  0.00    +0.000 A 
ATOM      9  N   UNL     1       1.570   7.214  20.429  0.00  0.00    +0.000 NA
ATOM     10  C   UNL     1       1.430   8.424  19.850  0.00  0.00    +0.000 A 
ATOM     11  C   UNL     1       0.644   9.384  20.476  0.00  0.00    +0.000 A 
ATOM     12  C   UNL     1       0.457  10.657  19.933  0.00  0.00    +0.000 A 
ATOM     13  C   UNL     1       1.076  10.986  18.734  0.00  0.00    +0.000 A 
ATOM     14  C   UNL     1       1.870  10.035  18.093  0.00  0.00    +0.000 A 
ATOM     15  C   UNL     1       2.054   8.763  18.619  0.00  0.00    +0.000 A 
ATOM     16  N   UNL     1       2.823   7.906  17.932  0.00  0.00    +0.000 NA
ATOM     17  C   UNL     1       2.945   6.707  18.536  0.00  0.00    +0.000 A 
ENDROOT
BRANCH   1  18
ATOM     18  C   UNL     1       4.501   5.673  16.884  0.00  0.00    +0.000 C 
BRANCH  18  19
ATOM     19  C   UNL     1       5.919   6.156  17.150  0.00  0.00    +0.000 C 
BRANCH  19  20
ATOM     20  O   UNL     1       6.861   5.185  16.688  0.00  0.00    +0.000 OA
BRANCH  20  22
ATOM     21  C   UNL     1       7.649   5.693  18.890  0.00  0.00    +0.000 C 
ATOM     22  C   UNL     1       7.607   4.660  17.786  0.00  0.00    +0.000 C 
ENDBRANCH  20  22
ENDBRANCH  19  20
ENDBRANCH  18  19
ENDBRANCH   1  18
TORSDOF 4
ENDMDL
MODEL 5
REMARK VINA RESULT:      -7.3      4.117      6.173
REMARK  Name = 
REMARK  5 active torsions:
REMARK  status: ('A' for Active; 'I' for Inactive)
REMARK    1  A    between atoms: C_1  and  C_2
REMARK    2  A    between atoms: C_2  and  O_3
REMARK    3  A    between atoms: O_3  and  C_4
REMARK    4  A    between atoms: C_4  and  C_5
REMARK    5  A    between atoms: C_5  and  N_6
REMARK                            x       y       z     vdW  Elec       q    Type
REMARK                         _______ _______ _______ _____ _____    ______ ____
ROOT
ATOM      1  N   UNL     1       2.820   5.695  19.890  0.00  0.00    +0.000 N 
ATOM      2  C   UNL     1       3.650   5.390  18.827  0.00  0.00    +0.000 A 
ATOM      3  C   UNL     1       4.412   4.243  18.549  0.00  0.00    +0.000 A 
ATOM      4  C   UNL     1       5.162   4.218  17.371  0.00  0.00    +0.000 A 
ATOM      5  C   UNL     1       5.155   5.298  16.493  0.00  0.00    +0.000 A 
ATOM      6  C   UNL     1       4.393   6.437  16.774  0.00  0.00    +0.000 A 
ATOM      7  C   UNL     1       3.627   6.492  17.958  0.00  0.00    +0.000 A 
ATOM      8  C   UNL     1       2.761   7.468  18.532  0.00  0.00    +0.000 A 
ATOM      9  N   UNL     1       2.379   8.698  18.095  0.00  0.00    +0.000 NA
ATOM     10  C   UNL     1       1.519   9.340  18.911  0.00  0.00    +0.000 A 
ATOM     11  C   UNL     1       1.068  10.606  18.556  0.00  0.00    +0.000 A 
ATOM     12  C   UNL     1       0.177  11.326  19.354  0.00  0.00    +0.000 A 
ATOM     13  C   UNL     1      -0.284  10.767  20.539  0.00  0.00    +0.000 A 
ATOM     14  C   UNL     1       0.156   9.497  20.911  0.00  0.00    +0.000 A 
ATOM     15  C   UNL     1       1.050   8.776  20.129  0.00  0.00    +0.000 A 
ATOM     16  N   UNL     1       1.431   7.568  20.566  0.00  0.00    +0.000 NA
ATOM     17  C   UNL     1       2.289   6.950  19.729  0.00  0.00    +0.000 A 
ENDROOT
BRANCH   1  18
ATOM     18  C   UNL     1       2.510   4.821  21.008  0.00  0.00    +0.000 C 
BRANCH  18  19
ATOM     19  C   UNL     1       1.333   3.902  20.710  0.00  0.00    +0.000 C 
BRANCH  19  20
ATOM     20  O   UNL     1       1.752   2.537  20.771  0.00  0.00    +0.000 OA
BRANCH  20  22
ATOM     21  C   UNL     1       0.801   2.720  18.582  0.00  0.00    +0.000 C 
ATOM     22  C   UNL     1       1.776   1.969  19.461  0.00  0.00    +0.000 C 
ENDBRANCH  20  22
ENDBRANCH  19  20
ENDBRANCH  18  19
ENDBRANCH   1  18
TORSDOF 4
ENDMDL
MODEL 6
REMARK VINA RESULT:      -7.3      3.422      5.520
REMARK  Name = 
REMARK  5 active torsions:
REMARK  status: ('A' for Active; 'I' for Inactive)
REMARK    1  A    between atoms: C_1  and  C_2
REMARK    2  A    between atoms: C_2  and  O_3
REMARK    3  A    between atoms: O_3  and  C_4
REMARK    4  A    between atoms: C_4  and  C_5
REMARK    5  A    between atoms: C_5  and  N_6
REMARK                            x       y       z     vdW  Elec       q    Type
REMARK                         _______ _______ _______ _____ _____    ______ ____
ROOT
ATOM      1  N   UNL     1       3.683   5.652  18.080  0.00  0.00    +0.000 N 
ATOM      2  C   UNL     1       3.578   4.593  18.962  0.00  0.00    +0.000 A 
ATOM      3  C   UNL     1       4.142   3.307  18.934  0.00  0.00    +0.000 A 
ATOM      4  C   UNL     1       3.856   2.436  19.988  0.00  0.00    +0.000 A 
ATOM      5  C   UNL     1       3.037   2.831  21.041  0.00  0.00    +0.000 A 
ATOM      6  C   UNL     1       2.478   4.113  21.065  0.00  0.00    +0.000 A 
ATOM      7  C   UNL     1       2.747   5.014  20.012  0.00  0.00    +0.000 A 
ATOM      8  C   UNL     1       2.356   6.356  19.733  0.00  0.00    +0.000 A 
ATOM      9  N   UNL     1       1.577   7.227  20.429  0.00  0.00    +0.000 NA
ATOM     10  C   UNL     1       1.439   8.439  19.852  0.00  0.00    +0.000 A 
ATOM     11  C   UNL     1       0.661   9.402  20.483  0.00  0.00    +0.000 A 
ATOM     12  C   UNL     1       0.478  10.676  19.942  0.00  0.00    +0.000 A 
ATOM     13  C   UNL     1       1.092  11.003  18.740  0.00  0.00    +0.000 A 
ATOM     14  C   UNL     1       1.878  10.050  18.094  0.00  0.00    +0.000 A 
ATOM     15  C   UNL     1       2.059   8.776  18.618  0.00  0.00    +0.000 A 
ATOM     16  N   UNL     1       2.821   7.916  17.927  0.00  0.00    +0.000 NA
ATOM     17  C   UNL     1       2.941   6.716  18.528  0.00  0.00    +0.000 A 
ENDROOT
BRANCH   1  18
ATOM     18  C   UNL     1       4.484   5.677  16.868  0.00  0.00    +0.000 C 
BRANCH  18  19
ATOM     19  C   UNL     1       5.849   6.310  17.094  0.00  0.00    +0.000 C 
BRANCH  19  20
ATOM     20  O   UNL     1       6.740   5.942  16.038  0.00  0.00    +0.000 OA
BRANCH  20  22
ATOM     21  C   UNL     1       6.553   4.266  14.340  0.00  0.00    +0.000 C 
ATOM     22  C   UNL     1       6.691   4.531  15.822  0.00  0.00    +0.000 C 
ENDBRANCH  20  22
ENDBRANCH  19  20
ENDBRANCH  18  19
ENDBRANCH   1  18
TORSDOF 4
ENDMDL
MODEL 7
REMARK VINA RESULT:      -7.3      3.672      5.504
REMARK  Name = 
REMARK  5 active torsions:
REMARK  status: ('A' for Active; 'I' for Inactive)
REMARK    1  A    between atoms: C_1  and  C_2
REMARK    2  A    between atoms: C_2  and  O_3
REMARK    3  A    between atoms: O_3  and  C_4
REMARK    4  A    between atoms: C_4  and  C_5
REMARK    5  A    between atoms: C_5  and  N_6
REMARK                            x       y       z     vdW  Elec       q    Type
REMARK                         _______ _______ _______ _____ _____    ______ ____
ROOT
ATOM      1  N   UNL     1       3.807   5.489  19.099  0.00  0.00    +0.000 N 
ATOM      2  C   UNL     1       4.548   5.330  17.944  0.00  0.00    +0.000 A 
ATOM      3  C   UNL     1       5.428   4.311  17.542  0.00  0.00    +0.000 A 
ATOM      4  C   UNL     1       6.041   4.420  16.292  0.00  0.00    +0.000 A 
ATOM      5  C   UNL     1       5.787   5.509  15.463  0.00  0.00    +0.000 A 
ATOM      6  C   UNL     1       4.910   6.521  15.867  0.00  0.00    +0.000 A 
ATOM      7  C   UNL     1       4.277   6.438  17.126  0.00  0.00    +0.000 A 
ATOM      8  C   UNL     1       3.353   7.266  17.826  0.00  0.00    +0.000 A 
ATOM      9  N   UNL     1       2.758   8.440  17.479  0.00  0.00    +0.000 NA
ATOM     10  C   UNL     1       1.912   8.933  18.407  0.00  0.00    +0.000 A 
ATOM     11  C   UNL     1       1.253  10.130  18.150  0.00  0.00    +0.000 A 
ATOM     12  C   UNL     1       0.364  10.697  19.065  0.00  0.00    +0.000 A 
ATOM     13  C   UNL     1       0.117  10.050  20.269  0.00  0.00    +0.000 A 
ATOM     14  C   UNL     1       0.768   8.847  20.543  0.00  0.00    +0.000 A 
ATOM     15  C   UNL     1       1.663   8.280  19.644  0.00  0.00    +0.000 A 
ATOM     16  N   UNL     1       2.253   7.127  19.990  0.00  0.00    +0.000 NA
ATOM     17  C   UNL     1       3.091   6.658  19.044  0.00  0.00    +0.000 A 
ENDROOT
BRANCH   1  18
ATOM     18  C   UNL     1       3.745   4.552  20.209  0.00  0.00    +0.000 C 
BRANCH  18  19
ATOM     19  C   UNL     1       2.606   3.554  20.056  0.00  0.00    +0.000 C 
BRANCH  19  20
ATOM     20  O   UNL     1       3.064   2.395  19.355  0.00  0.00    +0.000 OA
BRANCH  20  22
ATOM     21  C   UNL     1       0.765   2.407  18.690  0.00  0.00    +0.000 C 
ATOM     22  C   UNL     1       2.184   2.094  18.271  0.00  0.00    +0.000 C 
ENDBRANCH  20  22
ENDBRANCH  19  20
ENDBRANCH  18  19
ENDBRANCH   1  18
TORSDOF 4
ENDMDL
MODEL 8
REMARK VINA RESULT:      -7.1      1.215      5.241
REMARK  Name = 
REMARK  5 active torsions:
REMARK  status: ('A' for Active; 'I' for Inactive)
REMARK    1  A    between atoms: C_1  and  C_2
REMARK    2  A    between atoms: C_2  and  O_3
REMARK    3  A    between atoms: O_3  and  C_4
REMARK    4  A    between atoms: C_4  and  C_5
REMARK    5  A    between atoms: C_5  and  N_6
REMARK                            x       y       z     vdW  Elec       q    Type
REMARK                         _______ _______ _______ _____ _____    ______ ____
ROOT
ATOM      1  N   UNL     1       6.434   5.338  17.687  0.00  0.00    +0.000 N 
ATOM      2  C   UNL     1       5.287   4.896  18.320  0.00  0.00    +0.000 A 
ATOM      3  C   UNL     1       4.861   5.020  19.652  0.00  0.00    +0.000 A 
ATOM      4  C   UNL     1       3.628   4.466  20.007  0.00  0.00    +0.000 A 
ATOM      5  C   UNL     1       2.840   3.810  19.065  0.00  0.00    +0.000 A 
ATOM      6  C   UNL     1       3.269   3.691  17.739  0.00  0.00    +0.000 A 
ATOM      7  C   UNL     1       4.511   4.238  17.352  0.00  0.00    +0.000 A 
ATOM      8  C   UNL     1       5.227   4.298  16.121  0.00  0.00    +0.000 A 
ATOM      9  N   UNL     1       4.918   3.834  14.880  0.00  0.00    +0.000 NA
ATOM     10  C   UNL     1       5.849   4.094  13.939  0.00  0.00    +0.000 A 
ATOM     11  C   UNL     1       5.630   3.661  12.636  0.00  0.00    +0.000 A 
ATOM     12  C   UNL     1       6.551   3.896  11.613  0.00  0.00    +0.000 A 
ATOM     13  C   UNL     1       7.721   4.588  11.893  0.00  0.00    +0.000 A 
ATOM     14  C   UNL     1       7.957   5.032  13.194  0.00  0.00    +0.000 A 
ATOM     15  C   UNL     1       7.053   4.794  14.222  0.00  0.00    +0.000 A 
ATOM     16  N   UNL     1       7.362   5.245  15.446  0.00  0.00    +0.000 NA
ATOM     17  C   UNL     1       6.414   4.972  16.364  0.00  0.00    +0.000 A 
ENDROOT
BRANCH   1  18
ATOM     18  C   UNL     1       7.502   6.110  18.298  0.00  0.00    +0.000 C 
BRANCH  18  19
ATOM     19  C   UNL     1       7.561   7.534  17.763  0.00  0.00    +0.000 C 
BRANCH  19  20
ATOM     20  O   UNL     1       8.532   8.289  18.490  0.00  0.00    +0.000 OA
BRANCH  20  22
ATOM     21  C   UNL     1       9.310  10.472  19.090  0.00  0.00    +0.000 C 
ATOM     22  C   UNL     1       8.438   9.672  18.148  0.00  0.00    +0.000 C 
ENDBRANCH  20  22
ENDBRANCH  19  20
ENDBRANCH  18  19
ENDBRANCH   1  18
TORSDOF 4
ENDMDL
MODEL 9
REMARK VINA RESULT:      -6.9      4.331      6.478
REMARK  Name = 
REMARK  5 active torsions:
REMARK  status: ('A' for Active; 'I' for Inactive)
REMARK    1  A    between atoms: C_1  and  C_2
REMARK    2  A    between atoms: C_2  and  O_3
REMARK    3  A    between atoms: O_3  and  C_4
REMARK    4  A    between atoms: C_4  and  C_5
REMARK    5  A    between atoms: C_5  and  N_6
REMARK                            x       y       z     vdW  Elec       q    Type
REMARK                         _______ _______ _______ _____ _____    ______ ____
ROOT
ATOM      1  N   UNL     1       2.428   5.896  20.086  0.00  0.00    +0.000 N 
ATOM      2  C   UNL     1       3.183   5.930  18.928  0.00  0.00    +0.000 A 
ATOM      3  C   UNL     1       3.966   4.943  18.306  0.00  0.00    +0.000 A 
ATOM      4  C   UNL     1       4.623   5.273  17.118  0.00  0.00    +0.000 A 
ATOM      5  C   UNL     1       4.505   6.543  16.563  0.00  0.00    +0.000 A 
ATOM      6  C   UNL     1       3.724   7.522  17.186  0.00  0.00    +0.000 A 
ATOM      7  C   UNL     1       3.050   7.219  18.389  0.00  0.00    +0.000 A 
ATOM      8  C   UNL     1       2.194   7.956  19.257  0.00  0.00    +0.000 A 
ATOM      9  N   UNL     1       1.732   9.234  19.189  0.00  0.00    +0.000 NA
ATOM     10  C   UNL     1       0.914   9.587  20.202  0.00  0.00    +0.000 A 
ATOM     11  C   UNL     1       0.388  10.874  20.227  0.00  0.00    +0.000 A 
ATOM     12  C   UNL     1      -0.466  11.305  21.244  0.00  0.00    +0.000 A 
ATOM     13  C   UNL     1      -0.812  10.428  22.264  0.00  0.00    +0.000 A 
ATOM     14  C   UNL     1      -0.295   9.133  22.254  0.00  0.00    +0.000 A 
ATOM     15  C   UNL     1       0.564   8.697  21.253  0.00  0.00    +0.000 A 
ATOM     16  N   UNL     1       1.024   7.440  21.325  0.00  0.00    +0.000 NA
ATOM     17  C   UNL     1       1.837   7.115  20.300  0.00  0.00    +0.000 A 
ENDROOT
BRANCH   1  18
ATOM     18  C   UNL     1       2.239   4.741  20.948  0.00  0.00    +0.000 C 
BRANCH  18  19
ATOM     19  C   UNL     1       1.051   3.893  20.520  0.00  0.00    +0.000 C 
BRANCH  19  20
ATOM     20  O   UNL     1       1.498   2.603  20.096  0.00  0.00    +0.000 OA
BRANCH  20  22
ATOM     21  C   UNL     1       2.330   2.035  17.925  0.00  0.00    +0.000 C 
ATOM     22  C   UNL     1       1.103   2.364  18.745  0.00  0.00    +0.000 C 
ENDBRANCH  20  22
ENDBRANCH  19  20
ENDBRANCH  18  19
ENDBRANCH   1  18
TORSDOF 4
ENDMDL
