MODEL 1
REMARK VINA RESULT:      -8.1      0.000      0.000
REMARK  Name = 
REMARK  8 active torsions:
REMARK  status: ('A' for Active; 'I' for Inactive)
REMARK    1  A    between atoms: C_1  and  C_2
REMARK    2  A    between atoms: C_2  and  C_3
REMARK    3  A    between atoms: C_3  and  N_4
REMARK    4  A    between atoms: N_4  and  C_5
REMARK    5  A    between atoms: C_5  and  C_6
REMARK    6  A    between atoms: C_11  and  C_12
REMARK    7  A    between atoms: N_15  and  C_16
REMARK    8  A    between atoms: C_19  and  C_20
REMARK                            x       y       z     vdW  Elec       q    Type
REMARK                         _______ _______ _______ _____ _____    ______ ____
ROOT
ATOM      1  N   UNL     1       5.536   4.939  16.748  0.00  0.00    +0.000 N 
ATOM      2  C   UNL     1       4.616   4.534  17.713  0.00  0.00    +0.000 A 
ATOM      3  N   UNL     1       4.377   3.229  17.872  0.00  0.00    +0.000 NA
ATOM      4  C   UNL     1       3.553   2.885  18.860  0.00  0.00    +0.000 A 
ATOM      5  C   UNL     1       3.268   1.426  19.042  0.00  0.00    +0.000 C 
ATOM      6  N   UNL     1       2.957   3.737  19.695  0.00  0.00    +0.000 NA
ATOM      7  C   UNL     1       3.193   5.015  19.428  0.00  0.00    +0.000 A 
ATOM      8  N   UNL     1       2.565   5.971  20.226  0.00  0.00    +0.000 N 
ATOM      9  N   UNL     1       4.014   5.438  18.468  0.00  0.00    +0.000 NA
ATOM     10  H   UNL     1       2.156   5.578  21.058  0.00  0.00    +0.000 HD
ENDROOT
BRANCH   8  11
ATOM     11  C   UNL     1       2.167   7.262  19.853  0.00  0.00    +0.000 A 
ATOM     12  C   UNL     1       1.490   8.112  20.740  0.00  0.00    +0.000 A 
ATOM     13  C   UNL     1       0.988   9.344  20.324  0.00  0.00    +0.000 A 
ATOM     14  C   UNL     1       1.140   9.752  18.998  0.00  0.00    +0.000 A 
ATOM     15  C   UNL     1       0.527  11.033  18.517  0.00  0.00    +0.000 C 
ATOM     16  C   UNL     1       1.838   8.923  18.111  0.00  0.00    +0.000 A 
ATOM     17  C   UNL     1       2.357   7.696  18.539  0.00  0.00    +0.000 A 
ENDBRANCH   8  11
BRANCH   1  18
ATOM     18  C   UNL     1       5.601   4.097  15.551  0.00  0.00    +0.000 C 
BRANCH  18  20
ATOM     19  C   UNL     1       6.361   3.849  13.120  0.00  0.00    +0.000 C 
ATOM     20  C   UNL     1       6.284   4.745  14.344  0.00  0.00    +0.000 C 
ENDBRANCH  18  20
ENDBRANCH   1  18
BRANCH   1  21
ATOM     21  C   UNL     1       5.901   6.362  16.728  0.00  0.00    +0.000 C 
BRANCH  21  22
ATOM     22  C   UNL     1       7.341   6.623  17.082  0.00  0.00    +0.000 C 
ATOM     23  C   UNL     1       7.744   7.947  17.676  0.00  0.00    +0.000 C 
ATOM     24  C   UNL     1       7.837   6.702  18.509  0.00  0.00    +0.000 C 
ENDBRANCH  21  22
ENDBRANCH   1  21
TORSDOF 5
ENDMDL
MODEL 2
REMARK VINA RESULT:      -8.0      0.596      1.166
REMARK  Name = 
REMARK  8 active torsions:
REMARK  status: ('A' for Active; 'I' for Inactive)
REMARK    1  A    between atoms: C_1  and  C_2
REMARK    2  A    between atoms: C_2  and  C_3
REMARK    3  A    between atoms: C_3  and  N_4
REMARK    4  A    between atoms: N_4  and  C_5
REMARK    5  A    between atoms: C_5  and  C_6
REMARK    6  A    between atoms: C_11  and  C_12
REMARK    7  A    between atoms: N_15  and  C_16
REMARK    8  A    between atoms: C_19  and  C_20
REMARK                            x       y       z     vdW  Elec       q    Type
REMARK                         _______ _______ _______ _____ _____    ______ ____
ROOT
ATOM      1  N   UNL     1       5.763   5.314  17.306  0.00  0.00    +0.000 N 
ATOM      2  C   UNL     1       4.801   4.903  18.227  0.00  0.00    +0.000 A 
ATOM      3  N   UNL     1       4.664   3.598  18.478  0.00  0.00    +0.000 NA
ATOM      4  C   UNL     1       3.790   3.256  19.424  0.00  0.00    +0.000 A 
ATOM      5  C   UNL     1       3.618   1.796  19.708  0.00  0.00    +0.000 C 
ATOM      6  N   UNL     1       3.053   4.113  20.131  0.00  0.00    +0.000 NA
ATOM      7  C   UNL     1       3.198   5.382  19.774  0.00  0.00    +0.000 A 
ATOM      8  N   UNL     1       2.423   6.335  20.434  0.00  0.00    +0.000 N 
ATOM      9  N   UNL     1       4.060   5.803  18.850  0.00  0.00    +0.000 NA
ATOM     10  H   UNL     1       1.979   5.972  21.262  0.00  0.00    +0.000 HD
ENDROOT
BRANCH   8  11
ATOM     11  C   UNL     1       1.948   7.549  19.921  0.00  0.00    +0.000 A 
ATOM     12  C   UNL     1       2.224   7.955  18.607  0.00  0.00    +0.000 A 
ATOM     13  C   UNL     1       1.855   9.219  18.145  0.00  0.00    +0.000 A 
ATOM     14  C   UNL     1       1.208  10.115  18.997  0.00  0.00    +0.000 A 
ATOM     15  C   UNL     1       0.886  11.506  18.539  0.00  0.00    +0.000 C 
ATOM     16  C   UNL     1       0.902   9.709  20.302  0.00  0.00    +0.000 A 
ATOM     17  C   UNL     1       1.258   8.434  20.754  0.00  0.00    +0.000 A 
ENDBRANCH   8  11
BRANCH   1  18
ATOM     18  C   UNL     1       6.006   4.390  16.195  0.00  0.00    +0.000 C 
BRANCH  18  20
ATOM     19  C   UNL     1       6.050   4.017  13.664  0.00  0.00    +0.000 C 
ATOM     20  C   UNL     1       5.723   4.964  14.805  0.00  0.00    +0.000 C 
ENDBRANCH  18  20
ENDBRANCH   1  18
BRANCH   1  21
ATOM     21  C   UNL     1       6.003   6.760  17.192  0.00  0.00    +0.000 C 
BRANCH  21  22
ATOM     22  C   UNL     1       7.458   7.139  17.264  0.00  0.00    +0.000 C 
ATOM     23  C   UNL     1       7.855   8.528  17.690  0.00  0.00    +0.000 C 
ATOM     24  C   UNL     1       8.187   7.360  18.571  0.00  0.00    +0.000 C 
ENDBRANCH  21  22
ENDBRANCH   1  21
TORSDOF 5
ENDMDL
MODEL 3
REMARK VINA RESULT:      -7.5      0.992      1.020
REMARK  Name = 
REMARK  8 active torsions:
REMARK  status: ('A' for Active; 'I' for Inactive)
REMARK    1  A    between atoms: C_1  and  C_2
REMARK    2  A    between atoms: C_2  and  C_3
REMARK    3  A    between atoms: C_3  and  N_4
REMARK    4  A    between atoms: N_4  and  C_5
REMARK    5  A    between atoms: C_5  and  C_6
REMARK    6  A    between atoms: C_11  and  C_12
REMARK    7  A    between atoms: N_15  and  C_16
REMARK    8  A    between atoms: C_19  and  C_20
REMARK                            x       y       z     vdW  Elec       q    Type
REMARK                         _______ _______ _______ _____ _____    ______ ____
ROOT
ATOM      1  N   UNL     1       5.282   5.951  16.667  0.00  0.00    +0.000 N 
ATOM      2  C   UNL     1       4.237   5.379  17.389  0.00  0.00    +0.000 A 
ATOM      3  N   UNL     1       3.881   4.118  17.122  0.00  0.00    +0.000 NA
ATOM      4  C   UNL     1       2.933   3.586  17.891  0.00  0.00    +0.000 A 
ATOM      5  C   UNL     1       2.518   2.177  17.596  0.00  0.00    +0.000 C 
ATOM      6  N   UNL     1       2.321   4.211  18.897  0.00  0.00    +0.000 NA
ATOM      7  C   UNL     1       2.682   5.477  19.052  0.00  0.00    +0.000 A 
ATOM      8  N   UNL     1       2.049   6.215  20.052  0.00  0.00    +0.000 N 
ATOM      9  N   UNL     1       3.630   6.076  18.334  0.00  0.00    +0.000 NA
ATOM     10  H   UNL     1       1.524   5.639  20.690  0.00  0.00    +0.000 HD
ENDROOT
BRANCH   8  11
ATOM     11  C   UNL     1       1.793   7.593  20.062  0.00  0.00    +0.000 A 
ATOM     12  C   UNL     1       1.326   8.250  21.209  0.00  0.00    +0.000 A 
ATOM     13  C   UNL     1       0.956   9.594  21.175  0.00  0.00    +0.000 A 
ATOM     14  C   UNL     1       1.033  10.313  19.981  0.00  0.00    +0.000 A 
ATOM     15  C   UNL     1       0.554  11.732  19.912  0.00  0.00    +0.000 C 
ATOM     16  C   UNL     1       1.525   9.674  18.837  0.00  0.00    +0.000 A 
ATOM     17  C   UNL     1       1.913   8.330  18.881  0.00  0.00    +0.000 A 
ENDBRANCH   8  11
BRANCH   1  18
ATOM     18  C   UNL     1       5.409   5.500  15.279  0.00  0.00    +0.000 C 
BRANCH  18  20
ATOM     19  C   UNL     1       6.440   3.754  13.719  0.00  0.00    +0.000 C 
ATOM     20  C   UNL     1       6.560   4.524  15.022  0.00  0.00    +0.000 C 
ENDBRANCH  18  20
ENDBRANCH   1  18
BRANCH   1  21
ATOM     21  C   UNL     1       5.757   7.269  17.112  0.00  0.00    +0.000 C 
BRANCH  21  22
ATOM     22  C   UNL     1       7.257   7.393  17.146  0.00  0.00    +0.000 C 
ATOM     23  C   UNL     1       7.900   8.604  17.768  0.00  0.00    +0.000 C 
ATOM     24  C   UNL     1       8.065   7.263  18.418  0.00  0.00    +0.000 C 
ENDBRANCH  21  22
ENDBRANCH   1  21
TORSDOF 5
ENDMDL
MODEL 4
REMARK VINA RESULT:      -7.4      1.853      7.213
REMARK  Name = 
REMARK  8 active torsions:
REMARK  status: ('A' for Active; 'I' for Inactive)
REMARK    1  A    between atoms: C_1  and  C_2
REMARK    2  A    between atoms: C_2  and  C_3
REMARK    3  A    between atoms: C_3  and  N_4
REMARK    4  A    between atoms: N_4  and  C_5
REMARK    5  A    between atoms: C_5  and  C_6
REMARK    6  A    between atoms: C_11  and  C_12
REMARK    7  A    between atoms: N_15  and  C_16
REMARK    8  A    between atoms: C_19  and  C_20
REMARK                            x       y       z     vdW  Elec       q    Type
REMARK                         _______ _______ _______ _____ _____    ______ ____
ROOT
ATOM      1  N   UNL     1       4.737   4.984  18.493  0.00  0.00    +0.000 N 
ATOM      2  C   UNL     1       5.751   5.590  17.753  0.00  0.00    +0.000 A 
ATOM      3  N   UNL     1       6.338   6.688  18.237  0.00  0.00    +0.000 NA
ATOM      4  C   UNL     1       7.355   7.186  17.537  0.00  0.00    +0.000 A 
ATOM      5  C   UNL     1       8.015   8.422  18.064  0.00  0.00    +0.000 C 
ATOM      6  N   UNL     1       7.828   6.672  16.401  0.00  0.00    +0.000 NA
ATOM      7  C   UNL     1       7.148   5.624  15.952  0.00  0.00    +0.000 A 
ATOM      8  N   UNL     1       7.550   5.061  14.742  0.00  0.00    +0.000 N 
ATOM      9  N   UNL     1       6.131   5.062  16.601  0.00  0.00    +0.000 NA
ATOM     10  H   UNL     1       8.452   5.389  14.437  0.00  0.00    +0.000 HD
ENDROOT
BRANCH   8  11
ATOM     11  C   UNL     1       6.745   4.405  13.800  0.00  0.00    +0.000 A 
ATOM     12  C   UNL     1       7.217   4.088  12.518  0.00  0.00    +0.000 A 
ATOM     13  C   UNL     1       6.373   3.550  11.546  0.00  0.00    +0.000 A 
ATOM     14  C   UNL     1       5.025   3.328  11.833  0.00  0.00    +0.000 A 
ATOM     15  C   UNL     1       4.090   2.835  10.771  0.00  0.00    +0.000 C 
ATOM     16  C   UNL     1       4.551   3.615  13.119  0.00  0.00    +0.000 A 
ATOM     17  C   UNL     1       5.406   4.137  14.096  0.00  0.00    +0.000 A 
ENDBRANCH   8  11
BRANCH   1  18
ATOM     18  C   UNL     1       3.903   5.896  19.279  0.00  0.00    +0.000 C 
BRANCH  18  20
ATOM     19  C   UNL     1       2.811   7.802  17.969  0.00  0.00    +0.000 C 
ATOM     20  C   UNL     1       2.656   6.412  18.558  0.00  0.00    +0.000 C 
ENDBRANCH  18  20
ENDBRANCH   1  18
BRANCH   1  21
ATOM     21  C   UNL     1       4.245   3.685  18.012  0.00  0.00    +0.000 C 
BRANCH  21  22
ATOM     22  C   UNL     1       3.749   2.783  19.110  0.00  0.00    +0.000 C 
ATOM     23  C   UNL     1       2.306   2.351  19.138  0.00  0.00    +0.000 C 
ATOM     24  C   UNL     1       3.378   1.334  18.881  0.00  0.00    +0.000 C 
ENDBRANCH  21  22
ENDBRANCH   1  21
TORSDOF 5
ENDMDL
MODEL 5
REMARK VINA RESULT:      -7.3      0.979      1.195
REMARK  Name = 
REMARK  8 active torsions:
REMARK  status: ('A' for Active; 'I' for Inactive)
REMARK    1  A    between atoms: C_1  and  C_2
REMARK    2  A    between atoms: C_2  and  C_3
REMARK    3  A    between atoms: C_3  and  N_4
REMARK    4  A    between atoms: N_4  and  C_5
REMARK    5  A    between atoms: C_5  and  C_6
REMARK    6  A    between atoms: C_11  and  C_12
REMARK    7  A    between atoms: N_15  and  C_16
REMARK    8  A    between atoms: C_19  and  C_20
REMARK                            x       y       z     vdW  Elec       q    Type
REMARK                         _______ _______ _______ _____ _____    ______ ____
ROOT
ATOM      1  N   UNL     1       6.400   5.015  18.531  0.00  0.00    +0.000 N 
ATOM      2  C   UNL     1       5.144   4.527  18.887  0.00  0.00    +0.000 A 
ATOM      3  N   UNL     1       4.883   3.228  18.713  0.00  0.00    +0.000 NA
ATOM      4  C   UNL     1       3.700   2.790  19.142  0.00  0.00    +0.000 A 
ATOM      5  C   UNL     1       3.391   1.338  18.944  0.00  0.00    +0.000 C 
ATOM      6  N   UNL     1       2.770   3.544  19.729  0.00  0.00    +0.000 NA
ATOM      7  C   UNL     1       3.079   4.832  19.802  0.00  0.00    +0.000 A 
ATOM      8  N   UNL     1       2.135   5.695  20.357  0.00  0.00    +0.000 N 
ATOM      9  N   UNL     1       4.244   5.343  19.408  0.00  0.00    +0.000 NA
ATOM     10  H   UNL     1       1.394   5.209  20.834  0.00  0.00    +0.000 HD
ENDROOT
BRANCH   8  11
ATOM     11  C   UNL     1       1.932   7.047  20.048  0.00  0.00    +0.000 A 
ATOM     12  C   UNL     1       1.346   7.934  20.962  0.00  0.00    +0.000 A 
ATOM     13  C   UNL     1       1.033   9.245  20.602  0.00  0.00    +0.000 A 
ATOM     14  C   UNL     1       1.289   9.697  19.306  0.00  0.00    +0.000 A 
ATOM     15  C   UNL     1       0.875  11.074  18.882  0.00  0.00    +0.000 C 
ATOM     16  C   UNL     1       1.899   8.827  18.394  0.00  0.00    +0.000 A 
ATOM     17  C   UNL     1       2.228   7.519  18.766  0.00  0.00    +0.000 A 
ENDBRANCH   8  11
BRANCH   1  18
ATOM     18  C   UNL     1       7.029   4.354  17.385  0.00  0.00    +0.000 C 
BRANCH  18  20
ATOM     19  C   UNL     1       7.126   4.925  14.893  0.00  0.00    +0.000 C 
ATOM     20  C   UNL     1       6.266   4.486  16.065  0.00  0.00    +0.000 C 
ENDBRANCH  18  20
ENDBRANCH   1  18
BRANCH   1  21
ATOM     21  C   UNL     1       6.706   6.404  18.903  0.00  0.00    +0.000 C 
BRANCH  21  22
ATOM     22  C   UNL     1       7.895   6.976  18.178  0.00  0.00    +0.000 C 
ATOM     23  C   UNL     1       7.704   8.080  17.171  0.00  0.00    +0.000 C 
ATOM     24  C   UNL     1       8.435   8.362  18.449  0.00  0.00    +0.000 C 
ENDBRANCH  21  22
ENDBRANCH   1  21
TORSDOF 5
ENDMDL
MODEL 6
REMARK VINA RESULT:      -7.2      1.833      7.206
REMARK  Name = 
REMARK  8 active torsions:
REMARK  status: ('A' for Active; 'I' for Inactive)
REMARK    1  A    between atoms: C_1  and  C_2
REMARK    2  A    between atoms: C_2  and  C_3
REMARK    3  A    between atoms: C_3  and  N_4
REMARK    4  A    between atoms: N_4  and  C_5
REMARK    5  A    between atoms: C_5  and  C_6
REMARK    6  A    between atoms: C_11  and  C_12
REMARK    7  A    between atoms: N_15  and  C_16
REMARK    8  A    between atoms: C_19  and  C_20
REMARK                            x       y       z     vdW  Elec       q    Type
REMARK                         _______ _______ _______ _____ _____    ______ ____
ROOT
ATOM      1  N   UNL     1       4.600   5.178  18.384  0.00  0.00    +0.000 N 
ATOM      2  C   UNL     1       5.676   5.748  17.707  0.00  0.00    +0.000 A 
ATOM      3  N   UNL     1       6.287   6.810  18.241  0.00  0.00    +0.000 NA
ATOM      4  C   UNL     1       7.360   7.271  17.602  0.00  0.00    +0.000 A 
ATOM      5  C   UNL     1       8.048   8.467  18.184  0.00  0.00    +0.000 C 
ATOM      6  N   UNL     1       7.865   6.755  16.481  0.00  0.00    +0.000 NA
ATOM      7  C   UNL     1       7.163   5.748  15.979  0.00  0.00    +0.000 A 
ATOM      8  N   UNL     1       7.599   5.187  14.780  0.00  0.00    +0.000 N 
ATOM      9  N   UNL     1       6.089   5.223  16.566  0.00  0.00    +0.000 NA
ATOM     10  H   UNL     1       8.529   5.478  14.527  0.00  0.00    +0.000 HD
ENDROOT
BRANCH   8  11
ATOM     11  C   UNL     1       6.814   4.585  13.786  0.00  0.00    +0.000 A 
ATOM     12  C   UNL     1       5.479   4.225  14.017  0.00  0.00    +0.000 A 
ATOM     13  C   UNL     1       4.744   3.515  13.067  0.00  0.00    +0.000 A 
ATOM     14  C   UNL     1       5.337   3.135  11.862  0.00  0.00    +0.000 A 
ATOM     15  C   UNL     1       4.587   2.295  10.873  0.00  0.00    +0.000 C 
ATOM     16  C   UNL     1       6.662   3.514  11.611  0.00  0.00    +0.000 A 
ATOM     17  C   UNL     1       7.388   4.243  12.559  0.00  0.00    +0.000 A 
ENDBRANCH   8  11
BRANCH   1  18
ATOM     18  C   UNL     1       3.769   6.115  19.145  0.00  0.00    +0.000 C 
BRANCH  18  20
ATOM     19  C   UNL     1       2.713   8.004  17.782  0.00  0.00    +0.000 C 
ATOM     20  C   UNL     1       2.534   6.631  18.403  0.00  0.00    +0.000 C 
ENDBRANCH  18  20
ENDBRANCH   1  18
BRANCH   1  21
ATOM     21  C   UNL     1       4.074   3.912  17.855  0.00  0.00    +0.000 C 
BRANCH  21  22
ATOM     22  C   UNL     1       3.951   2.827  18.892  0.00  0.00    +0.000 C 
ATOM     23  C   UNL     1       2.593   2.307  19.283  0.00  0.00    +0.000 C 
ATOM     24  C   UNL     1       3.549   1.408  18.557  0.00  0.00    +0.000 C 
ENDBRANCH  21  22
ENDBRANCH   1  21
TORSDOF 5
ENDMDL
MODEL 7
REMARK VINA RESULT:      -7.2      1.905      6.376
REMARK  Name = 
REMARK  8 active torsions:
REMARK  status: ('A' for Active; 'I' for Inactive)
REMARK    1  A    between atoms: C_1  and  C_2
REMARK    2  A    between atoms: C_2  and  C_3
REMARK    3  A    between atoms: C_3  and  N_4
REMARK    4  A    between atoms: N_4  and  C_5
REMARK    5  A    between atoms: C_5  and  C_6
REMARK    6  A    between atoms: C_11  and  C_12
REMARK    7  A    between atoms: N_15  and  C_16
REMARK    8  A    between atoms: C_19  and  C_20
REMARK                            x       y       z     vdW  Elec       q    Type
REMARK                         _______ _______ _______ _____ _____    ______ ____
ROOT
ATOM      1  N   UNL     1       1.438   7.424  20.290  0.00  0.00    +0.000 N 
ATOM      2  C   UNL     1       2.028   6.169  20.158  0.00  0.00    +0.000 A 
ATOM      3  N   UNL     1       1.483   5.128  20.794  0.00  0.00    +0.000 NA
ATOM      4  C   UNL     1       2.032   3.934  20.575  0.00  0.00    +0.000 A 
ATOM      5  C   UNL     1       1.437   2.761  21.290  0.00  0.00    +0.000 C 
ATOM      6  N   UNL     1       3.072   3.705  19.773  0.00  0.00    +0.000 NA
ATOM      7  C   UNL     1       3.596   4.797  19.233  0.00  0.00    +0.000 A 
ATOM      8  N   UNL     1       4.720   4.645  18.421  0.00  0.00    +0.000 N 
ATOM      9  N   UNL     1       3.097   6.021  19.393  0.00  0.00    +0.000 NA
ATOM     10  H   UNL     1       4.891   3.687  18.166  0.00  0.00    +0.000 HD
ENDROOT
BRANCH   8  11
ATOM     11  C   UNL     1       5.758   5.565  18.225  0.00  0.00    +0.000 A 
ATOM     12  C   UNL     1       6.920   5.547  19.010  0.00  0.00    +0.000 A 
ATOM     13  C   UNL     1       7.892   6.541  18.892  0.00  0.00    +0.000 A 
ATOM     14  C   UNL     1       7.715   7.590  17.989  0.00  0.00    +0.000 A 
ATOM     15  C   UNL     1       8.709   8.711  17.916  0.00  0.00    +0.000 C 
ATOM     16  C   UNL     1       6.572   7.603  17.180  0.00  0.00    +0.000 A 
ATOM     17  C   UNL     1       5.610   6.593  17.289  0.00  0.00    +0.000 A 
ENDBRANCH   8  11
BRANCH   1  18
ATOM     18  C   UNL     1       0.806   7.688  21.585  0.00  0.00    +0.000 C 
BRANCH  18  20
ATOM     19  C   UNL     1       0.099   9.626  23.098  0.00  0.00    +0.000 C 
ATOM     20  C   UNL     1       1.187   9.024  22.227  0.00  0.00    +0.000 C 
ENDBRANCH  18  20
ENDBRANCH   1  18
BRANCH   1  21
ATOM     21  C   UNL     1       1.959   8.500  19.436  0.00  0.00    +0.000 C 
BRANCH  21  22
ATOM     22  C   UNL     1       0.915   9.134  18.556  0.00  0.00    +0.000 C 
ATOM     23  C   UNL     1      -0.123  10.047  19.155  0.00  0.00    +0.000 C 
ATOM     24  C   UNL     1       0.906  10.609  18.220  0.00  0.00    +0.000 C 
ENDBRANCH  21  22
ENDBRANCH   1  21
TORSDOF 5
ENDMDL
MODEL 8
REMARK VINA RESULT:      -7.2      1.789      7.249
REMARK  Name = 
REMARK  8 active torsions:
REMARK  status: ('A' for Active; 'I' for Inactive)
REMARK    1  A    between atoms: C_1  and  C_2
REMARK    2  A    between atoms: C_2  and  C_3
REMARK    3  A    between atoms: C_3  and  N_4
REMARK    4  A    between atoms: N_4  and  C_5
REMARK    5  A    between atoms: C_5  and  C_6
REMARK    6  A    between atoms: C_11  and  C_12
REMARK    7  A    between atoms: N_15  and  C_16
REMARK    8  A    between atoms: C_19  and  C_20
REMARK                            x       y       z     vdW  Elec       q    Type
REMARK                         _______ _______ _______ _____ _____    ______ ____
ROOT
ATOM      1  N   UNL     1       3.974   5.974  18.076  0.00  0.00    +0.000 N 
ATOM      2  C   UNL     1       5.219   6.232  17.506  0.00  0.00    +0.000 A 
ATOM      3  N   UNL     1       5.952   7.242  17.982  0.00  0.00    +0.000 NA
ATOM      4  C   UNL     1       7.168   7.401  17.463  0.00  0.00    +0.000 A 
ATOM      5  C   UNL     1       7.996   8.536  17.981  0.00  0.00    +0.000 C 
ATOM      6  N   UNL     1       7.703   6.631  16.514  0.00  0.00    +0.000 NA
ATOM      7  C   UNL     1       6.887   5.694  16.048  0.00  0.00    +0.000 A 
ATOM      8  N   UNL     1       7.356   4.880  15.018  0.00  0.00    +0.000 N 
ATOM      9  N   UNL     1       5.665   5.465  16.524  0.00  0.00    +0.000 NA
ATOM     10  H   UNL     1       8.350   4.960  14.877  0.00  0.00    +0.000 HD
ENDROOT
BRANCH   8  11
ATOM     11  C   UNL     1       6.603   4.272  14.004  0.00  0.00    +0.000 A 
ATOM     12  C   UNL     1       7.149   3.998  12.742  0.00  0.00    +0.000 A 
ATOM     13  C   UNL     1       6.360   3.510  11.700  0.00  0.00    +0.000 A 
ATOM     14  C   UNL     1       4.995   3.295  11.896  0.00  0.00    +0.000 A 
ATOM     15  C   UNL     1       4.121   2.856  10.760  0.00  0.00    +0.000 C 
ATOM     16  C   UNL     1       4.446   3.540  13.161  0.00  0.00    +0.000 A 
ATOM     17  C   UNL     1       5.245   4.011  14.207  0.00  0.00    +0.000 A 
ENDBRANCH   8  11
BRANCH   1  18
ATOM     18  C   UNL     1       3.252   7.151  18.565  0.00  0.00    +0.000 C 
BRANCH  18  20
ATOM     19  C   UNL     1       1.832   9.204  18.005  0.00  0.00    +0.000 C 
ATOM     20  C   UNL     1       2.561   7.980  17.480  0.00  0.00    +0.000 C 
ENDBRANCH  18  20
ENDBRANCH   1  18
BRANCH   1  21
ATOM     21  C   UNL     1       3.283   4.750  17.646  0.00  0.00    +0.000 C 
BRANCH  21  22
ATOM     22  C   UNL     1       1.964   4.527  18.335  0.00  0.00    +0.000 C 
ATOM     23  C   UNL     1       1.342   3.155  18.347  0.00  0.00    +0.000 C 
ATOM     24  C   UNL     1       1.832   3.756  19.630  0.00  0.00    +0.000 C 
ENDBRANCH  21  22
ENDBRANCH   1  21
TORSDOF 5
ENDMDL
MODEL 9
REMARK VINA RESULT:      -7.1      0.925      1.375
REMARK  Name = 
REMARK  8 active torsions:
REMARK  status: ('A' for Active; 'I' for Inactive)
REMARK    1  A    between atoms: C_1  and  C_2
REMARK    2  A    between atoms: C_2  and  C_3
REMARK    3  A    between atoms: C_3  and  N_4
REMARK    4  A    between atoms: N_4  and  C_5
REMARK    5  A    between atoms: C_5  and  C_6
REMARK    6  A    between atoms: C_11  and  C_12
REMARK    7  A    between atoms: N_15  and  C_16
REMARK    8  A    between atoms: C_19  and  C_20
REMARK                            x       y       z     vdW  Elec       q    Type
REMARK                         _______ _______ _______ _____ _____    ______ ____
ROOT
ATOM      1  N   UNL     1       5.127   5.809  16.735  0.00  0.00    +0.000 N 
ATOM      2  C   UNL     1       4.142   5.240  17.540  0.00  0.00    +0.000 A 
ATOM      3  N   UNL     1       3.845   3.947  17.383  0.00  0.00    +0.000 NA
ATOM      4  C   UNL     1       2.957   3.427  18.228  0.00  0.00    +0.000 A 
ATOM      5  C   UNL     1       2.607   1.981  18.057  0.00  0.00    +0.000 C 
ATOM      6  N   UNL     1       2.350   4.096  19.210  0.00  0.00    +0.000 NA
ATOM      7  C   UNL     1       2.649   5.387  19.255  0.00  0.00    +0.000 A 
ATOM      8  N   UNL     1       2.016   6.166  20.224  0.00  0.00    +0.000 N 
ATOM      9  N   UNL     1       3.535   5.977  18.456  0.00  0.00    +0.000 NA
ATOM     10  H   UNL     1       1.548   5.614  20.924  0.00  0.00    +0.000 HD
ENDROOT
BRANCH   8  11
ATOM     11  C   UNL     1       1.688   7.526  20.142  0.00  0.00    +0.000 A 
ATOM     12  C   UNL     1       1.847   8.254  18.955  0.00  0.00    +0.000 A 
ATOM     13  C   UNL     1       1.638   9.633  18.915  0.00  0.00    +0.000 A 
ATOM     14  C   UNL     1       1.274  10.320  20.074  0.00  0.00    +0.000 A 
ATOM     15  C   UNL     1       1.133  11.813  20.064  0.00  0.00    +0.000 C 
ATOM     16  C   UNL     1       1.085   9.598  21.259  0.00  0.00    +0.000 A 
ATOM     17  C   UNL     1       1.278   8.212  21.289  0.00  0.00    +0.000 A 
ENDBRANCH   8  11
BRANCH   1  18
ATOM     18  C   UNL     1       5.225   5.259  15.380  0.00  0.00    +0.000 C 
BRANCH  18  20
ATOM     19  C   UNL     1       6.520   3.794  13.730  0.00  0.00    +0.000 C 
ATOM     20  C   UNL     1       6.463   4.397  15.122  0.00  0.00    +0.000 C 
ENDBRANCH  18  20
ENDBRANCH   1  18
BRANCH   1  21
ATOM     21  C   UNL     1       5.547   7.179  17.060  0.00  0.00    +0.000 C 
BRANCH  21  22
ATOM     22  C   UNL     1       7.040   7.375  17.040  0.00  0.00    +0.000 C 
ATOM     23  C   UNL     1       7.651   8.575  17.715  0.00  0.00    +0.000 C 
ATOM     24  C   UNL     1       7.909   7.205  18.267  0.00  0.00    +0.000 C 
ENDBRANCH  21  22
ENDBRANCH   1  21
TORSDOF 5
ENDMDL
