MODEL 1
REMARK VINA RESULT:      -6.9      0.000      0.000
REMARK  Name = 
REMARK  7 active torsions:
REMARK  status: ('A' for Active; 'I' for Inactive)
REMARK    1  A    between atoms: C_1  and  C_2
REMARK    2  A    between atoms: C_2  and  N_3
REMARK    3  A    between atoms: N_3  and  C_4
REMARK    4  A    between atoms: C_4  and  N_6
REMARK    5  A    between atoms: N_6  and  C_7
REMARK    6  A    between atoms: C_9  and  C_10
REMARK    7  A    between atoms: C_9  and  C_11
REMARK                            x       y       z     vdW  Elec       q    Type
REMARK                         _______ _______ _______ _____ _____    ______ ____
ROOT
ATOM      1  C   UNL     1       5.522   3.814  16.349  0.00  0.00    +0.000 C 
ATOM      2  C   UNL     1       6.331   4.560  17.414  0.00  0.00    +0.000 C 
ATOM      3  C   UNL     1       6.747   5.965  16.959  0.00  0.00    +0.000 C 
ATOM      4  C   UNL     1       5.571   6.929  16.732  0.00  0.00    +0.000 C 
ATOM      5  C   UNL     1       7.654   6.577  18.040  0.00  0.00    +0.000 C 
ATOM      6  O   UNL     1       7.538   5.893  15.759  0.00  0.00    +0.000 OA
ATOM      7  C   UNL     1       7.055   5.075  14.772  0.00  0.00    +0.000 A 
ATOM      8  C   UNL     1       7.636   5.242  13.512  0.00  0.00    +0.000 A 
ATOM      9  C   UNL     1       7.207   4.471  12.434  0.00  0.00    +0.000 A 
ATOM     10  C   UNL     1       6.195   3.541  12.623  0.00  0.00    +0.000 A 
ATOM     11  F   UNL     1       5.775   2.800  11.585  0.00  0.00    +0.000 F 
ATOM     12  C   UNL     1       5.624   3.349  13.875  0.00  0.00    +0.000 A 
ATOM     13  C   UNL     1       6.063   4.107  14.972  0.00  0.00    +0.000 A 
ENDROOT
BRANCH   1  14
ATOM     14  N   UNL     1       4.084   4.097  16.445  0.00  0.00    +0.000 N 
ATOM     15  H   UNL     1       3.756   4.892  15.917  0.00  0.00    +0.000 HD
BRANCH  14  16
ATOM     16  C   UNL     1       3.226   3.589  17.404  0.00  0.00    +0.000 C 
ATOM     17  S   UNL     1       3.358   2.070  18.091  0.00  0.00    +0.000 S 
BRANCH  16  18
ATOM     18  N   UNL     1       2.250   4.510  17.738  0.00  0.00    +0.000 N 
ATOM     19  H   UNL     1       1.305   4.335  17.432  0.00  0.00    +0.000 HD
BRANCH  18  21
ATOM     20  C   UNL     1       3.426   5.660  19.592  0.00  0.00    +0.000 C 
ATOM     21  C   UNL     1       2.512   5.789  18.391  0.00  0.00    +0.000 C 
ENDBRANCH  18  21
ENDBRANCH  16  18
ENDBRANCH  14  16
ENDBRANCH   1  14
TORSDOF 4
ENDMDL
MODEL 2
REMARK VINA RESULT:      -6.8      1.222      1.535
REMARK  Name = 
REMARK  7 active torsions:
REMARK  status: ('A' for Active; 'I' for Inactive)
REMARK    1  A    between atoms: C_1  and  C_2
REMARK    2  A    between atoms: C_2  and  N_3
REMARK    3  A    between atoms: N_3  and  C_4
REMARK    4  A    between atoms: C_4  and  N_6
REMARK    5  A    between atoms: N_6  and  C_7
REMARK    6  A    between atoms: C_9  and  C_10
REMARK    7  A    between atoms: C_9  and  C_11
REMARK                            x       y       z     vdW  Elec       q    Type
REMARK                         _______ _______ _______ _____ _____    ______ ____
ROOT
ATOM      1  C   UNL     1       5.449   3.929  16.546  0.00  0.00    +0.000 C 
ATOM      2  C   UNL     1       6.312   4.655  17.581  0.00  0.00    +0.000 C 
ATOM      3  C   UNL     1       6.776   6.035  17.096  0.00  0.00    +0.000 C 
ATOM      4  C   UNL     1       5.637   7.044  16.880  0.00  0.00    +0.000 C 
ATOM      5  C   UNL     1       7.732   6.623  18.146  0.00  0.00    +0.000 C 
ATOM      6  O   UNL     1       7.536   5.912  15.880  0.00  0.00    +0.000 OA
ATOM      7  C   UNL     1       6.997   5.101  14.916  0.00  0.00    +0.000 A 
ATOM      8  C   UNL     1       7.557   5.225  13.641  0.00  0.00    +0.000 A 
ATOM      9  C   UNL     1       7.071   4.457  12.585  0.00  0.00    +0.000 A 
ATOM     10  C   UNL     1       6.026   3.574  12.811  0.00  0.00    +0.000 A 
ATOM     11  F   UNL     1       5.552   2.836  11.794  0.00  0.00    +0.000 F 
ATOM     12  C   UNL     1       5.475   3.424  14.078  0.00  0.00    +0.000 A 
ATOM     13  C   UNL     1       5.970   4.178  15.153  0.00  0.00    +0.000 A 
ENDROOT
BRANCH   1  14
ATOM     14  N   UNL     1       4.026   4.274  16.668  0.00  0.00    +0.000 N 
ATOM     15  H   UNL     1       3.780   5.220  16.419  0.00  0.00    +0.000 HD
BRANCH  14  16
ATOM     16  C   UNL     1       3.080   3.547  17.369  0.00  0.00    +0.000 C 
ATOM     17  S   UNL     1       1.596   4.142  17.863  0.00  0.00    +0.000 S 
BRANCH  16  18
ATOM     18  N   UNL     1       3.511   2.253  17.595  0.00  0.00    +0.000 N 
ATOM     19  H   UNL     1       3.709   1.670  16.796  0.00  0.00    +0.000 HD
BRANCH  18  21
ATOM     20  C   UNL     1       4.327   2.458  19.927  0.00  0.00    +0.000 C 
ATOM     21  C   UNL     1       3.575   1.623  18.910  0.00  0.00    +0.000 C 
ENDBRANCH  18  21
ENDBRANCH  16  18
ENDBRANCH  14  16
ENDBRANCH   1  14
TORSDOF 4
ENDMDL
MODEL 3
REMARK VINA RESULT:      -6.7      1.303      1.584
REMARK  Name = 
REMARK  7 active torsions:
REMARK  status: ('A' for Active; 'I' for Inactive)
REMARK    1  A    between atoms: C_1  and  C_2
REMARK    2  A    between atoms: C_2  and  N_3
REMARK    3  A    between atoms: N_3  and  C_4
REMARK    4  A    between atoms: C_4  and  N_6
REMARK    5  A    between atoms: N_6  and  C_7
REMARK    6  A    between atoms: C_9  and  C_10
REMARK    7  A    between atoms: C_9  and  C_11
REMARK                            x       y       z     vdW  Elec       q    Type
REMARK                         _______ _______ _______ _____ _____    ______ ____
ROOT
ATOM      1  C   UNL     1       5.484   3.916  16.501  0.00  0.00    +0.000 C 
ATOM      2  C   UNL     1       6.337   4.642  17.545  0.00  0.00    +0.000 C 
ATOM      3  C   UNL     1       6.801   6.025  17.067  0.00  0.00    +0.000 C 
ATOM      4  C   UNL     1       5.660   7.031  16.845  0.00  0.00    +0.000 C 
ATOM      5  C   UNL     1       7.746   6.614  18.126  0.00  0.00    +0.000 C 
ATOM      6  O   UNL     1       7.570   5.907  15.856  0.00  0.00    +0.000 OA
ATOM      7  C   UNL     1       7.041   5.097  14.887  0.00  0.00    +0.000 A 
ATOM      8  C   UNL     1       7.610   5.226  13.617  0.00  0.00    +0.000 A 
ATOM      9  C   UNL     1       7.135   4.459  12.554  0.00  0.00    +0.000 A 
ATOM     10  C   UNL     1       6.091   3.572  12.770  0.00  0.00    +0.000 A 
ATOM     11  F   UNL     1       5.627   2.836  11.748  0.00  0.00    +0.000 F 
ATOM     12  C   UNL     1       5.531   3.418  14.033  0.00  0.00    +0.000 A 
ATOM     13  C   UNL     1       6.016   4.171  15.114  0.00  0.00    +0.000 A 
ENDROOT
BRANCH   1  14
ATOM     14  N   UNL     1       4.060   4.256  16.614  0.00  0.00    +0.000 N 
ATOM     15  H   UNL     1       3.668   4.773  15.842  0.00  0.00    +0.000 HD
BRANCH  14  16
ATOM     16  C   UNL     1       3.312   4.213  17.778  0.00  0.00    +0.000 C 
ATOM     17  S   UNL     1       2.645   5.549  18.532  0.00  0.00    +0.000 S 
BRANCH  16  18
ATOM     18  N   UNL     1       3.170   2.915  18.232  0.00  0.00    +0.000 N 
ATOM     19  H   UNL     1       3.671   2.183  17.749  0.00  0.00    +0.000 HD
BRANCH  18  21
ATOM     20  C   UNL     1       0.827   2.310  18.769  0.00  0.00    +0.000 C 
ATOM     21  C   UNL     1       2.240   2.505  19.280  0.00  0.00    +0.000 C 
ENDBRANCH  18  21
ENDBRANCH  16  18
ENDBRANCH  14  16
ENDBRANCH   1  14
TORSDOF 4
ENDMDL
MODEL 4
REMARK VINA RESULT:      -6.5      3.800      5.379
REMARK  Name = 
REMARK  7 active torsions:
REMARK  status: ('A' for Active; 'I' for Inactive)
REMARK    1  A    between atoms: C_1  and  C_2
REMARK    2  A    between atoms: C_2  and  N_3
REMARK    3  A    between atoms: N_3  and  C_4
REMARK    4  A    between atoms: C_4  and  N_6
REMARK    5  A    between atoms: N_6  and  C_7
REMARK    6  A    between atoms: C_9  and  C_10
REMARK    7  A    between atoms: C_9  and  C_11
REMARK                            x       y       z     vdW  Elec       q    Type
REMARK                         _______ _______ _______ _____ _____    ______ ____
ROOT
ATOM      1  C   UNL     1       3.620   5.744  19.208  0.00  0.00    +0.000 C 
ATOM      2  C   UNL     1       5.143   5.772  19.053  0.00  0.00    +0.000 C 
ATOM      3  C   UNL     1       5.622   5.010  17.810  0.00  0.00    +0.000 C 
ATOM      4  C   UNL     1       5.163   5.625  16.477  0.00  0.00    +0.000 C 
ATOM      5  C   UNL     1       7.159   4.990  17.813  0.00  0.00    +0.000 C 
ATOM      6  O   UNL     1       5.198   3.636  17.866  0.00  0.00    +0.000 OA
ATOM      7  C   UNL     1       3.890   3.426  18.217  0.00  0.00    +0.000 A 
ATOM      8  C   UNL     1       3.398   2.141  17.971  0.00  0.00    +0.000 A 
ATOM      9  C   UNL     1       2.075   1.827  18.276  0.00  0.00    +0.000 A 
ATOM     10  C   UNL     1       1.253   2.802  18.821  0.00  0.00    +0.000 A 
ATOM     11  F   UNL     1      -0.023   2.504  19.110  0.00  0.00    +0.000 F 
ATOM     12  C   UNL     1       1.736   4.077  19.091  0.00  0.00    +0.000 A 
ATOM     13  C   UNL     1       3.072   4.398  18.807  0.00  0.00    +0.000 A 
ENDROOT
BRANCH   1  14
ATOM     14  N   UNL     1       2.968   6.841  18.481  0.00  0.00    +0.000 N 
ATOM     15  H   UNL     1       3.289   6.996  17.538  0.00  0.00    +0.000 HD
BRANCH  14  16
ATOM     16  C   UNL     1       2.209   7.846  19.054  0.00  0.00    +0.000 C 
ATOM     17  S   UNL     1       1.706   9.230  18.260  0.00  0.00    +0.000 S 
BRANCH  16  18
ATOM     18  N   UNL     1       1.901   7.551  20.369  0.00  0.00    +0.000 N 
ATOM     19  H   UNL     1       1.957   6.589  20.667  0.00  0.00    +0.000 HD
BRANCH  18  21
ATOM     20  C   UNL     1      -0.128   8.385  21.523  0.00  0.00    +0.000 C 
ATOM     21  C   UNL     1       1.369   8.515  21.327  0.00  0.00    +0.000 C 
ENDBRANCH  18  21
ENDBRANCH  16  18
ENDBRANCH  14  16
ENDBRANCH   1  14
TORSDOF 4
ENDMDL
MODEL 5
REMARK VINA RESULT:      -6.5      3.508      5.033
REMARK  Name = 
REMARK  7 active torsions:
REMARK  status: ('A' for Active; 'I' for Inactive)
REMARK    1  A    between atoms: C_1  and  C_2
REMARK    2  A    between atoms: C_2  and  N_3
REMARK    3  A    between atoms: N_3  and  C_4
REMARK    4  A    between atoms: C_4  and  N_6
REMARK    5  A    between atoms: N_6  and  C_7
REMARK    6  A    between atoms: C_9  and  C_10
REMARK    7  A    between atoms: C_9  and  C_11
REMARK                            x       y       z     vdW  Elec       q    Type
REMARK                         _______ _______ _______ _____ _____    ______ ____
ROOT
ATOM      1  C   UNL     1       2.924   5.840  17.959  0.00  0.00    +0.000 C 
ATOM      2  C   UNL     1       2.263   4.477  17.741  0.00  0.00    +0.000 C 
ATOM      3  C   UNL     1       3.145   3.313  18.213  0.00  0.00    +0.000 C 
ATOM      4  C   UNL     1       3.406   3.293  19.728  0.00  0.00    +0.000 C 
ATOM      5  C   UNL     1       2.451   1.994  17.839  0.00  0.00    +0.000 C 
ATOM      6  O   UNL     1       4.405   3.321  17.517  0.00  0.00    +0.000 OA
ATOM      7  C   UNL     1       5.032   4.536  17.427  0.00  0.00    +0.000 A 
ATOM      8  C   UNL     1       6.374   4.494  17.040  0.00  0.00    +0.000 A 
ATOM      9  C   UNL     1       7.110   5.673  16.933  0.00  0.00    +0.000 A 
ATOM     10  C   UNL     1       6.498   6.884  17.220  0.00  0.00    +0.000 A 
ATOM     11  F   UNL     1       7.206   8.021  17.123  0.00  0.00    +0.000 F 
ATOM     12  C   UNL     1       5.159   6.942  17.585  0.00  0.00    +0.000 A 
ATOM     13  C   UNL     1       4.403   5.762  17.676  0.00  0.00    +0.000 A 
ENDROOT
BRANCH   1  14
ATOM     14  N   UNL     1       2.649   6.384  19.295  0.00  0.00    +0.000 N 
ATOM     15  H   UNL     1       2.629   5.713  20.047  0.00  0.00    +0.000 HD
BRANCH  14  16
ATOM     16  C   UNL     1       2.122   7.635  19.562  0.00  0.00    +0.000 C 
ATOM     17  S   UNL     1       1.851   8.820  18.412  0.00  0.00    +0.000 S 
BRANCH  16  18
ATOM     18  N   UNL     1       1.827   7.776  20.905  0.00  0.00    +0.000 N 
ATOM     19  H   UNL     1       2.042   7.008  21.524  0.00  0.00    +0.000 HD
BRANCH  18  21
ATOM     20  C   UNL     1      -0.363   8.603  21.718  0.00  0.00    +0.000 C 
ATOM     21  C   UNL     1       1.101   8.906  21.476  0.00  0.00    +0.000 C 
ENDBRANCH  18  21
ENDBRANCH  16  18
ENDBRANCH  14  16
ENDBRANCH   1  14
TORSDOF 4
ENDMDL
MODEL 6
REMARK VINA RESULT:      -6.4      2.997      5.305
REMARK  Name = 
REMARK  7 active torsions:
REMARK  status: ('A' for Active; 'I' for Inactive)
REMARK    1  A    between atoms: C_1  and  C_2
REMARK    2  A    between atoms: C_2  and  N_3
REMARK    3  A    between atoms: N_3  and  C_4
REMARK    4  A    between atoms: C_4  and  N_6
REMARK    5  A    between atoms: N_6  and  C_7
REMARK    6  A    between atoms: C_9  and  C_10
REMARK    7  A    between atoms: C_9  and  C_11
REMARK                            x       y       z     vdW  Elec       q    Type
REMARK                         _______ _______ _______ _____ _____    ______ ____
ROOT
ATOM      1  C   UNL     1       5.178   5.049  16.099  0.00  0.00    +0.000 C 
ATOM      2  C   UNL     1       6.157   6.136  16.552  0.00  0.00    +0.000 C 
ATOM      3  C   UNL     1       6.888   5.764  17.849  0.00  0.00    +0.000 C 
ATOM      4  C   UNL     1       7.816   4.545  17.724  0.00  0.00    +0.000 C 
ATOM      5  C   UNL     1       7.746   6.964  18.284  0.00  0.00    +0.000 C 
ATOM      6  O   UNL     1       5.945   5.534  18.911  0.00  0.00    +0.000 OA
ATOM      7  C   UNL     1       4.869   4.746  18.596  0.00  0.00    +0.000 A 
ATOM      8  C   UNL     1       4.133   4.268  19.684  0.00  0.00    +0.000 A 
ATOM      9  C   UNL     1       3.029   3.444  19.476  0.00  0.00    +0.000 A 
ATOM     10  C   UNL     1       2.672   3.101  18.180  0.00  0.00    +0.000 A 
ATOM     11  F   UNL     1       1.612   2.303  17.976  0.00  0.00    +0.000 F 
ATOM     12  C   UNL     1       3.382   3.587  17.089  0.00  0.00    +0.000 A 
ATOM     13  C   UNL     1       4.484   4.433  17.287  0.00  0.00    +0.000 A 
ENDROOT
BRANCH   1  14
ATOM     14  N   UNL     1       5.826   4.036  15.255  0.00  0.00    +0.000 N 
ATOM     15  H   UNL     1       6.309   3.299  15.746  0.00  0.00    +0.000 HD
BRANCH  14  16
ATOM     16  C   UNL     1       6.095   4.166  13.905  0.00  0.00    +0.000 C 
ATOM     17  S   UNL     1       7.523   4.764  13.271  0.00  0.00    +0.000 S 
BRANCH  16  18
ATOM     18  N   UNL     1       5.034   3.719  13.139  0.00  0.00    +0.000 N 
ATOM     19  H   UNL     1       4.111   3.735  13.547  0.00  0.00    +0.000 HD
BRANCH  18  21
ATOM     20  C   UNL     1       3.904   3.191  10.997  0.00  0.00    +0.000 C 
ATOM     21  C   UNL     1       5.169   3.097  11.825  0.00  0.00    +0.000 C 
ENDBRANCH  18  21
ENDBRANCH  16  18
ENDBRANCH  14  16
ENDBRANCH   1  14
TORSDOF 4
ENDMDL
MODEL 7
REMARK VINA RESULT:      -6.3      3.201      4.565
REMARK  Name = 
REMARK  7 active torsions:
REMARK  status: ('A' for Active; 'I' for Inactive)
REMARK    1  A    between atoms: C_1  and  C_2
REMARK    2  A    between atoms: C_2  and  N_3
REMARK    3  A    between atoms: N_3  and  C_4
REMARK    4  A    between atoms: C_4  and  N_6
REMARK    5  A    between atoms: N_6  and  C_7
REMARK    6  A    between atoms: C_9  and  C_10
REMARK    7  A    between atoms: C_9  and  C_11
REMARK                            x       y       z     vdW  Elec       q    Type
REMARK                         _______ _______ _______ _____ _____    ______ ____
ROOT
ATOM      1  C   UNL     1       3.595   5.745  18.166  0.00  0.00    +0.000 C 
ATOM      2  C   UNL     1       2.742   4.534  17.780  0.00  0.00    +0.000 C 
ATOM      3  C   UNL     1       3.541   3.223  17.799  0.00  0.00    +0.000 C 
ATOM      4  C   UNL     1       4.049   2.813  19.190  0.00  0.00    +0.000 C 
ATOM      5  C   UNL     1       2.635   2.095  17.279  0.00  0.00    +0.000 C 
ATOM      6  O   UNL     1       4.655   3.299  16.891  0.00  0.00    +0.000 OA
ATOM      7  C   UNL     1       5.404   4.445  16.957  0.00  0.00    +0.000 A 
ATOM      8  C   UNL     1       6.645   4.391  16.317  0.00  0.00    +0.000 A 
ATOM      9  C   UNL     1       7.493   5.497  16.337  0.00  0.00    +0.000 A 
ATOM     10  C   UNL     1       7.093   6.647  17.002  0.00  0.00    +0.000 A 
ATOM     11  F   UNL     1       7.910   7.712  17.028  0.00  0.00    +0.000 F 
ATOM     12  C   UNL     1       5.853   6.721  17.623  0.00  0.00    +0.000 A 
ATOM     13  C   UNL     1       4.983   5.620  17.591  0.00  0.00    +0.000 A 
ENDROOT
BRANCH   1  14
ATOM     14  N   UNL     1       3.620   5.967  19.618  0.00  0.00    +0.000 N 
ATOM     15  H   UNL     1       4.471   5.699  20.089  0.00  0.00    +0.000 HD
BRANCH  14  16
ATOM     16  C   UNL     1       2.514   6.203  20.415  0.00  0.00    +0.000 C 
ATOM     17  S   UNL     1       1.648   7.634  20.443  0.00  0.00    +0.000 S 
BRANCH  16  18
ATOM     18  N   UNL     1       2.202   5.092  21.176  0.00  0.00    +0.000 N 
ATOM     19  H   UNL     1       2.773   4.892  21.984  0.00  0.00    +0.000 HD
BRANCH  18  21
ATOM     20  C   UNL     1       1.360   2.790  21.547  0.00  0.00    +0.000 C 
ATOM     21  C   UNL     1       1.184   4.108  20.820  0.00  0.00    +0.000 C 
ENDBRANCH  18  21
ENDBRANCH  16  18
ENDBRANCH  14  16
ENDBRANCH   1  14
TORSDOF 4
ENDMDL
MODEL 8
REMARK VINA RESULT:      -6.2      3.602      5.307
REMARK  Name = 
REMARK  7 active torsions:
REMARK  status: ('A' for Active; 'I' for Inactive)
REMARK    1  A    between atoms: C_1  and  C_2
REMARK    2  A    between atoms: C_2  and  N_3
REMARK    3  A    between atoms: N_3  and  C_4
REMARK    4  A    between atoms: C_4  and  N_6
REMARK    5  A    between atoms: N_6  and  C_7
REMARK    6  A    between atoms: C_9  and  C_10
REMARK    7  A    between atoms: C_9  and  C_11
REMARK                            x       y       z     vdW  Elec       q    Type
REMARK                         _______ _______ _______ _____ _____    ______ ____
ROOT
ATOM      1  C   UNL     1       3.830   5.777  18.923  0.00  0.00    +0.000 C 
ATOM      2  C   UNL     1       5.333   5.749  18.633  0.00  0.00    +0.000 C 
ATOM      3  C   UNL     1       5.675   4.939  17.375  0.00  0.00    +0.000 C 
ATOM      4  C   UNL     1       5.119   5.534  16.071  0.00  0.00    +0.000 C 
ATOM      5  C   UNL     1       7.205   4.868  17.244  0.00  0.00    +0.000 C 
ATOM      6  O   UNL     1       5.215   3.582  17.510  0.00  0.00    +0.000 OA
ATOM      7  C   UNL     1       3.938   3.426  17.981  0.00  0.00    +0.000 A 
ATOM      8  C   UNL     1       3.387   2.152  17.817  0.00  0.00    +0.000 A 
ATOM      9  C   UNL     1       2.087   1.891  18.246  0.00  0.00    +0.000 A 
ATOM     10  C   UNL     1       1.348   2.907  18.832  0.00  0.00    +0.000 A 
ATOM     11  F   UNL     1       0.093   2.660  19.242  0.00  0.00    +0.000 F 
ATOM     12  C   UNL     1       1.891   4.172  19.022  0.00  0.00    +0.000 A 
ATOM     13  C   UNL     1       3.206   4.440  18.611  0.00  0.00    +0.000 A 
ENDROOT
BRANCH   1  14
ATOM     14  N   UNL     1       3.150   6.876  18.224  0.00  0.00    +0.000 N 
ATOM     15  H   UNL     1       3.541   7.139  17.332  0.00  0.00    +0.000 HD
BRANCH  14  16
ATOM     16  C   UNL     1       2.253   7.760  18.796  0.00  0.00    +0.000 C 
ATOM     17  S   UNL     1       1.768   7.723  20.397  0.00  0.00    +0.000 S 
BRANCH  16  18
ATOM     18  N   UNL     1       1.819   8.696  17.876  0.00  0.00    +0.000 N 
ATOM     19  H   UNL     1       1.959   8.502  16.895  0.00  0.00    +0.000 HD
BRANCH  18  21
ATOM     20  C   UNL     1      -0.220  10.078  18.152  0.00  0.00    +0.000 C 
ATOM     21  C   UNL     1       1.292  10.012  18.224  0.00  0.00    +0.000 C 
ENDBRANCH  18  21
ENDBRANCH  16  18
ENDBRANCH  14  16
ENDBRANCH   1  14
TORSDOF 4
ENDMDL
MODEL 9
REMARK VINA RESULT:      -6.2      2.897      4.533
REMARK  Name = 
REMARK  7 active torsions:
REMARK  status: ('A' for Active; 'I' for Inactive)
REMARK    1  A    between atoms: C_1  and  C_2
REMARK    2  A    between atoms: C_2  and  N_3
REMARK    3  A    between atoms: N_3  and  C_4
REMARK    4  A    between atoms: C_4  and  N_6
REMARK    5  A    between atoms: N_6  and  C_7
REMARK    6  A    between atoms: C_9  and  C_10
REMARK    7  A    between atoms: C_9  and  C_11
REMARK                            x       y       z     vdW  Elec       q    Type
REMARK                         _______ _______ _______ _____ _____    ______ ____
ROOT
ATOM      1  C   UNL     1       4.259   3.814  16.889  0.00  0.00    +0.000 C 
ATOM      2  C   UNL     1       5.190   3.786  15.674  0.00  0.00    +0.000 C 
ATOM      3  C   UNL     1       6.276   4.868  15.740  0.00  0.00    +0.000 C 
ATOM      4  C   UNL     1       7.272   4.694  16.898  0.00  0.00    +0.000 C 
ATOM      5  C   UNL     1       7.074   4.837  14.426  0.00  0.00    +0.000 C 
ATOM      6  O   UNL     1       5.680   6.175  15.822  0.00  0.00    +0.000 OA
ATOM      7  C   UNL     1       4.658   6.312  16.724  0.00  0.00    +0.000 A 
ATOM      8  C   UNL     1       4.295   7.627  17.029  0.00  0.00    +0.000 A 
ATOM      9  C   UNL     1       3.277   7.878  17.947  0.00  0.00    +0.000 A 
ATOM     10  C   UNL     1       2.633   6.811  18.557  0.00  0.00    +0.000 A 
ATOM     11  F   UNL     1       1.656   7.050  19.446  0.00  0.00    +0.000 F 
ATOM     12  C   UNL     1       2.969   5.499  18.246  0.00  0.00    +0.000 A 
ATOM     13  C   UNL     1       3.979   5.235  17.307  0.00  0.00    +0.000 A 
ENDROOT
BRANCH   1  14
ATOM     14  N   UNL     1       4.773   3.006  18.002  0.00  0.00    +0.000 N 
ATOM     15  H   UNL     1       5.754   2.774  17.961  0.00  0.00    +0.000 HD
BRANCH  14  16
ATOM     16  C   UNL     1       4.001   2.293  18.902  0.00  0.00    +0.000 C 
ATOM     17  S   UNL     1       4.370   2.086  20.520  0.00  0.00    +0.000 S 
BRANCH  16  18
ATOM     18  N   UNL     1       2.868   1.784  18.294  0.00  0.00    +0.000 N 
ATOM     19  H   UNL     1       2.908   1.579  17.307  0.00  0.00    +0.000 HD
BRANCH  18  21
ATOM     20  C   UNL     1       0.696   2.873  18.785  0.00  0.00    +0.000 C 
ATOM     21  C   UNL     1       1.571   1.647  18.950  0.00  0.00    +0.000 C 
ENDBRANCH  18  21
ENDBRANCH  16  18
ENDBRANCH  14  16
ENDBRANCH   1  14
TORSDOF 4
ENDMDL
