MODEL 1
REMARK VINA RESULT:      -7.4      0.000      0.000
REMARK  Name = 
REMARK  11 active torsions:
REMARK  status: ('A' for Active; 'I' for Inactive)
REMARK    1  A    between atoms: C_1  and  C_2
REMARK    2  A    between atoms: C_2  and  O_3
REMARK    3  A    between atoms: O_3  and  C_4
REMARK    4  A    between atoms: C_4  and  C_6
REMARK    5  A    between atoms: C_6  and  C_7
REMARK    6  A    between atoms: C_7  and  C_8
REMARK    7  A    between atoms: C_8  and  O_9
REMARK    8  A    between atoms: O_9  and  C_10
REMARK    9  A    between atoms: N_18  and  C_19
REMARK   10  A    between atoms: C_19  and  C_20
REMARK   11  A    between atoms: N_24  and  C_25
REMARK                            x       y       z     vdW  Elec       q    Type
REMARK                         _______ _______ _______ _____ _____    ______ ____
ROOT
ATOM      1  C   UNL     1       2.914   5.893  19.261  0.00  0.00    +0.000 C 
ATOM      2  C   UNL     1       2.430   6.775  20.431  0.00  0.00    +0.000 C 
ATOM      3  C   UNL     1       1.332   7.750  19.996  0.00  0.00    +0.000 C 
ATOM      4  N   UNL     1       1.821   8.618  18.922  0.00  0.00    +0.000 NA
ATOM      5  C   UNL     1       2.226   7.848  17.743  0.00  0.00    +0.000 C 
ATOM      6  C   UNL     1       3.315   6.830  18.096  0.00  0.00    +0.000 C 
ENDROOT
BRANCH   1   7
ATOM      7  C   UNL     1       1.768   4.961  18.829  0.00  0.00    +0.000 C 
ATOM      8  O   UNL     1       1.501   4.684  17.667  0.00  0.00    +0.000 OA
BRANCH   7   9
ATOM      9  O   UNL     1       1.074   4.510  19.909  0.00  0.00    +0.000 OA
BRANCH   9  11
ATOM     10  C   UNL     1       1.613   2.726  21.480  0.00  0.00    +0.000 C 
ATOM     11  C   UNL     1       1.071   3.089  20.114  0.00  0.00    +0.000 C 
ENDBRANCH   9  11
ENDBRANCH   7   9
ENDBRANCH   1   7
BRANCH   1  12
ATOM     12  C   UNL     1       4.124   5.040  19.715  0.00  0.00    +0.000 C 
BRANCH  12  13
ATOM     13  C   UNL     1       4.624   4.076  18.634  0.00  0.00    +0.000 C 
BRANCH  13  14
ATOM     14  O   UNL     1       6.051   4.007  18.680  0.00  0.00    +0.000 OA
BRANCH  14  15
ATOM     15  C   UNL     1       6.674   5.190  18.367  0.00  0.00    +0.000 A 
ATOM     16  C   UNL     1       6.315   5.761  17.146  0.00  0.00    +0.000 A 
ATOM     17  C   UNL     1       6.902   6.960  16.728  0.00  0.00    +0.000 A 
ATOM     18  C   UNL     1       7.835   7.600  17.541  0.00  0.00    +0.000 A 
ATOM     19  C   UNL     1       8.178   7.046  18.772  0.00  0.00    +0.000 A 
ATOM     20  C   UNL     1       7.597   5.847  19.185  0.00  0.00    +0.000 A 
ENDBRANCH  14  15
ENDBRANCH  13  14
ENDBRANCH  12  13
ENDBRANCH   1  12
BRANCH   4  21
ATOM     21  C   UNL     1       0.852   9.656  18.533  0.00  0.00    +0.000 C 
BRANCH  21  22
ATOM     22  C   UNL     1       1.370  11.040  18.784  0.00  0.00    +0.000 A 
ATOM     23  C   UNL     1       2.289  11.707  17.985  0.00  0.00    +0.000 A 
ATOM     24  C   UNL     1       2.582  12.941  18.584  0.00  0.00    +0.000 A 
ATOM     25  C   UNL     1       1.862  12.992  19.752  0.00  0.00    +0.000 A 
ATOM     26  N   UNL     1       1.088  11.847  19.891  0.00  0.00    +0.000 N 
BRANCH  26  27
ATOM     27  C   UNL     1       0.205  11.618  20.993  0.00  0.00    +0.000 A 
ATOM     28  C   UNL     1      -0.992  12.313  21.165  0.00  0.00    +0.000 A 
ATOM     29  C   UNL     1      -1.812  12.046  22.261  0.00  0.00    +0.000 A 
ATOM     30  C   UNL     1      -1.399  11.091  23.171  0.00  0.00    +0.000 A 
ATOM     31  N   UNL     1      -0.245  10.408  23.057  0.00  0.00    +0.000 NA
ATOM     32  C   UNL     1       0.531  10.688  21.976  0.00  0.00    +0.000 A 
ENDBRANCH  26  27
ENDBRANCH  21  22
ENDBRANCH   4  21
TORSDOF 10
ENDMDL
MODEL 2
REMARK VINA RESULT:      -7.3      1.517      2.435
REMARK  Name = 
REMARK  11 active torsions:
REMARK  status: ('A' for Active; 'I' for Inactive)
REMARK    1  A    between atoms: C_1  and  C_2
REMARK    2  A    between atoms: C_2  and  O_3
REMARK    3  A    between atoms: O_3  and  C_4
REMARK    4  A    between atoms: C_4  and  C_6
REMARK    5  A    between atoms: C_6  and  C_7
REMARK    6  A    between atoms: C_7  and  C_8
REMARK    7  A    between atoms: C_8  and  O_9
REMARK    8  A    between atoms: O_9  and  C_10
REMARK    9  A    between atoms: N_18  and  C_19
REMARK   10  A    between atoms: C_19  and  C_20
REMARK   11  A    between atoms: N_24  and  C_25
REMARK                            x       y       z     vdW  Elec       q    Type
REMARK                         _______ _______ _______ _____ _____    ______ ____
ROOT
ATOM      1  C   UNL     1       3.711   3.828  18.238  0.00  0.00    +0.000 C 
ATOM      2  C   UNL     1       4.476   4.810  19.149  0.00  0.00    +0.000 C 
ATOM      3  C   UNL     1       3.526   5.668  19.990  0.00  0.00    +0.000 C 
ATOM      4  N   UNL     1       2.630   6.433  19.120  0.00  0.00    +0.000 NA
ATOM      5  C   UNL     1       1.811   5.557  18.277  0.00  0.00    +0.000 C 
ATOM      6  C   UNL     1       2.689   4.646  17.413  0.00  0.00    +0.000 C 
ENDROOT
BRANCH   1   7
ATOM      7  C   UNL     1       2.985   2.793  19.115  0.00  0.00    +0.000 C 
ATOM      8  O   UNL     1       1.983   2.177  18.776  0.00  0.00    +0.000 OA
BRANCH   7   9
ATOM      9  O   UNL     1       3.589   2.674  20.329  0.00  0.00    +0.000 OA
BRANCH   9  11
ATOM     10  C   UNL     1       1.685   3.300  21.715  0.00  0.00    +0.000 C 
ATOM     11  C   UNL     1       2.750   2.266  21.420  0.00  0.00    +0.000 C 
ENDBRANCH   9  11
ENDBRANCH   7   9
ENDBRANCH   1   7
BRANCH   1  12
ATOM     12  C   UNL     1       4.706   3.098  17.303  0.00  0.00    +0.000 C 
BRANCH  12  13
ATOM     13  C   UNL     1       5.119   3.935  16.088  0.00  0.00    +0.000 C 
BRANCH  13  14
ATOM     14  O   UNL     1       6.541   4.071  16.064  0.00  0.00    +0.000 OA
BRANCH  14  15
ATOM     15  C   UNL     1       7.017   5.077  16.870  0.00  0.00    +0.000 A 
ATOM     16  C   UNL     1       7.669   4.666  18.032  0.00  0.00    +0.000 A 
ATOM     17  C   UNL     1       8.179   5.612  18.928  0.00  0.00    +0.000 A 
ATOM     18  C   UNL     1       8.054   6.972  18.651  0.00  0.00    +0.000 A 
ATOM     19  C   UNL     1       7.425   7.386  17.479  0.00  0.00    +0.000 A 
ATOM     20  C   UNL     1       6.912   6.442  16.590  0.00  0.00    +0.000 A 
ENDBRANCH  14  15
ENDBRANCH  13  14
ENDBRANCH  12  13
ENDBRANCH   1  12
BRANCH   4  21
ATOM     21  C   UNL     1       1.765   7.367  19.860  0.00  0.00    +0.000 C 
BRANCH  21  22
ATOM     22  C   UNL     1       1.670   8.705  19.192  0.00  0.00    +0.000 A 
ATOM     23  C   UNL     1       2.229   9.027  17.961  0.00  0.00    +0.000 A 
ATOM     24  C   UNL     1       1.992  10.386  17.710  0.00  0.00    +0.000 A 
ATOM     25  C   UNL     1       1.323  10.878  18.804  0.00  0.00    +0.000 A 
ATOM     26  N   UNL     1       1.089   9.861  19.722  0.00  0.00    +0.000 N 
BRANCH  26  27
ATOM     27  C   UNL     1       0.384  10.054  20.952  0.00  0.00    +0.000 A 
ATOM     28  C   UNL     1       0.623   9.289  22.093  0.00  0.00    +0.000 A 
ATOM     29  C   UNL     1      -0.097   9.525  23.264  0.00  0.00    +0.000 A 
ATOM     30  C   UNL     1      -1.056  10.520  23.255  0.00  0.00    +0.000 A 
ATOM     31  N   UNL     1      -1.334  11.271  22.173  0.00  0.00    +0.000 NA
ATOM     32  C   UNL     1      -0.613  11.021  21.048  0.00  0.00    +0.000 A 
ENDBRANCH  26  27
ENDBRANCH  21  22
ENDBRANCH   4  21
TORSDOF 10
ENDMDL
MODEL 3
REMARK VINA RESULT:      -7.2      3.740      9.636
REMARK  Name = 
REMARK  11 active torsions:
REMARK  status: ('A' for Active; 'I' for Inactive)
REMARK    1  A    between atoms: C_1  and  C_2
REMARK    2  A    between atoms: C_2  and  O_3
REMARK    3  A    between atoms: O_3  and  C_4
REMARK    4  A    between atoms: C_4  and  C_6
REMARK    5  A    between atoms: C_6  and  C_7
REMARK    6  A    between atoms: C_7  and  C_8
REMARK    7  A    between atoms: C_8  and  O_9
REMARK    8  A    between atoms: O_9  and  C_10
REMARK    9  A    between atoms: N_18  and  C_19
REMARK   10  A    between atoms: C_19  and  C_20
REMARK   11  A    between atoms: N_24  and  C_25
REMARK                            x       y       z     vdW  Elec       q    Type
REMARK                         _______ _______ _______ _____ _____    ______ ____
ROOT
ATOM      1  C   UNL     1       0.002  10.502  19.726  0.00  0.00    +0.000 C 
ATOM      2  C   UNL     1      -0.008   9.430  20.835  0.00  0.00    +0.000 C 
ATOM      3  C   UNL     1       1.300   8.635  20.874  0.00  0.00    +0.000 C 
ATOM      4  N   UNL     1       1.532   7.978  19.586  0.00  0.00    +0.000 NA
ATOM      5  C   UNL     1       1.632   8.947  18.491  0.00  0.00    +0.000 C 
ATOM      6  C   UNL     1       0.365   9.801  18.394  0.00  0.00    +0.000 C 
ENDROOT
BRANCH   1   7
ATOM      7  C   UNL     1       1.053  11.571  20.071  0.00  0.00    +0.000 C 
ATOM      8  O   UNL     1       1.384  11.875  21.210  0.00  0.00    +0.000 OA
BRANCH   7   9
ATOM      9  O   UNL     1       1.545  12.153  18.943  0.00  0.00    +0.000 OA
BRANCH   9  11
ATOM     10  C   UNL     1       2.729  14.133  18.159  0.00  0.00    +0.000 C 
ATOM     11  C   UNL     1       1.534  13.588  18.912  0.00  0.00    +0.000 C 
ENDBRANCH   9  11
ENDBRANCH   7   9
ENDBRANCH   1   7
BRANCH   1  12
ATOM     12  C   UNL     1      -1.393  11.168  19.628  0.00  0.00    +0.000 C 
BRANCH  12  13
ATOM     13  C   UNL     1      -2.175  10.753  18.378  0.00  0.00    +0.000 C 
BRANCH  13  14
ATOM     14  O   UNL     1      -3.056  11.810  17.993  0.00  0.00    +0.000 OA
BRANCH  14  15
ATOM     15  C   UNL     1      -4.335  11.669  18.472  0.00  0.00    +0.000 A 
ATOM     16  C   UNL     1      -4.643  12.417  19.609  0.00  0.00    +0.000 A 
ATOM     17  C   UNL     1      -5.916  12.335  20.184  0.00  0.00    +0.000 A 
ATOM     18  C   UNL     1      -6.889  11.519  19.610  0.00  0.00    +0.000 A 
ATOM     19  C   UNL     1      -6.593  10.790  18.461  0.00  0.00    +0.000 A 
ATOM     20  C   UNL     1      -5.322  10.868  17.892  0.00  0.00    +0.000 A 
ENDBRANCH  14  15
ENDBRANCH  13  14
ENDBRANCH  12  13
ENDBRANCH   1  12
BRANCH   4  21
ATOM     21  C   UNL     1       2.717   7.103  19.590  0.00  0.00    +0.000 C 
BRANCH  21  22
ATOM     22  C   UNL     1       2.353   5.655  19.716  0.00  0.00    +0.000 A 
ATOM     23  C   UNL     1       1.273   5.161  20.435  0.00  0.00    +0.000 A 
ATOM     24  C   UNL     1       1.307   3.759  20.378  0.00  0.00    +0.000 A 
ATOM     25  C   UNL     1       2.424   3.422  19.654  0.00  0.00    +0.000 A 
ATOM     26  N   UNL     1       3.075   4.568  19.212  0.00  0.00    +0.000 N 
BRANCH  26  27
ATOM     27  C   UNL     1       4.256   4.545  18.405  0.00  0.00    +0.000 A 
ATOM     28  C   UNL     1       4.226   4.456  17.014  0.00  0.00    +0.000 A 
ATOM     29  C   UNL     1       5.412   4.438  16.282  0.00  0.00    +0.000 A 
ATOM     30  C   UNL     1       6.609   4.493  16.971  0.00  0.00    +0.000 A 
ATOM     31  N   UNL     1       6.689   4.560  18.313  0.00  0.00    +0.000 NA
ATOM     32  C   UNL     1       5.515   4.581  18.999  0.00  0.00    +0.000 A 
ENDBRANCH  26  27
ENDBRANCH  21  22
ENDBRANCH   4  21
TORSDOF 10
ENDMDL
MODEL 4
REMARK VINA RESULT:      -7.2      3.777      7.181
REMARK  Name = 
REMARK  11 active torsions:
REMARK  status: ('A' for Active; 'I' for Inactive)
REMARK    1  A    between atoms: C_1  and  C_2
REMARK    2  A    between atoms: C_2  and  O_3
REMARK    3  A    between atoms: O_3  and  C_4
REMARK    4  A    between atoms: C_4  and  C_6
REMARK    5  A    between atoms: C_6  and  C_7
REMARK    6  A    between atoms: C_7  and  C_8
REMARK    7  A    between atoms: C_8  and  O_9
REMARK    8  A    between atoms: O_9  and  C_10
REMARK    9  A    between atoms: N_18  and  C_19
REMARK   10  A    between atoms: C_19  and  C_20
REMARK   11  A    between atoms: N_24  and  C_25
REMARK                            x       y       z     vdW  Elec       q    Type
REMARK                         _______ _______ _______ _____ _____    ______ ____
ROOT
ATOM      1  C   UNL     1       6.721   4.946  16.108  0.00  0.00    +0.000 C 
ATOM      2  C   UNL     1       5.426   4.113  16.017  0.00  0.00    +0.000 C 
ATOM      3  C   UNL     1       4.595   4.205  17.299  0.00  0.00    +0.000 C 
ATOM      4  N   UNL     1       5.378   3.736  18.445  0.00  0.00    +0.000 NA
ATOM      5  C   UNL     1       6.590   4.536  18.641  0.00  0.00    +0.000 C 
ATOM      6  C   UNL     1       7.473   4.513  17.390  0.00  0.00    +0.000 C 
ENDROOT
BRANCH   1   7
ATOM      7  C   UNL     1       6.353   6.438  16.182  0.00  0.00    +0.000 C 
ATOM      8  O   UNL     1       5.258   6.897  15.885  0.00  0.00    +0.000 OA
BRANCH   7   9
ATOM      9  O   UNL     1       7.416   7.182  16.594  0.00  0.00    +0.000 OA
BRANCH   9  11
ATOM     10  C   UNL     1       8.393   8.776  18.157  0.00  0.00    +0.000 C 
ATOM     11  C   UNL     1       7.129   8.245  17.516  0.00  0.00    +0.000 C 
ENDBRANCH   9  11
ENDBRANCH   7   9
ENDBRANCH   1   7
BRANCH   1  12
ATOM     12  C   UNL     1       7.595   4.695  14.854  0.00  0.00    +0.000 C 
BRANCH  12  13
ATOM     13  C   UNL     1       7.024   5.330  13.582  0.00  0.00    +0.000 C 
BRANCH  13  14
ATOM     14  O   UNL     1       7.587   4.691  12.435  0.00  0.00    +0.000 OA
BRANCH  14  15
ATOM     15  C   UNL     1       6.867   3.608  11.994  0.00  0.00    +0.000 A 
ATOM     16  C   UNL     1       7.617   2.554  11.471  0.00  0.00    +0.000 A 
ATOM     17  C   UNL     1       6.978   1.409  10.982  0.00  0.00    +0.000 A 
ATOM     18  C   UNL     1       5.590   1.309  11.035  0.00  0.00    +0.000 A 
ATOM     19  C   UNL     1       4.840   2.348  11.579  0.00  0.00    +0.000 A 
ATOM     20  C   UNL     1       5.476   3.492  12.061  0.00  0.00    +0.000 A 
ENDBRANCH  14  15
ENDBRANCH  13  14
ENDBRANCH  12  13
ENDBRANCH   1  12
BRANCH   4  21
ATOM     21  C   UNL     1       4.601   3.690  19.695  0.00  0.00    +0.000 C 
BRANCH  21  22
ATOM     22  C   UNL     1       3.173   3.299  19.463  0.00  0.00    +0.000 A 
ATOM     23  C   UNL     1       2.720   2.000  19.274  0.00  0.00    +0.000 A 
ATOM     24  C   UNL     1       1.342   2.046  19.014  0.00  0.00    +0.000 A 
ATOM     25  C   UNL     1       0.985   3.372  19.017  0.00  0.00    +0.000 A 
ATOM     26  N   UNL     1       2.086   4.166  19.315  0.00  0.00    +0.000 N 
BRANCH  26  27
ATOM     27  C   UNL     1       2.026   5.592  19.421  0.00  0.00    +0.000 A 
ATOM     28  C   UNL     1       2.426   6.449  18.397  0.00  0.00    +0.000 A 
ATOM     29  C   UNL     1       2.344   7.831  18.560  0.00  0.00    +0.000 A 
ATOM     30  C   UNL     1       1.874   8.322  19.764  0.00  0.00    +0.000 A 
ATOM     31  N   UNL     1       1.494   7.535  20.787  0.00  0.00    +0.000 NA
ATOM     32  C   UNL     1       1.582   6.192  20.596  0.00  0.00    +0.000 A 
ENDBRANCH  26  27
ENDBRANCH  21  22
ENDBRANCH   4  21
TORSDOF 10
ENDMDL
MODEL 5
REMARK VINA RESULT:      -7.1      2.202      3.173
REMARK  Name = 
REMARK  11 active torsions:
REMARK  status: ('A' for Active; 'I' for Inactive)
REMARK    1  A    between atoms: C_1  and  C_2
REMARK    2  A    between atoms: C_2  and  O_3
REMARK    3  A    between atoms: O_3  and  C_4
REMARK    4  A    between atoms: C_4  and  C_6
REMARK    5  A    between atoms: C_6  and  C_7
REMARK    6  A    between atoms: C_7  and  C_8
REMARK    7  A    between atoms: C_8  and  O_9
REMARK    8  A    between atoms: O_9  and  C_10
REMARK    9  A    between atoms: N_18  and  C_19
REMARK   10  A    between atoms: C_19  and  C_20
REMARK   11  A    between atoms: N_24  and  C_25
REMARK                            x       y       z     vdW  Elec       q    Type
REMARK                         _______ _______ _______ _____ _____    ______ ____
ROOT
ATOM      1  C   UNL     1       2.957   5.832  19.255  0.00  0.00    +0.000 C 
ATOM      2  C   UNL     1       2.383   6.765  20.341  0.00  0.00    +0.000 C 
ATOM      3  C   UNL     1       1.363   7.752  19.766  0.00  0.00    +0.000 C 
ATOM      4  N   UNL     1       1.982   8.570  18.721  0.00  0.00    +0.000 NA
ATOM      5  C   UNL     1       2.483   7.751  17.614  0.00  0.00    +0.000 C 
ATOM      6  C   UNL     1       3.500   6.718  18.109  0.00  0.00    +0.000 C 
ENDROOT
BRANCH   1   7
ATOM      7  C   UNL     1       1.834   4.916  18.738  0.00  0.00    +0.000 C 
ATOM      8  O   UNL     1       1.671   4.617  17.562  0.00  0.00    +0.000 OA
BRANCH   7   9
ATOM      9  O   UNL     1       1.031   4.506  19.757  0.00  0.00    +0.000 OA
BRANCH   9  11
ATOM     10  C   UNL     1       1.397   2.761  21.419  0.00  0.00    +0.000 C 
ATOM     11  C   UNL     1       0.984   3.092  20.001  0.00  0.00    +0.000 C 
ENDBRANCH   9  11
ENDBRANCH   7   9
ENDBRANCH   1   7
BRANCH   1  12
ATOM     12  C   UNL     1       4.090   4.964  19.857  0.00  0.00    +0.000 C 
BRANCH  12  13
ATOM     13  C   UNL     1       4.716   4.001  18.844  0.00  0.00    +0.000 C 
BRANCH  13  14
ATOM     14  O   UNL     1       5.983   4.509  18.422  0.00  0.00    +0.000 OA
BRANCH  14  15
ATOM     15  C   UNL     1       6.150   4.522  17.058  0.00  0.00    +0.000 A 
ATOM     16  C   UNL     1       5.040   4.135  16.308  0.00  0.00    +0.000 A 
ATOM     17  C   UNL     1       5.109   4.101  14.911  0.00  0.00    +0.000 A 
ATOM     18  C   UNL     1       6.285   4.474  14.263  0.00  0.00    +0.000 A 
ATOM     19  C   UNL     1       7.388   4.885  15.008  0.00  0.00    +0.000 A 
ATOM     20  C   UNL     1       7.319   4.912  16.401  0.00  0.00    +0.000 A 
ENDBRANCH  14  15
ENDBRANCH  13  14
ENDBRANCH  12  13
ENDBRANCH   1  12
BRANCH   4  21
ATOM     21  C   UNL     1       1.088   9.619  18.203  0.00  0.00    +0.000 C 
BRANCH  21  22
ATOM     22  C   UNL     1       0.417  10.387  19.301  0.00  0.00    +0.000 A 
ATOM     23  C   UNL     1       0.985  10.685  20.532  0.00  0.00    +0.000 A 
ATOM     24  C   UNL     1       0.027  11.347  21.314  0.00  0.00    +0.000 A 
ATOM     25  C   UNL     1      -1.119  11.413  20.558  0.00  0.00    +0.000 A 
ATOM     26  N   UNL     1      -0.902  10.853  19.305  0.00  0.00    +0.000 N 
BRANCH  26  27
ATOM     27  C   UNL     1      -1.898  10.800  18.280  0.00  0.00    +0.000 A 
ATOM     28  C   UNL     1      -1.799   9.969  17.165  0.00  0.00    +0.000 A 
ATOM     29  C   UNL     1      -2.804   9.961  16.199  0.00  0.00    +0.000 A 
ATOM     30  C   UNL     1      -3.884  10.807  16.369  0.00  0.00    +0.000 A 
ATOM     31  N   UNL     1      -4.015  11.639  17.418  0.00  0.00    +0.000 NA
ATOM     32  C   UNL     1      -3.021  11.621  18.346  0.00  0.00    +0.000 A 
ENDBRANCH  26  27
ENDBRANCH  21  22
ENDBRANCH   4  21
TORSDOF 10
ENDMDL
MODEL 6
REMARK VINA RESULT:      -7.1      1.191      1.899
REMARK  Name = 
REMARK  11 active torsions:
REMARK  status: ('A' for Active; 'I' for Inactive)
REMARK    1  A    between atoms: C_1  and  C_2
REMARK    2  A    between atoms: C_2  and  O_3
REMARK    3  A    between atoms: O_3  and  C_4
REMARK    4  A    between atoms: C_4  and  C_6
REMARK    5  A    between atoms: C_6  and  C_7
REMARK    6  A    between atoms: C_7  and  C_8
REMARK    7  A    between atoms: C_8  and  O_9
REMARK    8  A    between atoms: O_9  and  C_10
REMARK    9  A    between atoms: N_18  and  C_19
REMARK   10  A    between atoms: C_19  and  C_20
REMARK   11  A    between atoms: N_24  and  C_25
REMARK                            x       y       z     vdW  Elec       q    Type
REMARK                         _______ _______ _______ _____ _____    ______ ____
ROOT
ATOM      1  C   UNL     1       3.152   5.894  19.213  0.00  0.00    +0.000 C 
ATOM      2  C   UNL     1       2.624   6.783  20.358  0.00  0.00    +0.000 C 
ATOM      3  C   UNL     1       1.529   7.740  19.880  0.00  0.00    +0.000 C 
ATOM      4  N   UNL     1       2.040   8.603  18.812  0.00  0.00    +0.000 NA
ATOM      5  C   UNL     1       2.490   7.826  17.654  0.00  0.00    +0.000 C 
ATOM      6  C   UNL     1       3.578   6.824  18.051  0.00  0.00    +0.000 C 
ENDROOT
BRANCH   1   7
ATOM      7  C   UNL     1       2.030   4.945  18.756  0.00  0.00    +0.000 C 
ATOM      8  O   UNL     1       1.895   4.532  17.612  0.00  0.00    +0.000 OA
BRANCH   7   9
ATOM      9  O   UNL     1       1.193   4.650  19.788  0.00  0.00    +0.000 OA
BRANCH   9  11
ATOM     10  C   UNL     1       2.006   2.461  20.487  0.00  0.00    +0.000 C 
ATOM     11  C   UNL     1       0.844   3.267  19.947  0.00  0.00    +0.000 C 
ENDBRANCH   9  11
ENDBRANCH   7   9
ENDBRANCH   1   7
BRANCH   1  12
ATOM     12  C   UNL     1       4.358   5.059  19.712  0.00  0.00    +0.000 C 
BRANCH  12  13
ATOM     13  C   UNL     1       5.694   5.510  19.114  0.00  0.00    +0.000 C 
BRANCH  13  14
ATOM     14  O   UNL     1       6.329   4.400  18.475  0.00  0.00    +0.000 OA
BRANCH  14  15
ATOM     15  C   UNL     1       6.197   4.397  17.108  0.00  0.00    +0.000 A 
ATOM     16  C   UNL     1       7.271   4.929  16.394  0.00  0.00    +0.000 A 
ATOM     17  C   UNL     1       7.231   4.984  14.996  0.00  0.00    +0.000 A 
ATOM     18  C   UNL     1       6.124   4.488  14.311  0.00  0.00    +0.000 A 
ATOM     19  C   UNL     1       5.061   3.933  15.020  0.00  0.00    +0.000 A 
ATOM     20  C   UNL     1       5.099   3.884  16.413  0.00  0.00    +0.000 A 
ENDBRANCH  14  15
ENDBRANCH  13  14
ENDBRANCH  12  13
ENDBRANCH   1  12
BRANCH   4  21
ATOM     21  C   UNL     1       1.073   9.626  18.383  0.00  0.00    +0.000 C 
BRANCH  21  22
ATOM     22  C   UNL     1       1.519  11.013  18.733  0.00  0.00    +0.000 A 
ATOM     23  C   UNL     1       2.371  11.797  17.966  0.00  0.00    +0.000 A 
ATOM     24  C   UNL     1       2.613  12.994  18.657  0.00  0.00    +0.000 A 
ATOM     25  C   UNL     1       1.932  12.906  19.847  0.00  0.00    +0.000 A 
ATOM     26  N   UNL     1       1.230  11.709  19.912  0.00  0.00    +0.000 N 
BRANCH  26  27
ATOM     27  C   UNL     1       0.399  11.339  21.016  0.00  0.00    +0.000 A 
ATOM     28  C   UNL     1       0.670  10.246  21.839  0.00  0.00    +0.000 A 
ATOM     29  C   UNL     1      -0.178   9.935  22.902  0.00  0.00    +0.000 A 
ATOM     30  C   UNL     1      -1.294  10.726  23.103  0.00  0.00    +0.000 A 
ATOM     31  N   UNL     1      -1.606  11.779  22.325  0.00  0.00    +0.000 NA
ATOM     32  C   UNL     1      -0.758  12.059  21.299  0.00  0.00    +0.000 A 
ENDBRANCH  26  27
ENDBRANCH  21  22
ENDBRANCH   4  21
TORSDOF 10
ENDMDL
MODEL 7
REMARK VINA RESULT:      -7.0      3.749      9.565
REMARK  Name = 
REMARK  11 active torsions:
REMARK  status: ('A' for Active; 'I' for Inactive)
REMARK    1  A    between atoms: C_1  and  C_2
REMARK    2  A    between atoms: C_2  and  O_3
REMARK    3  A    between atoms: O_3  and  C_4
REMARK    4  A    between atoms: C_4  and  C_6
REMARK    5  A    between atoms: C_6  and  C_7
REMARK    6  A    between atoms: C_7  and  C_8
REMARK    7  A    between atoms: C_8  and  O_9
REMARK    8  A    between atoms: O_9  and  C_10
REMARK    9  A    between atoms: N_18  and  C_19
REMARK   10  A    between atoms: C_19  and  C_20
REMARK   11  A    between atoms: N_24  and  C_25
REMARK                            x       y       z     vdW  Elec       q    Type
REMARK                         _______ _______ _______ _____ _____    ______ ____
ROOT
ATOM      1  C   UNL     1       0.019  10.420  19.648  0.00  0.00    +0.000 C 
ATOM      2  C   UNL     1       0.122   9.327  20.732  0.00  0.00    +0.000 C 
ATOM      3  C   UNL     1       1.471   8.603  20.689  0.00  0.00    +0.000 C 
ATOM      4  N   UNL     1       1.673   7.985  19.376  0.00  0.00    +0.000 NA
ATOM      5  C   UNL     1       1.665   8.980  18.300  0.00  0.00    +0.000 C 
ATOM      6  C   UNL     1       0.351   9.766  18.285  0.00  0.00    +0.000 C 
ENDROOT
BRANCH   1   7
ATOM      7  C   UNL     1       1.028  11.537  19.966  0.00  0.00    +0.000 C 
ATOM      8  O   UNL     1       1.820  12.006  19.158  0.00  0.00    +0.000 OA
BRANCH   7   9
ATOM      9  O   UNL     1       0.942  11.914  21.271  0.00  0.00    +0.000 OA
BRANCH   9  11
ATOM     10  C   UNL     1      -0.673  13.299  22.459  0.00  0.00    +0.000 C 
ATOM     11  C   UNL     1       0.510  13.261  21.516  0.00  0.00    +0.000 C 
ENDBRANCH   9  11
ENDBRANCH   7   9
ENDBRANCH   1   7
BRANCH   1  12
ATOM     12  C   UNL     1      -1.412  11.011  19.634  0.00  0.00    +0.000 C 
BRANCH  12  13
ATOM     13  C   UNL     1      -2.077  10.954  18.255  0.00  0.00    +0.000 C 
BRANCH  13  14
ATOM     14  O   UNL     1      -3.007  12.031  18.130  0.00  0.00    +0.000 OA
BRANCH  14  15
ATOM     15  C   UNL     1      -4.263  11.737  18.602  0.00  0.00    +0.000 A 
ATOM     16  C   UNL     1      -4.687  12.481  19.704  0.00  0.00    +0.000 A 
ATOM     17  C   UNL     1      -5.945  12.251  20.269  0.00  0.00    +0.000 A 
ATOM     18  C   UNL     1      -6.790  11.288  19.721  0.00  0.00    +0.000 A 
ATOM     19  C   UNL     1      -6.381  10.561  18.606  0.00  0.00    +0.000 A 
ATOM     20  C   UNL     1      -5.124  10.787  18.046  0.00  0.00    +0.000 A 
ENDBRANCH  14  15
ENDBRANCH  13  14
ENDBRANCH  12  13
ENDBRANCH   1  12
BRANCH   4  21
ATOM     21  C   UNL     1       2.900   7.176  19.302  0.00  0.00    +0.000 C 
BRANCH  21  22
ATOM     22  C   UNL     1       2.660   5.743  19.670  0.00  0.00    +0.000 A 
ATOM     23  C   UNL     1       1.628   5.287  20.480  0.00  0.00    +0.000 A 
ATOM     24  C   UNL     1       1.780   3.903  20.652  0.00  0.00    +0.000 A 
ATOM     25  C   UNL     1       2.917   3.544  19.972  0.00  0.00    +0.000 A 
ATOM     26  N   UNL     1       3.468   4.651  19.337  0.00  0.00    +0.000 N 
BRANCH  26  27
ATOM     27  C   UNL     1       4.643   4.592  18.523  0.00  0.00    +0.000 A 
ATOM     28  C   UNL     1       4.612   4.287  17.163  0.00  0.00    +0.000 A 
ATOM     29  C   UNL     1       5.792   4.245  16.421  0.00  0.00    +0.000 A 
ATOM     30  C   UNL     1       6.985   4.496  17.073  0.00  0.00    +0.000 A 
ATOM     31  N   UNL     1       7.067   4.777  18.387  0.00  0.00    +0.000 NA
ATOM     32  C   UNL     1       5.898   4.815  19.082  0.00  0.00    +0.000 A 
ENDBRANCH  26  27
ENDBRANCH  21  22
ENDBRANCH   4  21
TORSDOF 10
ENDMDL
MODEL 8
REMARK VINA RESULT:      -7.0      3.062      6.296
REMARK  Name = 
REMARK  11 active torsions:
REMARK  status: ('A' for Active; 'I' for Inactive)
REMARK    1  A    between atoms: C_1  and  C_2
REMARK    2  A    between atoms: C_2  and  O_3
REMARK    3  A    between atoms: O_3  and  C_4
REMARK    4  A    between atoms: C_4  and  C_6
REMARK    5  A    between atoms: C_6  and  C_7
REMARK    6  A    between atoms: C_7  and  C_8
REMARK    7  A    between atoms: C_8  and  O_9
REMARK    8  A    between atoms: O_9  and  C_10
REMARK    9  A    between atoms: N_18  and  C_19
REMARK   10  A    between atoms: C_19  and  C_20
REMARK   11  A    between atoms: N_24  and  C_25
REMARK                            x       y       z     vdW  Elec       q    Type
REMARK                         _______ _______ _______ _____ _____    ______ ____
ROOT
ATOM      1  C   UNL     1       6.982   6.234  17.771  0.00  0.00    +0.000 C 
ATOM      2  C   UNL     1       6.469   5.401  18.964  0.00  0.00    +0.000 C 
ATOM      3  C   UNL     1       5.292   4.504  18.572  0.00  0.00    +0.000 C 
ATOM      4  N   UNL     1       4.188   5.315  18.054  0.00  0.00    +0.000 NA
ATOM      5  C   UNL     1       4.583   6.077  16.866  0.00  0.00    +0.000 C 
ATOM      6  C   UNL     1       5.774   6.991  17.169  0.00  0.00    +0.000 C 
ENDROOT
BRANCH   1   7
ATOM      7  C   UNL     1       7.596   5.287  16.726  0.00  0.00    +0.000 C 
ATOM      8  O   UNL     1       8.158   4.233  16.991  0.00  0.00    +0.000 OA
BRANCH   7   9
ATOM      9  O   UNL     1       7.454   5.792  15.469  0.00  0.00    +0.000 OA
BRANCH   9  11
ATOM     10  C   UNL     1       5.948   4.089  14.591  0.00  0.00    +0.000 C 
ATOM     11  C   UNL     1       7.254   4.835  14.419  0.00  0.00    +0.000 C 
ENDBRANCH   9  11
ENDBRANCH   7   9
ENDBRANCH   1   7
BRANCH   1  12
ATOM     12  C   UNL     1       8.063   7.232  18.256  0.00  0.00    +0.000 C 
BRANCH  12  13
ATOM     13  C   UNL     1       8.059   8.552  17.478  0.00  0.00    +0.000 C 
BRANCH  13  14
ATOM     14  O   UNL     1       7.767   9.630  18.370  0.00  0.00    +0.000 OA
BRANCH  14  15
ATOM     15  C   UNL     1       8.714  10.625  18.366  0.00  0.00    +0.000 A 
ATOM     16  C   UNL     1       9.829  10.405  19.176  0.00  0.00    +0.000 A 
ATOM     17  C   UNL     1      10.845  11.363  19.254  0.00  0.00    +0.000 A 
ATOM     18  C   UNL     1      10.756  12.535  18.506  0.00  0.00    +0.000 A 
ATOM     19  C   UNL     1       9.657  12.748  17.677  0.00  0.00    +0.000 A 
ATOM     20  C   UNL     1       8.641  11.794  17.605  0.00  0.00    +0.000 A 
ENDBRANCH  14  15
ENDBRANCH  13  14
ENDBRANCH  12  13
ENDBRANCH   1  12
BRANCH   4  21
ATOM     21  C   UNL     1       2.979   4.525  17.762  0.00  0.00    +0.000 C 
BRANCH  21  22
ATOM     22  C   UNL     1       2.304   4.039  19.009  0.00  0.00    +0.000 A 
ATOM     23  C   UNL     1       2.112   2.706  19.347  0.00  0.00    +0.000 A 
ATOM     24  C   UNL     1       1.379   2.654  20.543  0.00  0.00    +0.000 A 
ATOM     25  C   UNL     1       1.110   3.954  20.896  0.00  0.00    +0.000 A 
ATOM     26  N   UNL     1       1.687   4.830  19.984  0.00  0.00    +0.000 N 
BRANCH  26  27
ATOM     27  C   UNL     1       1.608   6.254  20.097  0.00  0.00    +0.000 A 
ATOM     28  C   UNL     1       1.166   6.902  21.250  0.00  0.00    +0.000 A 
ATOM     29  C   UNL     1       1.112   8.295  21.300  0.00  0.00    +0.000 A 
ATOM     30  C   UNL     1       1.490   9.006  20.177  0.00  0.00    +0.000 A 
ATOM     31  N   UNL     1       1.906   8.425  19.036  0.00  0.00    +0.000 NA
ATOM     32  C   UNL     1       1.952   7.066  19.020  0.00  0.00    +0.000 A 
ENDBRANCH  26  27
ENDBRANCH  21  22
ENDBRANCH   4  21
TORSDOF 10
ENDMDL
MODEL 9
REMARK VINA RESULT:      -7.0      3.038      6.310
REMARK  Name = 
REMARK  11 active torsions:
REMARK  status: ('A' for Active; 'I' for Inactive)
REMARK    1  A    between atoms: C_1  and  C_2
REMARK    2  A    between atoms: C_2  and  O_3
REMARK    3  A    between atoms: O_3  and  C_4
REMARK    4  A    between atoms: C_4  and  C_6
REMARK    5  A    between atoms: C_6  and  C_7
REMARK    6  A    between atoms: C_7  and  C_8
REMARK    7  A    between atoms: C_8  and  O_9
REMARK    8  A    between atoms: O_9  and  C_10
REMARK    9  A    between atoms: N_18  and  C_19
REMARK   10  A    between atoms: C_19  and  C_20
REMARK   11  A    between atoms: N_24  and  C_25
REMARK                            x       y       z     vdW  Elec       q    Type
REMARK                         _______ _______ _______ _____ _____    ______ ____
ROOT
ATOM      1  C   UNL     1       7.014   6.341  16.989  0.00  0.00    +0.000 C 
ATOM      2  C   UNL     1       6.815   5.819  18.427  0.00  0.00    +0.000 C 
ATOM      3  C   UNL     1       5.739   4.732  18.497  0.00  0.00    +0.000 C 
ATOM      4  N   UNL     1       4.462   5.250  18.003  0.00  0.00    +0.000 NA
ATOM      5  C   UNL     1       4.557   5.695  16.610  0.00  0.00    +0.000 C 
ATOM      6  C   UNL     1       5.631   6.775  16.448  0.00  0.00    +0.000 C 
ENDROOT
BRANCH   1   7
ATOM      7  C   UNL     1       7.599   5.212  16.123  0.00  0.00    +0.000 C 
ATOM      8  O   UNL     1       8.107   4.191  16.566  0.00  0.00    +0.000 OA
BRANCH   7   9
ATOM      9  O   UNL     1       7.499   5.514  14.799  0.00  0.00    +0.000 OA
BRANCH   9  11
ATOM     10  C   UNL     1       5.784   4.083  13.825  0.00  0.00    +0.000 C 
ATOM     11  C   UNL     1       7.259   4.411  13.912  0.00  0.00    +0.000 C 
ENDBRANCH   9  11
ENDBRANCH   7   9
ENDBRANCH   1   7
BRANCH   1  12
ATOM     12  C   UNL     1       7.995   7.540  16.999  0.00  0.00    +0.000 C 
BRANCH  12  13
ATOM     13  C   UNL     1       8.051   8.265  18.347  0.00  0.00    +0.000 C 
BRANCH  13  14
ATOM     14  O   UNL     1       7.979   9.676  18.133  0.00  0.00    +0.000 OA
BRANCH  14  15
ATOM     15  C   UNL     1       9.030  10.374  18.677  0.00  0.00    +0.000 A 
ATOM     16  C   UNL     1       9.912  10.953  17.765  0.00  0.00    +0.000 A 
ATOM     17  C   UNL     1      11.022  11.674  18.217  0.00  0.00    +0.000 A 
ATOM     18  C   UNL     1      11.240  11.834  19.583  0.00  0.00    +0.000 A 
ATOM     19  C   UNL     1      10.347  11.279  20.497  0.00  0.00    +0.000 A 
ATOM     20  C   UNL     1       9.244  10.555  20.046  0.00  0.00    +0.000 A 
ENDBRANCH  14  15
ENDBRANCH  13  14
ENDBRANCH  12  13
ENDBRANCH   1  12
BRANCH   4  21
ATOM     21  C   UNL     1       3.354   4.291  18.148  0.00  0.00    +0.000 C 
BRANCH  21  22
ATOM     22  C   UNL     1       2.897   4.161  19.569  0.00  0.00    +0.000 A 
ATOM     23  C   UNL     1       2.948   2.996  20.323  0.00  0.00    +0.000 A 
ATOM     24  C   UNL     1       2.363   3.251  21.572  0.00  0.00    +0.000 A 
ATOM     25  C   UNL     1       1.936   4.556  21.547  0.00  0.00    +0.000 A 
ATOM     26  N   UNL     1       2.273   5.150  20.336  0.00  0.00    +0.000 N 
BRANCH  26  27
ATOM     27  C   UNL     1       1.989   6.516  20.020  0.00  0.00    +0.000 A 
ATOM     28  C   UNL     1       2.248   7.077  18.770  0.00  0.00    +0.000 A 
ATOM     29  C   UNL     1       1.948   8.416  18.521  0.00  0.00    +0.000 A 
ATOM     30  C   UNL     1       1.407   9.168  19.547  0.00  0.00    +0.000 A 
ATOM     31  N   UNL     1       1.156   8.675  20.775  0.00  0.00    +0.000 NA
ATOM     32  C   UNL     1       1.455   7.366  20.985  0.00  0.00    +0.000 A 
ENDBRANCH  26  27
ENDBRANCH  21  22
ENDBRANCH   4  21
TORSDOF 10
ENDMDL
