MODEL 1
REMARK VINA RESULT:      -8.1      0.000      0.000
REMARK  Name = 
REMARK  7 active torsions:
REMARK  status: ('A' for Active; 'I' for Inactive)
REMARK    1  A    between atoms: C_1  and  C_2
REMARK    2  A    between atoms: C_2  and  N_3
REMARK    3  A    between atoms: C_7  and  C_8
REMARK    4  A    between atoms: C_8  and  N_9
REMARK    5  A    between atoms: N_9  and  C_10
REMARK    6  A    between atoms: N_9  and  C_17
REMARK    7  A    between atoms: C_10  and  C_11
REMARK                            x       y       z     vdW  Elec       q    Type
REMARK                         _______ _______ _______ _____ _____    ______ ____
ROOT
ATOM      1  N   UNL     1       3.740   4.753  19.347  0.00  0.00    +0.000 NA
ENDROOT
BRANCH   1   2
ATOM      2  C   UNL     1       3.595   3.317  19.739  0.00  0.00    +0.000 C 
ATOM      3  C   UNL     1       2.363   3.017  20.637  0.00  0.00    +0.000 C 
ATOM      4  C   UNL     1       1.033   3.155  19.893  0.00  0.00    +0.000 C 
ATOM      5  C   UNL     1       0.982   2.242  18.671  0.00  0.00    +0.000 C 
ATOM      6  C   UNL     1       2.185   2.459  17.763  0.00  0.00    +0.000 C 
ATOM      7  C   UNL     1       3.490   2.331  18.542  0.00  0.00    +0.000 C 
ENDBRANCH   1   2
BRANCH   1   8
ATOM      8  C   UNL     1       2.977   5.659  20.246  0.00  0.00    +0.000 C 
BRANCH   8  13
ATOM      9  N   UNL     1       1.229  10.464  17.934  0.00  0.00    +0.000 N 
ATOM     10  C   UNL     1       1.507   9.234  18.515  0.00  0.00    +0.000 A 
ATOM     11  N   UNL     1       2.079   8.326  17.710  0.00  0.00    +0.000 NA
ATOM     12  C   UNL     1       2.470   7.160  18.264  0.00  0.00    +0.000 A 
ATOM     13  C   UNL     1       2.406   6.898  19.611  0.00  0.00    +0.000 A 
ATOM     14  C   UNL     1       1.752   7.869  20.338  0.00  0.00    +0.000 A 
ATOM     15  N   UNL     1       1.294   9.029  19.823  0.00  0.00    +0.000 NA
ATOM     16  H   UNL     1       2.103  10.794  17.547  0.00  0.00    +0.000 HD
BRANCH   9  18
ATOM     17  C   UNL     1       1.403  12.576  19.122  0.00  0.00    +0.000 C 
ATOM     18  C   UNL     1       0.485  11.418  18.732  0.00  0.00    +0.000 C 
ENDBRANCH   9  18
ENDBRANCH   8  13
ENDBRANCH   1   8
BRANCH   1  19
ATOM     19  C   UNL     1       5.154   5.176  19.153  0.00  0.00    +0.000 C 
BRANCH  19  20
ATOM     20  C   UNL     1       5.776   4.999  17.786  0.00  0.00    +0.000 A 
ATOM     21  C   UNL     1       5.014   5.082  16.617  0.00  0.00    +0.000 A 
ATOM     22  C   UNL     1       5.611   4.912  15.367  0.00  0.00    +0.000 A 
ATOM     23  C   UNL     1       6.962   4.628  15.324  0.00  0.00    +0.000 A 
ATOM     24  N   UNL     1       7.733   4.503  16.418  0.00  0.00    +0.000 NA
ATOM     25  C   UNL     1       7.122   4.679  17.617  0.00  0.00    +0.000 A 
ENDBRANCH  19  20
ENDBRANCH   1  19
TORSDOF 6
ENDMDL
MODEL 2
REMARK VINA RESULT:      -8.0      1.426      6.270
REMARK  Name = 
REMARK  7 active torsions:
REMARK  status: ('A' for Active; 'I' for Inactive)
REMARK    1  A    between atoms: C_1  and  C_2
REMARK    2  A    between atoms: C_2  and  N_3
REMARK    3  A    between atoms: C_7  and  C_8
REMARK    4  A    between atoms: C_8  and  N_9
REMARK    5  A    between atoms: N_9  and  C_10
REMARK    6  A    between atoms: N_9  and  C_17
REMARK    7  A    between atoms: C_10  and  C_11
REMARK                            x       y       z     vdW  Elec       q    Type
REMARK                         _______ _______ _______ _____ _____    ______ ____
ROOT
ATOM      1  N   UNL     1       3.615   5.103  19.295  0.00  0.00    +0.000 NA
ENDROOT
BRANCH   1   2
ATOM      2  C   UNL     1       3.111   3.718  19.034  0.00  0.00    +0.000 C 
ATOM      3  C   UNL     1       3.490   2.681  20.128  0.00  0.00    +0.000 C 
ATOM      4  C   UNL     1       2.759   2.914  21.452  0.00  0.00    +0.000 C 
ATOM      5  C   UNL     1       1.245   2.893  21.262  0.00  0.00    +0.000 C 
ATOM      6  C   UNL     1       0.807   3.864  20.174  0.00  0.00    +0.000 C 
ATOM      7  C   UNL     1       1.569   3.614  18.877  0.00  0.00    +0.000 C 
ENDBRANCH   1   2
BRANCH   1   8
ATOM      8  C   UNL     1       5.099   5.176  19.255  0.00  0.00    +0.000 C 
BRANCH   8  13
ATOM      9  N   UNL     1       7.141   5.152  14.028  0.00  0.00    +0.000 N 
ATOM     10  C   UNL     1       6.733   5.034  15.350  0.00  0.00    +0.000 A 
ATOM     11  N   UNL     1       7.140   6.011  16.175  0.00  0.00    +0.000 NA
ATOM     12  C   UNL     1       6.670   5.995  17.439  0.00  0.00    +0.000 A 
ATOM     13  C   UNL     1       5.730   5.102  17.891  0.00  0.00    +0.000 A 
ATOM     14  C   UNL     1       5.424   4.108  16.986  0.00  0.00    +0.000 A 
ATOM     15  N   UNL     1       5.906   4.048  15.727  0.00  0.00    +0.000 NA
ATOM     16  H   UNL     1       6.831   6.065  13.721  0.00  0.00    +0.000 HD
BRANCH   9  18
ATOM     17  C   UNL     1       7.341   4.371  11.737  0.00  0.00    +0.000 C 
ATOM     18  C   UNL     1       6.839   4.046  13.143  0.00  0.00    +0.000 C 
ENDBRANCH   9  18
ENDBRANCH   8  13
ENDBRANCH   1   8
BRANCH   1  19
ATOM     19  C   UNL     1       2.955   6.141  18.455  0.00  0.00    +0.000 C 
BRANCH  19  20
ATOM     20  C   UNL     1       2.258   7.290  19.150  0.00  0.00    +0.000 A 
ATOM     21  C   UNL     1       1.882   7.215  20.494  0.00  0.00    +0.000 A 
ATOM     22  C   UNL     1       1.238   8.287  21.112  0.00  0.00    +0.000 A 
ATOM     23  C   UNL     1       0.957   9.405  20.350  0.00  0.00    +0.000 A 
ATOM     24  N   UNL     1       1.266   9.515  19.047  0.00  0.00    +0.000 NA
ATOM     25  C   UNL     1       1.895   8.456  18.478  0.00  0.00    +0.000 A 
ENDBRANCH  19  20
ENDBRANCH   1  19
TORSDOF 6
ENDMDL
MODEL 3
REMARK VINA RESULT:      -7.7      1.373      1.812
REMARK  Name = 
REMARK  7 active torsions:
REMARK  status: ('A' for Active; 'I' for Inactive)
REMARK    1  A    between atoms: C_1  and  C_2
REMARK    2  A    between atoms: C_2  and  N_3
REMARK    3  A    between atoms: C_7  and  C_8
REMARK    4  A    between atoms: C_8  and  N_9
REMARK    5  A    between atoms: N_9  and  C_10
REMARK    6  A    between atoms: N_9  and  C_17
REMARK    7  A    between atoms: C_10  and  C_11
REMARK                            x       y       z     vdW  Elec       q    Type
REMARK                         _______ _______ _______ _____ _____    ______ ____
ROOT
ATOM      1  N   UNL     1       3.442   5.021  18.661  0.00  0.00    +0.000 NA
ENDROOT
BRANCH   1   2
ATOM      2  C   UNL     1       3.417   3.764  19.474  0.00  0.00    +0.000 C 
ATOM      3  C   UNL     1       2.433   3.796  20.675  0.00  0.00    +0.000 C 
ATOM      4  C   UNL     1       0.964   3.785  20.246  0.00  0.00    +0.000 C 
ATOM      5  C   UNL     1       0.646   2.566  19.384  0.00  0.00    +0.000 C 
ATOM      6  C   UNL     1       1.600   2.454  18.204  0.00  0.00    +0.000 C 
ATOM      7  C   UNL     1       3.053   2.486  18.668  0.00  0.00    +0.000 C 
ENDBRANCH   1   2
BRANCH   1   8
ATOM      8  C   UNL     1       3.513   6.237  19.514  0.00  0.00    +0.000 C 
BRANCH   8  13
ATOM      9  N   UNL     1       0.532  10.773  18.089  0.00  0.00    +0.000 N 
ATOM     10  C   UNL     1       1.131   9.571  18.444  0.00  0.00    +0.000 A 
ATOM     11  N   UNL     1       1.870   8.985  17.490  0.00  0.00    +0.000 NA
ATOM     12  C   UNL     1       2.561   7.878  17.829  0.00  0.00    +0.000 A 
ATOM     13  C   UNL     1       2.626   7.384  19.108  0.00  0.00    +0.000 A 
ATOM     14  C   UNL     1       1.788   8.022  19.997  0.00  0.00    +0.000 A 
ATOM     15  N   UNL     1       1.036   9.100  19.696  0.00  0.00    +0.000 NA
ATOM     16  H   UNL     1       1.279  11.372  17.764  0.00  0.00    +0.000 HD
BRANCH   9  18
ATOM     17  C   UNL     1      -1.070  12.570  18.411  0.00  0.00    +0.000 C 
ATOM     18  C   UNL     1      -0.385  11.361  19.045  0.00  0.00    +0.000 C 
ENDBRANCH   9  18
ENDBRANCH   8  13
ENDBRANCH   1   8
BRANCH   1  19
ATOM     19  C   UNL     1       4.462   5.006  17.577  0.00  0.00    +0.000 C 
BRANCH  19  20
ATOM     20  C   UNL     1       5.747   5.775  17.789  0.00  0.00    +0.000 A 
ATOM     21  C   UNL     1       6.652   5.427  18.797  0.00  0.00    +0.000 A 
ATOM     22  C   UNL     1       7.829   6.153  18.974  0.00  0.00    +0.000 A 
ATOM     23  C   UNL     1       8.056   7.239  18.150  0.00  0.00    +0.000 A 
ATOM     24  N   UNL     1       7.204   7.636  17.190  0.00  0.00    +0.000 NA
ATOM     25  C   UNL     1       6.070   6.905  17.041  0.00  0.00    +0.000 A 
ENDBRANCH  19  20
ENDBRANCH   1  19
TORSDOF 6
ENDMDL
MODEL 4
REMARK VINA RESULT:      -7.7      1.383      1.719
REMARK  Name = 
REMARK  7 active torsions:
REMARK  status: ('A' for Active; 'I' for Inactive)
REMARK    1  A    between atoms: C_1  and  C_2
REMARK    2  A    between atoms: C_2  and  N_3
REMARK    3  A    between atoms: C_7  and  C_8
REMARK    4  A    between atoms: C_8  and  N_9
REMARK    5  A    between atoms: N_9  and  C_10
REMARK    6  A    between atoms: N_9  and  C_17
REMARK    7  A    between atoms: C_10  and  C_11
REMARK                            x       y       z     vdW  Elec       q    Type
REMARK                         _______ _______ _______ _____ _____    ______ ____
ROOT
ATOM      1  N   UNL     1       3.248   5.115  18.822  0.00  0.00    +0.000 NA
ENDROOT
BRANCH   1   2
ATOM      2  C   UNL     1       3.238   3.858  19.634  0.00  0.00    +0.000 C 
ATOM      3  C   UNL     1       2.008   3.708  20.570  0.00  0.00    +0.000 C 
ATOM      4  C   UNL     1       0.703   3.464  19.809  0.00  0.00    +0.000 C 
ATOM      5  C   UNL     1       0.799   2.223  18.924  0.00  0.00    +0.000 C 
ATOM      6  C   UNL     1       2.009   2.289  18.003  0.00  0.00    +0.000 C 
ATOM      7  C   UNL     1       3.287   2.551  18.794  0.00  0.00    +0.000 C 
ENDBRANCH   1   2
BRANCH   1   8
ATOM      8  C   UNL     1       3.282   6.332  19.675  0.00  0.00    +0.000 C 
BRANCH   8  13
ATOM      9  N   UNL     1       0.533  10.933  18.011  0.00  0.00    +0.000 N 
ATOM     10  C   UNL     1       1.072   9.719  18.416  0.00  0.00    +0.000 A 
ATOM     11  N   UNL     1       1.855   9.101  17.519  0.00  0.00    +0.000 NA
ATOM     12  C   UNL     1       2.490   7.979  17.914  0.00  0.00    +0.000 A 
ATOM     13  C   UNL     1       2.457   7.498  19.200  0.00  0.00    +0.000 A 
ATOM     14  C   UNL     1       1.582   8.171  20.026  0.00  0.00    +0.000 A 
ATOM     15  N   UNL     1       0.882   9.266  19.664  0.00  0.00    +0.000 NA
ATOM     16  H   UNL     1       1.317  11.506  17.729  0.00  0.00    +0.000 HD
BRANCH   9  18
ATOM     17  C   UNL     1      -1.722  11.827  18.134  0.00  0.00    +0.000 C 
ATOM     18  C   UNL     1      -0.427  11.557  18.899  0.00  0.00    +0.000 C 
ENDBRANCH   9  18
ENDBRANCH   8  13
ENDBRANCH   1   8
BRANCH   1  19
ATOM     19  C   UNL     1       4.282   5.121  17.750  0.00  0.00    +0.000 C 
BRANCH  19  20
ATOM     20  C   UNL     1       5.642   5.701  18.069  0.00  0.00    +0.000 A 
ATOM     21  C   UNL     1       6.188   6.747  17.319  0.00  0.00    +0.000 A 
ATOM     22  C   UNL     1       7.446   7.263  17.632  0.00  0.00    +0.000 A 
ATOM     23  C   UNL     1       8.144   6.690  18.678  0.00  0.00    +0.000 A 
ATOM     24  N   UNL     1       7.680   5.662  19.408  0.00  0.00    +0.000 NA
ATOM     25  C   UNL     1       6.452   5.186  19.081  0.00  0.00    +0.000 A 
ENDBRANCH  19  20
ENDBRANCH   1  19
TORSDOF 6
ENDMDL
MODEL 5
REMARK VINA RESULT:      -7.7      2.457      5.224
REMARK  Name = 
REMARK  7 active torsions:
REMARK  status: ('A' for Active; 'I' for Inactive)
REMARK    1  A    between atoms: C_1  and  C_2
REMARK    2  A    between atoms: C_2  and  N_3
REMARK    3  A    between atoms: C_7  and  C_8
REMARK    4  A    between atoms: C_8  and  N_9
REMARK    5  A    between atoms: N_9  and  C_10
REMARK    6  A    between atoms: N_9  and  C_17
REMARK    7  A    between atoms: C_10  and  C_11
REMARK                            x       y       z     vdW  Elec       q    Type
REMARK                         _______ _______ _______ _____ _____    ______ ____
ROOT
ATOM      1  N   UNL     1       4.046   4.130  18.111  0.00  0.00    +0.000 NA
ENDROOT
BRANCH   1   2
ATOM      2  C   UNL     1       3.820   2.692  18.458  0.00  0.00    +0.000 C 
ATOM      3  C   UNL     1       4.018   2.357  19.962  0.00  0.00    +0.000 C 
ATOM      4  C   UNL     1       2.929   2.953  20.857  0.00  0.00    +0.000 C 
ATOM      5  C   UNL     1       1.541   2.484  20.430  0.00  0.00    +0.000 C 
ATOM      6  C   UNL     1       1.293   2.751  18.952  0.00  0.00    +0.000 C 
ATOM      7  C   UNL     1       2.406   2.158  18.094  0.00  0.00    +0.000 C 
ENDBRANCH   1   2
BRANCH   1   8
ATOM      8  C   UNL     1       5.184   4.305  17.170  0.00  0.00    +0.000 C 
BRANCH   8  13
ATOM      9  N   UNL     1       8.656   8.389  18.831  0.00  0.00    +0.000 N 
ATOM     10  C   UNL     1       7.884   7.371  18.286  0.00  0.00    +0.000 A 
ATOM     11  N   UNL     1       8.013   6.169  18.864  0.00  0.00    +0.000 NA
ATOM     12  C   UNL     1       7.197   5.182  18.441  0.00  0.00    +0.000 A 
ATOM     13  C   UNL     1       6.186   5.369  17.531  0.00  0.00    +0.000 A 
ATOM     14  C   UNL     1       6.176   6.622  16.957  0.00  0.00    +0.000 A 
ATOM     15  N   UNL     1       7.004   7.627  17.306  0.00  0.00    +0.000 NA
ATOM     16  H   UNL     1       8.430   8.413  19.816  0.00  0.00    +0.000 HD
BRANCH   9  18
ATOM     17  C   UNL     1       9.434  10.686  18.963  0.00  0.00    +0.000 C 
ATOM     18  C   UNL     1       8.647   9.665  18.143  0.00  0.00    +0.000 C 
ENDBRANCH   9  18
ENDBRANCH   8  13
ENDBRANCH   1   8
BRANCH   1  19
ATOM     19  C   UNL     1       2.811   4.836  17.673  0.00  0.00    +0.000 C 
BRANCH  19  20
ATOM     20  C   UNL     1       2.468   6.156  18.328  0.00  0.00    +0.000 A 
ATOM     21  C   UNL     1       2.456   7.352  17.605  0.00  0.00    +0.000 A 
ATOM     22  C   UNL     1       2.139   8.557  18.232  0.00  0.00    +0.000 A 
ATOM     23  C   UNL     1       1.873   8.536  19.588  0.00  0.00    +0.000 A 
ATOM     24  N   UNL     1       1.904   7.419  20.335  0.00  0.00    +0.000 NA
ATOM     25  C   UNL     1       2.212   6.264  19.693  0.00  0.00    +0.000 A 
ENDBRANCH  19  20
ENDBRANCH   1  19
TORSDOF 6
ENDMDL
MODEL 6
REMARK VINA RESULT:      -7.6      1.510      6.057
REMARK  Name = 
REMARK  7 active torsions:
REMARK  status: ('A' for Active; 'I' for Inactive)
REMARK    1  A    between atoms: C_1  and  C_2
REMARK    2  A    between atoms: C_2  and  N_3
REMARK    3  A    between atoms: C_7  and  C_8
REMARK    4  A    between atoms: C_8  and  N_9
REMARK    5  A    between atoms: N_9  and  C_10
REMARK    6  A    between atoms: N_9  and  C_17
REMARK    7  A    between atoms: C_10  and  C_11
REMARK                            x       y       z     vdW  Elec       q    Type
REMARK                         _______ _______ _______ _____ _____    ______ ____
ROOT
ATOM      1  N   UNL     1       4.068   4.757  19.076  0.00  0.00    +0.000 NA
ENDROOT
BRANCH   1   2
ATOM      2  C   UNL     1       3.665   3.320  19.191  0.00  0.00    +0.000 C 
ATOM      3  C   UNL     1       3.209   2.894  20.614  0.00  0.00    +0.000 C 
ATOM      4  C   UNL     1       1.870   3.511  21.023  0.00  0.00    +0.000 C 
ATOM      5  C   UNL     1       0.767   3.156  20.029  0.00  0.00    +0.000 C 
ATOM      6  C   UNL     1       1.165   3.517  18.605  0.00  0.00    +0.000 C 
ATOM      7  C   UNL     1       2.511   2.899  18.239  0.00  0.00    +0.000 C 
ENDBRANCH   1   2
BRANCH   1   8
ATOM      8  C   UNL     1       5.537   4.914  18.901  0.00  0.00    +0.000 C 
BRANCH   8  13
ATOM      9  N   UNL     1       7.065   4.958  13.502  0.00  0.00    +0.000 N 
ATOM     10  C   UNL     1       6.806   4.843  14.862  0.00  0.00    +0.000 A 
ATOM     11  N   UNL     1       7.114   5.915  15.606  0.00  0.00    +0.000 NA
ATOM     12  C   UNL     1       6.771   5.888  16.910  0.00  0.00    +0.000 A 
ATOM     13  C   UNL     1       6.044   4.875  17.485  0.00  0.00    +0.000 A 
ATOM     14  C   UNL     1       5.830   3.798  16.651  0.00  0.00    +0.000 A 
ATOM     15  N   UNL     1       6.199   3.753  15.354  0.00  0.00    +0.000 NA
ATOM     16  H   UNL     1       6.577   5.789  13.194  0.00  0.00    +0.000 HD
BRANCH   9  18
ATOM     17  C   UNL     1       5.429   3.712  12.210  0.00  0.00    +0.000 C 
ATOM     18  C   UNL     1       6.878   3.772  12.691  0.00  0.00    +0.000 C 
ENDBRANCH   9  18
ENDBRANCH   8  13
ENDBRANCH   1   8
BRANCH   1  19
ATOM     19  C   UNL     1       3.275   5.517  18.071  0.00  0.00    +0.000 C 
BRANCH  19  20
ATOM     20  C   UNL     1       2.617   6.808  18.504  0.00  0.00    +0.000 A 
ATOM     21  C   UNL     1       2.443   7.876  17.619  0.00  0.00    +0.000 A 
ATOM     22  C   UNL     1       1.835   9.058  18.043  0.00  0.00    +0.000 A 
ATOM     23  C   UNL     1       1.443   9.150  19.365  0.00  0.00    +0.000 A 
ATOM     24  N   UNL     1       1.617   8.168  20.264  0.00  0.00    +0.000 NA
ATOM     25  C   UNL     1       2.208   7.031  19.818  0.00  0.00    +0.000 A 
ENDBRANCH  19  20
ENDBRANCH   1  19
TORSDOF 6
ENDMDL
MODEL 7
REMARK VINA RESULT:      -7.5      0.851      1.475
REMARK  Name = 
REMARK  7 active torsions:
REMARK  status: ('A' for Active; 'I' for Inactive)
REMARK    1  A    between atoms: C_1  and  C_2
REMARK    2  A    between atoms: C_2  and  N_3
REMARK    3  A    between atoms: C_7  and  C_8
REMARK    4  A    between atoms: C_8  and  N_9
REMARK    5  A    between atoms: N_9  and  C_10
REMARK    6  A    between atoms: N_9  and  C_17
REMARK    7  A    between atoms: C_10  and  C_11
REMARK                            x       y       z     vdW  Elec       q    Type
REMARK                         _______ _______ _______ _____ _____    ______ ____
ROOT
ATOM      1  N   UNL     1       3.475   4.746  18.502  0.00  0.00    +0.000 NA
ENDROOT
BRANCH   1   2
ATOM      2  C   UNL     1       2.521   3.596  18.597  0.00  0.00    +0.000 C 
ATOM      3  C   UNL     1       3.138   2.298  19.187  0.00  0.00    +0.000 C 
ATOM      4  C   UNL     1       3.462   2.413  20.678  0.00  0.00    +0.000 C 
ATOM      5  C   UNL     1       2.222   2.778  21.490  0.00  0.00    +0.000 C 
ATOM      6  C   UNL     1       1.546   4.027  20.941  0.00  0.00    +0.000 C 
ATOM      7  C   UNL     1       1.254   3.882  19.451  0.00  0.00    +0.000 C 
ENDBRANCH   1   2
BRANCH   1   8
ATOM      8  C   UNL     1       3.232   5.764  19.557  0.00  0.00    +0.000 C 
BRANCH   8  13
ATOM      9  N   UNL     1       1.328  10.800  17.976  0.00  0.00    +0.000 N 
ATOM     10  C   UNL     1       1.648   9.502  18.351  0.00  0.00    +0.000 A 
ATOM     11  N   UNL     1       2.365   8.799  17.463  0.00  0.00    +0.000 NA
ATOM     12  C   UNL     1       2.795   7.577  17.836  0.00  0.00    +0.000 A 
ATOM     13  C   UNL     1       2.625   7.063  19.098  0.00  0.00    +0.000 A 
ATOM     14  C   UNL     1       1.828   7.837  19.914  0.00  0.00    +0.000 A 
ATOM     15  N   UNL     1       1.329   9.043  19.570  0.00  0.00    +0.000 NA
ATOM     16  H   UNL     1       2.205  11.251  17.752  0.00  0.00    +0.000 HD
BRANCH   9  18
ATOM     17  C   UNL     1       1.205  12.686  19.502  0.00  0.00    +0.000 C 
ATOM     18  C   UNL     1       0.437  11.539  18.848  0.00  0.00    +0.000 C 
ENDBRANCH   9  18
ENDBRANCH   8  13
ENDBRANCH   1   8
BRANCH   1  19
ATOM     19  C   UNL     1       4.901   4.327  18.411  0.00  0.00    +0.000 C 
BRANCH  19  20
ATOM     20  C   UNL     1       5.608   4.470  17.081  0.00  0.00    +0.000 A 
ATOM     21  C   UNL     1       4.920   4.357  15.869  0.00  0.00    +0.000 A 
ATOM     22  C   UNL     1       5.595   4.491  14.655  0.00  0.00    +0.000 A 
ATOM     23  C   UNL     1       6.960   4.703  14.689  0.00  0.00    +0.000 A 
ATOM     24  N   UNL     1       7.673   4.784  15.824  0.00  0.00    +0.000 NA
ATOM     25  C   UNL     1       6.986   4.654  16.987  0.00  0.00    +0.000 A 
ENDBRANCH  19  20
ENDBRANCH   1  19
TORSDOF 6
ENDMDL
MODEL 8
REMARK VINA RESULT:      -7.5      0.779      1.032
REMARK  Name = 
REMARK  7 active torsions:
REMARK  status: ('A' for Active; 'I' for Inactive)
REMARK    1  A    between atoms: C_1  and  C_2
REMARK    2  A    between atoms: C_2  and  N_3
REMARK    3  A    between atoms: C_7  and  C_8
REMARK    4  A    between atoms: C_8  and  N_9
REMARK    5  A    between atoms: N_9  and  C_10
REMARK    6  A    between atoms: N_9  and  C_17
REMARK    7  A    between atoms: C_10  and  C_11
REMARK                            x       y       z     vdW  Elec       q    Type
REMARK                         _______ _______ _______ _____ _____    ______ ____
ROOT
ATOM      1  N   UNL     1       3.583   5.024  19.334  0.00  0.00    +0.000 NA
ENDROOT
BRANCH   1   2
ATOM      2  C   UNL     1       3.518   3.590  19.757  0.00  0.00    +0.000 C 
ATOM      3  C   UNL     1       2.286   3.236  20.635  0.00  0.00    +0.000 C 
ATOM      4  C   UNL     1       0.967   3.275  19.860  0.00  0.00    +0.000 C 
ATOM      5  C   UNL     1       0.999   2.334  18.659  0.00  0.00    +0.000 C 
ATOM      6  C   UNL     1       2.207   2.604  17.772  0.00  0.00    +0.000 C 
ATOM      7  C   UNL     1       3.499   2.574  18.581  0.00  0.00    +0.000 C 
ENDBRANCH   1   2
BRANCH   1   8
ATOM      8  C   UNL     1       2.829   5.915  20.256  0.00  0.00    +0.000 C 
BRANCH   8  13
ATOM      9  N   UNL     1       1.067  10.766  18.052  0.00  0.00    +0.000 N 
ATOM     10  C   UNL     1       1.349   9.523  18.604  0.00  0.00    +0.000 A 
ATOM     11  N   UNL     1       1.933   8.639  17.781  0.00  0.00    +0.000 NA
ATOM     12  C   UNL     1       2.328   7.463  18.309  0.00  0.00    +0.000 A 
ATOM     13  C   UNL     1       2.255   7.166  19.647  0.00  0.00    +0.000 A 
ATOM     14  C   UNL     1       1.588   8.114  20.394  0.00  0.00    +0.000 A 
ATOM     15  N   UNL     1       1.127   9.283  19.905  0.00  0.00    +0.000 NA
ATOM     16  H   UNL     1       1.942  11.111  17.680  0.00  0.00    +0.000 HD
BRANCH   9  18
ATOM     17  C   UNL     1       0.717  13.124  18.515  0.00  0.00    +0.000 C 
ATOM     18  C   UNL     1       0.311  11.694  18.868  0.00  0.00    +0.000 C 
ENDBRANCH   9  18
ENDBRANCH   8  13
ENDBRANCH   1   8
BRANCH   1  19
ATOM     19  C   UNL     1       4.967   5.501  19.063  0.00  0.00    +0.000 C 
BRANCH  19  20
ATOM     20  C   UNL     1       5.511   5.364  17.658  0.00  0.00    +0.000 A 
ATOM     21  C   UNL     1       6.544   4.472  17.354  0.00  0.00    +0.000 A 
ATOM     22  C   UNL     1       7.030   4.366  16.051  0.00  0.00    +0.000 A 
ATOM     23  C   UNL     1       6.485   5.188  15.084  0.00  0.00    +0.000 A 
ATOM     24  N   UNL     1       5.515   6.086  15.329  0.00  0.00    +0.000 NA
ATOM     25  C   UNL     1       5.062   6.160  16.606  0.00  0.00    +0.000 A 
ENDBRANCH  19  20
ENDBRANCH   1  19
TORSDOF 6
ENDMDL
MODEL 9
REMARK VINA RESULT:      -7.4      1.817      4.691
REMARK  Name = 
REMARK  7 active torsions:
REMARK  status: ('A' for Active; 'I' for Inactive)
REMARK    1  A    between atoms: C_1  and  C_2
REMARK    2  A    between atoms: C_2  and  N_3
REMARK    3  A    between atoms: C_7  and  C_8
REMARK    4  A    between atoms: C_8  and  N_9
REMARK    5  A    between atoms: N_9  and  C_10
REMARK    6  A    between atoms: N_9  and  C_17
REMARK    7  A    between atoms: C_10  and  C_11
REMARK                            x       y       z     vdW  Elec       q    Type
REMARK                         _______ _______ _______ _____ _____    ______ ____
ROOT
ATOM      1  N   UNL     1       3.861   5.679  17.760  0.00  0.00    +0.000 NA
ENDROOT
BRANCH   1   2
ATOM      2  C   UNL     1       5.082   5.245  17.011  0.00  0.00    +0.000 C 
ATOM      3  C   UNL     1       5.864   6.403  16.333  0.00  0.00    +0.000 C 
ATOM      4  C   UNL     1       6.562   7.323  17.337  0.00  0.00    +0.000 C 
ATOM      5  C   UNL     1       7.522   6.543  18.232  0.00  0.00    +0.000 C 
ATOM      6  C   UNL     1       6.826   5.367  18.902  0.00  0.00    +0.000 C 
ATOM      7  C   UNL     1       6.128   4.484  17.874  0.00  0.00    +0.000 C 
ENDBRANCH   1   2
BRANCH   1   8
ATOM      8  C   UNL     1       3.395   7.026  17.337  0.00  0.00    +0.000 C 
BRANCH   8  13
ATOM      9  N   UNL     1       0.479  10.026  21.077  0.00  0.00    +0.000 N 
ATOM     10  C   UNL     1       1.082   9.176  20.159  0.00  0.00    +0.000 A 
ATOM     11  N   UNL     1       1.097   9.607  18.889  0.00  0.00    +0.000 NA
ATOM     12  C   UNL     1       1.774   8.867  17.988  0.00  0.00    +0.000 A 
ATOM     13  C   UNL     1       2.523   7.764  18.317  0.00  0.00    +0.000 A 
ATOM     14  C   UNL     1       2.393   7.373  19.633  0.00  0.00    +0.000 A 
ATOM     15  N   UNL     1       1.686   8.049  20.562  0.00  0.00    +0.000 NA
ATOM     16  H   UNL     1       0.947  10.917  20.982  0.00  0.00    +0.000 HD
BRANCH   9  18
ATOM     17  C   UNL     1      -0.851  10.251  23.097  0.00  0.00    +0.000 C 
ATOM     18  C   UNL     1       0.319   9.531  22.430  0.00  0.00    +0.000 C 
ENDBRANCH   9  18
ENDBRANCH   8  13
ENDBRANCH   1   8
BRANCH   1  19
ATOM     19  C   UNL     1       2.776   4.660  17.767  0.00  0.00    +0.000 C 
BRANCH  19  20
ATOM     20  C   UNL     1       2.492   3.923  19.057  0.00  0.00    +0.000 A 
ATOM     21  C   UNL     1       1.218   3.915  19.633  0.00  0.00    +0.000 A 
ATOM     22  C   UNL     1       0.981   3.230  20.824  0.00  0.00    +0.000 A 
ATOM     23  C   UNL     1       2.046   2.592  21.431  0.00  0.00    +0.000 A 
ATOM     24  N   UNL     1       3.297   2.598  20.939  0.00  0.00    +0.000 NA
ATOM     25  C   UNL     1       3.491   3.269  19.777  0.00  0.00    +0.000 A 
ENDBRANCH  19  20
ENDBRANCH   1  19
TORSDOF 6
ENDMDL
