MODEL 1
REMARK VINA RESULT:      -7.5      0.000      0.000
REMARK  Name = 
REMARK  10 active torsions:
REMARK  status: ('A' for Active; 'I' for Inactive)
REMARK    1  A    between atoms: C_1  and  C_2
REMARK    2  A    between atoms: C_2  and  C_3
REMARK    3  A    between atoms: C_3  and  S_4
REMARK    4  A    between atoms: S_4  and  C_5
REMARK    5  A    between atoms: C_8  and  C_9
REMARK    6  A    between atoms: N_13  and  C_14
REMARK    7  A    between atoms: C_14  and  C_15
REMARK    8  A    between atoms: C_19  and  C_20
REMARK    9  A    between atoms: C_20  and  O_22
REMARK   10  A    between atoms: O_22  and  C_23
REMARK                            x       y       z     vdW  Elec       q    Type
REMARK                         _______ _______ _______ _____ _____    ______ ____
ROOT
ATOM      1  C   UNL     1       3.308   6.207  18.457  0.00  0.00    +0.000 C 
ATOM      2  C   UNL     1       3.833   5.440  19.685  0.00  0.00    +0.000 C 
ATOM      3  C   UNL     1       2.785   4.465  20.148  0.00  0.00    +0.000 C 
ATOM      4  O   UNL     1       1.938   4.689  20.990  0.00  0.00    +0.000 OA
ATOM      5  N   UNL     1       2.942   3.335  19.405  0.00  0.00    +0.000 N 
ATOM      6  C   UNL     1       4.185   3.265  18.844  0.00  0.00    +0.000 C 
ATOM      7  O   UNL     1       4.662   2.298  18.263  0.00  0.00    +0.000 OA
ATOM      8  C   UNL     1       4.929   4.547  19.128  0.00  0.00    +0.000 C 
ATOM      9  C   UNL     1       5.482   5.312  17.932  0.00  0.00    +0.000 C 
ATOM     10  C   UNL     1       6.726   6.149  18.286  0.00  0.00    +0.000 C 
ATOM     11  C   UNL     1       6.605   7.312  17.320  0.00  0.00    +0.000 C 
ATOM     12  C   UNL     1       5.144   7.672  17.525  0.00  0.00    +0.000 C 
ATOM     13  N   UNL     1       4.469   6.370  17.563  0.00  0.00    +0.000 NA
ENDROOT
BRANCH   1  17
ATOM     14  C   UNL     1       0.747   9.600  19.341  0.00  0.00    +0.000 A 
ATOM     15  C   UNL     1       1.181   8.757  20.361  0.00  0.00    +0.000 A 
ATOM     16  C   UNL     1       2.034   7.695  20.079  0.00  0.00    +0.000 A 
ATOM     17  C   UNL     1       2.475   7.433  18.774  0.00  0.00    +0.000 A 
ATOM     18  C   UNL     1       2.057   8.310  17.756  0.00  0.00    +0.000 A 
ATOM     19  C   UNL     1       1.186   9.369  18.036  0.00  0.00    +0.000 A 
BRANCH  14  20
ATOM     20  S   UNL     1      -0.351  10.954  19.694  0.00  0.00    +0.000 S 
BRANCH  20  21
ATOM     21  C   UNL     1      -1.155  11.097  18.062  0.00  0.00    +0.000 C 
BRANCH  21  23
ATOM     22  C   UNL     1      -2.671   9.800  16.536  0.00  0.00    +0.000 C 
ATOM     23  C   UNL     1      -2.322  10.122  17.982  0.00  0.00    +0.000 C 
ENDBRANCH  21  23
ENDBRANCH  20  21
ENDBRANCH  14  20
ENDBRANCH   1  17
BRANCH   5  24
ATOM     24  C   UNL     1       1.932   2.301  19.257  0.00  0.00    +0.000 C 
ATOM     25  C   UNL     1       0.592   2.788  18.734  0.00  0.00    +0.000 C 
ENDBRANCH   5  24
BRANCH   9  26
ATOM     26  C   UNL     1       5.839   4.421  16.722  0.00  0.00    +0.000 C 
ATOM     27  O   UNL     1       6.900   3.802  16.639  0.00  0.00    +0.000 OA
BRANCH  26  28
ATOM     28  O   UNL     1       4.871   4.407  15.764  0.00  0.00    +0.000 OA
ATOM     29  C   UNL     1       5.391   4.366  14.434  0.00  0.00    +0.000 C 
ENDBRANCH  26  28
ENDBRANCH   9  26
TORSDOF 7
ENDMDL
MODEL 2
REMARK VINA RESULT:      -7.5      1.130      1.685
REMARK  Name = 
REMARK  10 active torsions:
REMARK  status: ('A' for Active; 'I' for Inactive)
REMARK    1  A    between atoms: C_1  and  C_2
REMARK    2  A    between atoms: C_2  and  C_3
REMARK    3  A    between atoms: C_3  and  S_4
REMARK    4  A    between atoms: S_4  and  C_5
REMARK    5  A    between atoms: C_8  and  C_9
REMARK    6  A    between atoms: N_13  and  C_14
REMARK    7  A    between atoms: C_14  and  C_15
REMARK    8  A    between atoms: C_19  and  C_20
REMARK    9  A    between atoms: C_20  and  O_22
REMARK   10  A    between atoms: O_22  and  C_23
REMARK                            x       y       z     vdW  Elec       q    Type
REMARK                         _______ _______ _______ _____ _____    ______ ____
ROOT
ATOM      1  C   UNL     1       3.334   6.166  18.452  0.00  0.00    +0.000 C 
ATOM      2  C   UNL     1       3.865   5.432  19.697  0.00  0.00    +0.000 C 
ATOM      3  C   UNL     1       2.816   4.477  20.198  0.00  0.00    +0.000 C 
ATOM      4  O   UNL     1       1.979   4.732  21.042  0.00  0.00    +0.000 OA
ATOM      5  N   UNL     1       2.957   3.326  19.486  0.00  0.00    +0.000 N 
ATOM      6  C   UNL     1       4.194   3.231  18.915  0.00  0.00    +0.000 C 
ATOM      7  O   UNL     1       4.658   2.244  18.357  0.00  0.00    +0.000 OA
ATOM      8  C   UNL     1       4.949   4.515  19.155  0.00  0.00    +0.000 C 
ATOM      9  C   UNL     1       5.496   5.241  17.932  0.00  0.00    +0.000 C 
ATOM     10  C   UNL     1       6.749   6.079  18.249  0.00  0.00    +0.000 C 
ATOM     11  C   UNL     1       6.626   7.215  17.251  0.00  0.00    +0.000 C 
ATOM     12  C   UNL     1       5.169   7.591  17.461  0.00  0.00    +0.000 C 
ATOM     13  N   UNL     1       4.486   6.296  17.543  0.00  0.00    +0.000 NA
ENDROOT
BRANCH   1  17
ATOM     14  C   UNL     1       0.804   9.603  19.260  0.00  0.00    +0.000 A 
ATOM     15  C   UNL     1       1.220   8.772  20.297  0.00  0.00    +0.000 A 
ATOM     16  C   UNL     1       2.063   7.695  20.039  0.00  0.00    +0.000 A 
ATOM     17  C   UNL     1       2.512   7.407  18.743  0.00  0.00    +0.000 A 
ATOM     18  C   UNL     1       2.113   8.272  17.707  0.00  0.00    +0.000 A 
ATOM     19  C   UNL     1       1.252   9.345  17.963  0.00  0.00    +0.000 A 
BRANCH  14  20
ATOM     20  S   UNL     1      -0.280  10.974  19.582  0.00  0.00    +0.000 S 
BRANCH  20  21
ATOM     21  C   UNL     1       0.273  11.379  21.274  0.00  0.00    +0.000 C 
BRANCH  21  23
ATOM     22  C   UNL     1      -0.643  10.026  23.181  0.00  0.00    +0.000 C 
ATOM     23  C   UNL     1      -0.886  11.200  22.245  0.00  0.00    +0.000 C 
ENDBRANCH  21  23
ENDBRANCH  20  21
ENDBRANCH  14  20
ENDBRANCH   1  17
BRANCH   5  24
ATOM     24  C   UNL     1       1.939   2.295  19.379  0.00  0.00    +0.000 C 
ATOM     25  C   UNL     1       0.664   2.729  18.676  0.00  0.00    +0.000 C 
ENDBRANCH   5  24
BRANCH   9  26
ATOM     26  C   UNL     1       5.834   4.313  16.744  0.00  0.00    +0.000 C 
ATOM     27  O   UNL     1       6.884   3.676  16.674  0.00  0.00    +0.000 OA
BRANCH  26  28
ATOM     28  O   UNL     1       4.862   4.290  15.790  0.00  0.00    +0.000 OA
ATOM     29  C   UNL     1       5.370   4.420  14.461  0.00  0.00    +0.000 C 
ENDBRANCH  26  28
ENDBRANCH   9  26
TORSDOF 7
ENDMDL
MODEL 3
REMARK VINA RESULT:      -7.3      1.972      4.352
REMARK  Name = 
REMARK  10 active torsions:
REMARK  status: ('A' for Active; 'I' for Inactive)
REMARK    1  A    between atoms: C_1  and  C_2
REMARK    2  A    between atoms: C_2  and  C_3
REMARK    3  A    between atoms: C_3  and  S_4
REMARK    4  A    between atoms: S_4  and  C_5
REMARK    5  A    between atoms: C_8  and  C_9
REMARK    6  A    between atoms: N_13  and  C_14
REMARK    7  A    between atoms: C_14  and  C_15
REMARK    8  A    between atoms: C_19  and  C_20
REMARK    9  A    between atoms: C_20  and  O_22
REMARK   10  A    between atoms: O_22  and  C_23
REMARK                            x       y       z     vdW  Elec       q    Type
REMARK                         _______ _______ _______ _____ _____    ______ ____
ROOT
ATOM      1  C   UNL     1       3.016   5.809  19.085  0.00  0.00    +0.000 C 
ATOM      2  C   UNL     1       3.147   5.659  17.558  0.00  0.00    +0.000 C 
ATOM      3  C   UNL     1       4.393   6.364  17.094  0.00  0.00    +0.000 C 
ATOM      4  O   UNL     1       4.448   7.517  16.711  0.00  0.00    +0.000 OA
ATOM      5  N   UNL     1       5.423   5.487  17.246  0.00  0.00    +0.000 N 
ATOM      6  C   UNL     1       4.982   4.197  17.324  0.00  0.00    +0.000 C 
ATOM      7  O   UNL     1       5.684   3.192  17.301  0.00  0.00    +0.000 OA
ATOM      8  C   UNL     1       3.475   4.189  17.354  0.00  0.00    +0.000 C 
ATOM      9  C   UNL     1       2.804   3.477  18.522  0.00  0.00    +0.000 C 
ATOM     10  C   UNL     1       1.408   2.931  18.163  0.00  0.00    +0.000 C 
ATOM     11  C   UNL     1       0.688   3.018  19.496  0.00  0.00    +0.000 C 
ATOM     12  C   UNL     1       1.064   4.430  19.907  0.00  0.00    +0.000 C 
ATOM     13  N   UNL     1       2.489   4.521  19.569  0.00  0.00    +0.000 NA
ENDROOT
BRANCH   1  17
ATOM     14  C   UNL     1       0.859   9.356  20.361  0.00  0.00    +0.000 A 
ATOM     15  C   UNL     1       1.129   8.330  21.263  0.00  0.00    +0.000 A 
ATOM     16  C   UNL     1       1.856   7.214  20.860  0.00  0.00    +0.000 A 
ATOM     17  C   UNL     1       2.328   7.079  19.547  0.00  0.00    +0.000 A 
ATOM     18  C   UNL     1       2.077   8.136  18.652  0.00  0.00    +0.000 A 
ATOM     19  C   UNL     1       1.333   9.251  19.052  0.00  0.00    +0.000 A 
BRANCH  14  20
ATOM     20  S   UNL     1      -0.077  10.780  20.868  0.00  0.00    +0.000 S 
BRANCH  20  21
ATOM     21  C   UNL     1      -0.278  10.370  22.635  0.00  0.00    +0.000 C 
BRANCH  21  23
ATOM     22  C   UNL     1      -1.324  12.611  23.074  0.00  0.00    +0.000 C 
ATOM     23  C   UNL     1      -1.490  11.104  23.193  0.00  0.00    +0.000 C 
ENDBRANCH  21  23
ENDBRANCH  20  21
ENDBRANCH  14  20
ENDBRANCH   1  17
BRANCH   5  24
ATOM     24  C   UNL     1       6.825   5.863  17.276  0.00  0.00    +0.000 C 
ATOM     25  C   UNL     1       7.417   6.007  18.668  0.00  0.00    +0.000 C 
ENDBRANCH   5  24
BRANCH   9  26
ATOM     26  C   UNL     1       3.630   2.313  19.112  0.00  0.00    +0.000 C 
ATOM     27  O   UNL     1       3.716   1.213  18.566  0.00  0.00    +0.000 OA
BRANCH  26  28
ATOM     28  O   UNL     1       4.234   2.629  20.290  0.00  0.00    +0.000 OA
ATOM     29  C   UNL     1       5.075   1.589  20.793  0.00  0.00    +0.000 C 
ENDBRANCH  26  28
ENDBRANCH   9  26
TORSDOF 7
ENDMDL
MODEL 4
REMARK VINA RESULT:      -7.2      0.568      1.214
REMARK  Name = 
REMARK  10 active torsions:
REMARK  status: ('A' for Active; 'I' for Inactive)
REMARK    1  A    between atoms: C_1  and  C_2
REMARK    2  A    between atoms: C_2  and  C_3
REMARK    3  A    between atoms: C_3  and  S_4
REMARK    4  A    between atoms: S_4  and  C_5
REMARK    5  A    between atoms: C_8  and  C_9
REMARK    6  A    between atoms: N_13  and  C_14
REMARK    7  A    between atoms: C_14  and  C_15
REMARK    8  A    between atoms: C_19  and  C_20
REMARK    9  A    between atoms: C_20  and  O_22
REMARK   10  A    between atoms: O_22  and  C_23
REMARK                            x       y       z     vdW  Elec       q    Type
REMARK                         _______ _______ _______ _____ _____    ______ ____
ROOT
ATOM      1  C   UNL     1       2.994   6.166  18.571  0.00  0.00    +0.000 C 
ATOM      2  C   UNL     1       3.660   5.467  19.770  0.00  0.00    +0.000 C 
ATOM      3  C   UNL     1       2.679   4.516  20.401  0.00  0.00    +0.000 C 
ATOM      4  O   UNL     1       1.931   4.785  21.321  0.00  0.00    +0.000 OA
ATOM      5  N   UNL     1       2.758   3.349  19.705  0.00  0.00    +0.000 N 
ATOM      6  C   UNL     1       3.930   3.250  19.011  0.00  0.00    +0.000 C 
ATOM      7  O   UNL     1       4.344   2.253  18.431  0.00  0.00    +0.000 OA
ATOM      8  C   UNL     1       4.692   4.546  19.140  0.00  0.00    +0.000 C 
ATOM      9  C   UNL     1       5.100   5.246  17.850  0.00  0.00    +0.000 C 
ATOM     10  C   UNL     1       6.371   6.102  18.015  0.00  0.00    +0.000 C 
ATOM     11  C   UNL     1       6.132   7.212  17.009  0.00  0.00    +0.000 C 
ATOM     12  C   UNL     1       4.701   7.581  17.360  0.00  0.00    +0.000 C 
ATOM     13  N   UNL     1       4.045   6.283  17.543  0.00  0.00    +0.000 NA
ENDROOT
BRANCH   1  17
ATOM     14  C   UNL     1       0.884   9.827  19.575  0.00  0.00    +0.000 A 
ATOM     15  C   UNL     1       1.174   9.519  18.248  0.00  0.00    +0.000 A 
ATOM     16  C   UNL     1       1.814   8.326  17.927  0.00  0.00    +0.000 A 
ATOM     17  C   UNL     1       2.194   7.407  18.916  0.00  0.00    +0.000 A 
ATOM     18  C   UNL     1       1.868   7.712  20.250  0.00  0.00    +0.000 A 
ATOM     19  C   UNL     1       1.238   8.919  20.575  0.00  0.00    +0.000 A 
BRANCH  14  20
ATOM     20  S   UNL     1       0.075  11.354  19.991  0.00  0.00    +0.000 S 
BRANCH  20  21
ATOM     21  C   UNL     1      -0.824  11.631  18.427  0.00  0.00    +0.000 C 
BRANCH  21  23
ATOM     22  C   UNL     1      -2.402   9.942  17.444  0.00  0.00    +0.000 C 
ATOM     23  C   UNL     1      -2.209  11.004  18.516  0.00  0.00    +0.000 C 
ENDBRANCH  21  23
ENDBRANCH  20  21
ENDBRANCH  14  20
ENDBRANCH   1  17
BRANCH   5  24
ATOM     24  C   UNL     1       1.746   2.307  19.729  0.00  0.00    +0.000 C 
ATOM     25  C   UNL     1       0.646   2.463  18.692  0.00  0.00    +0.000 C 
ENDBRANCH   5  24
BRANCH   9  26
ATOM     26  C   UNL     1       5.324   4.292  16.656  0.00  0.00    +0.000 C 
ATOM     27  O   UNL     1       4.399   3.834  15.986  0.00  0.00    +0.000 OA
BRANCH  26  28
ATOM     28  O   UNL     1       6.638   4.008  16.437  0.00  0.00    +0.000 OA
ATOM     29  C   UNL     1       7.058   4.267  15.096  0.00  0.00    +0.000 C 
ENDBRANCH  26  28
ENDBRANCH   9  26
TORSDOF 7
ENDMDL
MODEL 5
REMARK VINA RESULT:      -7.2      1.771      4.196
REMARK  Name = 
REMARK  10 active torsions:
REMARK  status: ('A' for Active; 'I' for Inactive)
REMARK    1  A    between atoms: C_1  and  C_2
REMARK    2  A    between atoms: C_2  and  C_3
REMARK    3  A    between atoms: C_3  and  S_4
REMARK    4  A    between atoms: S_4  and  C_5
REMARK    5  A    between atoms: C_8  and  C_9
REMARK    6  A    between atoms: N_13  and  C_14
REMARK    7  A    between atoms: C_14  and  C_15
REMARK    8  A    between atoms: C_19  and  C_20
REMARK    9  A    between atoms: C_20  and  O_22
REMARK   10  A    between atoms: O_22  and  C_23
REMARK                            x       y       z     vdW  Elec       q    Type
REMARK                         _______ _______ _______ _____ _____    ______ ____
ROOT
ATOM      1  C   UNL     1       3.356   6.101  18.730  0.00  0.00    +0.000 C 
ATOM      2  C   UNL     1       3.994   5.986  17.333  0.00  0.00    +0.000 C 
ATOM      3  C   UNL     1       5.310   6.715  17.324  0.00  0.00    +0.000 C 
ATOM      4  O   UNL     1       5.469   7.876  17.001  0.00  0.00    +0.000 OA
ATOM      5  N   UNL     1       6.245   5.847  17.798  0.00  0.00    +0.000 N 
ATOM      6  C   UNL     1       5.828   4.550  17.703  0.00  0.00    +0.000 C 
ATOM      7  O   UNL     1       6.514   3.554  17.899  0.00  0.00    +0.000 OA
ATOM      8  C   UNL     1       4.397   4.524  17.226  0.00  0.00    +0.000 C 
ATOM      9  C   UNL     1       3.387   3.780  18.091  0.00  0.00    +0.000 C 
ATOM     10  C   UNL     1       2.202   3.226  17.277  0.00  0.00    +0.000 C 
ATOM     11  C   UNL     1       1.075   3.275  18.293  0.00  0.00    +0.000 C 
ATOM     12  C   UNL     1       1.268   4.683  18.829  0.00  0.00    +0.000 C 
ATOM     13  N   UNL     1       2.721   4.797  18.989  0.00  0.00    +0.000 NA
ENDROOT
BRANCH   1  17
ATOM     14  C   UNL     1       0.816   9.570  19.347  0.00  0.00    +0.000 A 
ATOM     15  C   UNL     1       1.171   8.754  20.418  0.00  0.00    +0.000 A 
ATOM     16  C   UNL     1       2.018   7.667  20.223  0.00  0.00    +0.000 A 
ATOM     17  C   UNL     1       2.531   7.353  18.957  0.00  0.00    +0.000 A 
ATOM     18  C   UNL     1       2.193   8.202  17.886  0.00  0.00    +0.000 A 
ATOM     19  C   UNL     1       1.328   9.286  18.079  0.00  0.00    +0.000 A 
BRANCH  14  20
ATOM     20  S   UNL     1      -0.272  10.954  19.588  0.00  0.00    +0.000 S 
BRANCH  20  21
ATOM     21  C   UNL     1       0.311  11.486  21.234  0.00  0.00    +0.000 C 
BRANCH  21  23
ATOM     22  C   UNL     1      -0.812  10.253  23.112  0.00  0.00    +0.000 C 
ATOM     23  C   UNL     1      -0.855  11.480  22.214  0.00  0.00    +0.000 C 
ENDBRANCH  21  23
ENDBRANCH  20  21
ENDBRANCH  14  20
ENDBRANCH   1  17
BRANCH   5  24
ATOM     24  C   UNL     1       7.550   6.238  18.302  0.00  0.00    +0.000 C 
ATOM     25  C   UNL     1       7.855   5.769  19.714  0.00  0.00    +0.000 C 
ENDBRANCH   5  24
BRANCH   9  26
ATOM     26  C   UNL     1       3.990   2.612  18.904  0.00  0.00    +0.000 C 
ATOM     27  O   UNL     1       4.175   1.493  18.426  0.00  0.00    +0.000 OA
BRANCH  26  28
ATOM     28  O   UNL     1       4.277   2.950  20.191  0.00  0.00    +0.000 OA
ATOM     29  C   UNL     1       3.362   2.397  21.139  0.00  0.00    +0.000 C 
ENDBRANCH  26  28
ENDBRANCH   9  26
TORSDOF 7
ENDMDL
MODEL 6
REMARK VINA RESULT:      -7.2      1.471      3.988
REMARK  Name = 
REMARK  10 active torsions:
REMARK  status: ('A' for Active; 'I' for Inactive)
REMARK    1  A    between atoms: C_1  and  C_2
REMARK    2  A    between atoms: C_2  and  C_3
REMARK    3  A    between atoms: C_3  and  S_4
REMARK    4  A    between atoms: S_4  and  C_5
REMARK    5  A    between atoms: C_8  and  C_9
REMARK    6  A    between atoms: N_13  and  C_14
REMARK    7  A    between atoms: C_14  and  C_15
REMARK    8  A    between atoms: C_19  and  C_20
REMARK    9  A    between atoms: C_20  and  O_22
REMARK   10  A    between atoms: O_22  and  C_23
REMARK                            x       y       z     vdW  Elec       q    Type
REMARK                         _______ _______ _______ _____ _____    ______ ____
ROOT
ATOM      1  C   UNL     1       3.098   5.823  19.036  0.00  0.00    +0.000 C 
ATOM      2  C   UNL     1       3.163   5.681  17.504  0.00  0.00    +0.000 C 
ATOM      3  C   UNL     1       4.369   6.416  16.987  0.00  0.00    +0.000 C 
ATOM      4  O   UNL     1       4.380   7.571  16.607  0.00  0.00    +0.000 OA
ATOM      5  N   UNL     1       5.425   5.563  17.088  0.00  0.00    +0.000 N 
ATOM      6  C   UNL     1       5.019   4.262  17.180  0.00  0.00    +0.000 C 
ATOM      7  O   UNL     1       5.741   3.275  17.121  0.00  0.00    +0.000 OA
ATOM      8  C   UNL     1       3.514   4.220  17.279  0.00  0.00    +0.000 C 
ATOM      9  C   UNL     1       2.914   3.489  18.473  0.00  0.00    +0.000 C 
ATOM     10  C   UNL     1       1.516   2.912  18.176  0.00  0.00    +0.000 C 
ATOM     11  C   UNL     1       0.855   2.977  19.540  0.00  0.00    +0.000 C 
ATOM     12  C   UNL     1       1.218   4.397  19.940  0.00  0.00    +0.000 C 
ATOM     13  N   UNL     1       2.623   4.521  19.538  0.00  0.00    +0.000 NA
ENDROOT
BRANCH   1  17
ATOM     14  C   UNL     1       0.920   9.313  20.430  0.00  0.00    +0.000 A 
ATOM     15  C   UNL     1       1.284   8.304  21.319  0.00  0.00    +0.000 A 
ATOM     16  C   UNL     1       2.016   7.207  20.876  0.00  0.00    +0.000 A 
ATOM     17  C   UNL     1       2.402   7.075  19.535  0.00  0.00    +0.000 A 
ATOM     18  C   UNL     1       2.058   8.115  18.650  0.00  0.00    +0.000 A 
ATOM     19  C   UNL     1       1.307   9.210  19.092  0.00  0.00    +0.000 A 
BRANCH  14  20
ATOM     20  S   UNL     1      -0.024  10.712  20.988  0.00  0.00    +0.000 S 
BRANCH  20  21
ATOM     21  C   UNL     1       0.130  11.765  19.506  0.00  0.00    +0.000 C 
BRANCH  21  23
ATOM     22  C   UNL     1      -1.929  10.771  18.467  0.00  0.00    +0.000 C 
ATOM     23  C   UNL     1      -1.254  12.050  18.937  0.00  0.00    +0.000 C 
ENDBRANCH  21  23
ENDBRANCH  20  21
ENDBRANCH  14  20
ENDBRANCH   1  17
BRANCH   5  24
ATOM     24  C   UNL     1       6.819   5.972  17.056  0.00  0.00    +0.000 C 
ATOM     25  C   UNL     1       7.435   6.243  18.418  0.00  0.00    +0.000 C 
ENDBRANCH   5  24
BRANCH   9  26
ATOM     26  C   UNL     1       3.793   2.342  19.020  0.00  0.00    +0.000 C 
ATOM     27  O   UNL     1       3.775   1.205  18.548  0.00  0.00    +0.000 OA
BRANCH  26  28
ATOM     28  O   UNL     1       4.569   2.718  20.074  0.00  0.00    +0.000 OA
ATOM     29  C   UNL     1       5.033   1.617  20.857  0.00  0.00    +0.000 C 
ENDBRANCH  26  28
ENDBRANCH   9  26
TORSDOF 7
ENDMDL
MODEL 7
REMARK VINA RESULT:      -7.2      0.630      1.262
REMARK  Name = 
REMARK  10 active torsions:
REMARK  status: ('A' for Active; 'I' for Inactive)
REMARK    1  A    between atoms: C_1  and  C_2
REMARK    2  A    between atoms: C_2  and  C_3
REMARK    3  A    between atoms: C_3  and  S_4
REMARK    4  A    between atoms: S_4  and  C_5
REMARK    5  A    between atoms: C_8  and  C_9
REMARK    6  A    between atoms: N_13  and  C_14
REMARK    7  A    between atoms: C_14  and  C_15
REMARK    8  A    between atoms: C_19  and  C_20
REMARK    9  A    between atoms: C_20  and  O_22
REMARK   10  A    between atoms: O_22  and  C_23
REMARK                            x       y       z     vdW  Elec       q    Type
REMARK                         _______ _______ _______ _____ _____    ______ ____
ROOT
ATOM      1  C   UNL     1       3.246   6.082  18.475  0.00  0.00    +0.000 C 
ATOM      2  C   UNL     1       3.809   5.314  19.684  0.00  0.00    +0.000 C 
ATOM      3  C   UNL     1       2.792   4.310  20.155  0.00  0.00    +0.000 C 
ATOM      4  O   UNL     1       1.956   4.506  21.015  0.00  0.00    +0.000 OA
ATOM      5  N   UNL     1       2.959   3.193  19.395  0.00  0.00    +0.000 N 
ATOM      6  C   UNL     1       4.193   3.157  18.810  0.00  0.00    +0.000 C 
ATOM      7  O   UNL     1       4.679   2.207  18.209  0.00  0.00    +0.000 OA
ATOM      8  C   UNL     1       4.914   4.451  19.096  0.00  0.00    +0.000 C 
ATOM      9  C   UNL     1       5.428   5.242  17.900  0.00  0.00    +0.000 C 
ATOM     10  C   UNL     1       6.660   6.101  18.240  0.00  0.00    +0.000 C 
ATOM     11  C   UNL     1       6.495   7.273  17.290  0.00  0.00    +0.000 C 
ATOM     12  C   UNL     1       5.031   7.599  17.527  0.00  0.00    +0.000 C 
ATOM     13  N   UNL     1       4.385   6.282  17.562  0.00  0.00    +0.000 NA
ENDROOT
BRANCH   1  17
ATOM     14  C   UNL     1       0.979   9.644  19.494  0.00  0.00    +0.000 A 
ATOM     15  C   UNL     1       1.311   9.373  18.169  0.00  0.00    +0.000 A 
ATOM     16  C   UNL     1       2.003   8.210  17.843  0.00  0.00    +0.000 A 
ATOM     17  C   UNL     1       2.392   7.287  18.823  0.00  0.00    +0.000 A 
ATOM     18  C   UNL     1       2.023   7.553  20.155  0.00  0.00    +0.000 A 
ATOM     19  C   UNL     1       1.341   8.731  20.486  0.00  0.00    +0.000 A 
BRANCH  14  20
ATOM     20  S   UNL     1       0.104  11.132  19.918  0.00  0.00    +0.000 S 
BRANCH  20  21
ATOM     21  C   UNL     1      -1.430  10.835  18.974  0.00  0.00    +0.000 C 
BRANCH  21  23
ATOM     22  C   UNL     1      -0.653  13.083  18.166  0.00  0.00    +0.000 C 
ATOM     23  C   UNL     1      -1.589  11.912  17.909  0.00  0.00    +0.000 C 
ENDBRANCH  21  23
ENDBRANCH  20  21
ENDBRANCH  14  20
ENDBRANCH   1  17
BRANCH   5  24
ATOM     24  C   UNL     1       1.970   2.138  19.254  0.00  0.00    +0.000 C 
ATOM     25  C   UNL     1       0.625   2.594  18.716  0.00  0.00    +0.000 C 
ENDBRANCH   5  24
BRANCH   9  26
ATOM     26  C   UNL     1       5.781   4.373  16.672  0.00  0.00    +0.000 C 
ATOM     27  O   UNL     1       6.855   3.782  16.560  0.00  0.00    +0.000 OA
BRANCH  26  28
ATOM     28  O   UNL     1       4.793   4.344  15.735  0.00  0.00    +0.000 OA
ATOM     29  C   UNL     1       5.284   4.365  14.393  0.00  0.00    +0.000 C 
ENDBRANCH  26  28
ENDBRANCH   9  26
TORSDOF 7
ENDMDL
MODEL 8
REMARK VINA RESULT:      -7.2      1.401      3.867
REMARK  Name = 
REMARK  10 active torsions:
REMARK  status: ('A' for Active; 'I' for Inactive)
REMARK    1  A    between atoms: C_1  and  C_2
REMARK    2  A    between atoms: C_2  and  C_3
REMARK    3  A    between atoms: C_3  and  S_4
REMARK    4  A    between atoms: S_4  and  C_5
REMARK    5  A    between atoms: C_8  and  C_9
REMARK    6  A    between atoms: N_13  and  C_14
REMARK    7  A    between atoms: C_14  and  C_15
REMARK    8  A    between atoms: C_19  and  C_20
REMARK    9  A    between atoms: C_20  and  O_22
REMARK   10  A    between atoms: O_22  and  C_23
REMARK                            x       y       z     vdW  Elec       q    Type
REMARK                         _______ _______ _______ _____ _____    ______ ____
ROOT
ATOM      1  C   UNL     1       3.349   6.125  18.707  0.00  0.00    +0.000 C 
ATOM      2  C   UNL     1       4.009   5.975  17.324  0.00  0.00    +0.000 C 
ATOM      3  C   UNL     1       5.329   6.696  17.321  0.00  0.00    +0.000 C 
ATOM      4  O   UNL     1       5.499   7.849  16.974  0.00  0.00    +0.000 OA
ATOM      5  N   UNL     1       6.251   5.835  17.829  0.00  0.00    +0.000 N 
ATOM      6  C   UNL     1       5.829   4.538  17.757  0.00  0.00    +0.000 C 
ATOM      7  O   UNL     1       6.506   3.544  17.988  0.00  0.00    +0.000 OA
ATOM      8  C   UNL     1       4.406   4.509  17.257  0.00  0.00    +0.000 C 
ATOM      9  C   UNL     1       3.378   3.789  18.121  0.00  0.00    +0.000 C 
ATOM     10  C   UNL     1       2.203   3.223  17.300  0.00  0.00    +0.000 C 
ATOM     11  C   UNL     1       1.060   3.301  18.295  0.00  0.00    +0.000 C 
ATOM     12  C   UNL     1       1.251   4.720  18.803  0.00  0.00    +0.000 C 
ATOM     13  N   UNL     1       2.703   4.830  18.984  0.00  0.00    +0.000 NA
ENDROOT
BRANCH   1  17
ATOM     14  C   UNL     1       0.817   9.619  19.203  0.00  0.00    +0.000 A 
ATOM     15  C   UNL     1       1.160   8.832  20.300  0.00  0.00    +0.000 A 
ATOM     16  C   UNL     1       2.004   7.737  20.143  0.00  0.00    +0.000 A 
ATOM     17  C   UNL     1       2.526   7.386  18.891  0.00  0.00    +0.000 A 
ATOM     18  C   UNL     1       2.201   8.205  17.794  0.00  0.00    +0.000 A 
ATOM     19  C   UNL     1       1.339   9.298  17.948  0.00  0.00    +0.000 A 
BRANCH  14  20
ATOM     20  S   UNL     1      -0.268  11.013  19.396  0.00  0.00    +0.000 S 
BRANCH  20  21
ATOM     21  C   UNL     1      -1.770  10.309  18.635  0.00  0.00    +0.000 C 
BRANCH  21  23
ATOM     22  C   UNL     1      -2.537   9.924  16.275  0.00  0.00    +0.000 C 
ATOM     23  C   UNL     1      -1.992  10.940  17.267  0.00  0.00    +0.000 C 
ENDBRANCH  21  23
ENDBRANCH  20  21
ENDBRANCH  14  20
ENDBRANCH   1  17
BRANCH   5  24
ATOM     24  C   UNL     1       7.550   6.231  18.347  0.00  0.00    +0.000 C 
ATOM     25  C   UNL     1       7.851   5.745  19.754  0.00  0.00    +0.000 C 
ENDBRANCH   5  24
BRANCH   9  26
ATOM     26  C   UNL     1       3.960   2.638  18.970  0.00  0.00    +0.000 C 
ATOM     27  O   UNL     1       4.165   1.512  18.516  0.00  0.00    +0.000 OA
BRANCH  26  28
ATOM     28  O   UNL     1       4.206   2.997  20.261  0.00  0.00    +0.000 OA
ATOM     29  C   UNL     1       3.283   2.428  21.192  0.00  0.00    +0.000 C 
ENDBRANCH  26  28
ENDBRANCH   9  26
TORSDOF 7
ENDMDL
MODEL 9
REMARK VINA RESULT:      -7.2      1.149      1.902
REMARK  Name = 
REMARK  10 active torsions:
REMARK  status: ('A' for Active; 'I' for Inactive)
REMARK    1  A    between atoms: C_1  and  C_2
REMARK    2  A    between atoms: C_2  and  C_3
REMARK    3  A    between atoms: C_3  and  S_4
REMARK    4  A    between atoms: S_4  and  C_5
REMARK    5  A    between atoms: C_8  and  C_9
REMARK    6  A    between atoms: N_13  and  C_14
REMARK    7  A    between atoms: C_14  and  C_15
REMARK    8  A    between atoms: C_19  and  C_20
REMARK    9  A    between atoms: C_20  and  O_22
REMARK   10  A    between atoms: O_22  and  C_23
REMARK                            x       y       z     vdW  Elec       q    Type
REMARK                         _______ _______ _______ _____ _____    ______ ____
ROOT
ATOM      1  C   UNL     1       3.245   6.152  18.471  0.00  0.00    +0.000 C 
ATOM      2  C   UNL     1       3.810   5.455  19.723  0.00  0.00    +0.000 C 
ATOM      3  C   UNL     1       2.806   4.458  20.233  0.00  0.00    +0.000 C 
ATOM      4  O   UNL     1       1.958   4.682  21.075  0.00  0.00    +0.000 OA
ATOM      5  N   UNL     1       3.002   3.307  19.533  0.00  0.00    +0.000 N 
ATOM      6  C   UNL     1       4.242   3.265  18.963  0.00  0.00    +0.000 C 
ATOM      7  O   UNL     1       4.752   2.295  18.415  0.00  0.00    +0.000 OA
ATOM      8  C   UNL     1       4.936   4.585  19.190  0.00  0.00    +0.000 C 
ATOM      9  C   UNL     1       5.448   5.324  17.960  0.00  0.00    +0.000 C 
ATOM     10  C   UNL     1       6.661   6.222  18.268  0.00  0.00    +0.000 C 
ATOM     11  C   UNL     1       6.485   7.342  17.259  0.00  0.00    +0.000 C 
ATOM     12  C   UNL     1       5.013   7.651  17.465  0.00  0.00    +0.000 C 
ATOM     13  N   UNL     1       4.391   6.326  17.560  0.00  0.00    +0.000 NA
ENDROOT
BRANCH   1  17
ATOM     14  C   UNL     1       0.904   9.717  19.288  0.00  0.00    +0.000 A 
ATOM     15  C   UNL     1       1.267   9.394  17.983  0.00  0.00    +0.000 A 
ATOM     16  C   UNL     1       1.983   8.229  17.722  0.00  0.00    +0.000 A 
ATOM     17  C   UNL     1       2.366   7.356  18.749  0.00  0.00    +0.000 A 
ATOM     18  C   UNL     1       1.966   7.674  20.060  0.00  0.00    +0.000 A 
ATOM     19  C   UNL     1       1.260   8.854  20.326  0.00  0.00    +0.000 A 
BRANCH  14  20
ATOM     20  S   UNL     1      -0.003  11.208  19.630  0.00  0.00    +0.000 S 
BRANCH  20  21
ATOM     21  C   UNL     1       1.379  12.250  20.211  0.00  0.00    +0.000 C 
BRANCH  21  23
ATOM     22  C   UNL     1       2.656  12.975  18.173  0.00  0.00    +0.000 C 
ATOM     23  C   UNL     1       1.622  13.375  19.214  0.00  0.00    +0.000 C 
ENDBRANCH  21  23
ENDBRANCH  20  21
ENDBRANCH  14  20
ENDBRANCH   1  17
BRANCH   5  24
ATOM     24  C   UNL     1       2.033   2.229  19.436  0.00  0.00    +0.000 C 
ATOM     25  C   UNL     1       0.766   2.577  18.674  0.00  0.00    +0.000 C 
ENDBRANCH   5  24
BRANCH   9  26
ATOM     26  C   UNL     1       5.830   4.401  16.781  0.00  0.00    +0.000 C 
ATOM     27  O   UNL     1       6.924   3.843  16.699  0.00  0.00    +0.000 OA
BRANCH  26  28
ATOM     28  O   UNL     1       4.843   4.285  15.851  0.00  0.00    +0.000 OA
ATOM     29  C   UNL     1       5.311   4.424  14.508  0.00  0.00    +0.000 C 
ENDBRANCH  26  28
ENDBRANCH   9  26
TORSDOF 7
ENDMDL
