MODEL 1
REMARK VINA RESULT:      -8.7      0.000      0.000
REMARK  Name = 
REMARK  4 active torsions:
REMARK  status: ('A' for Active; 'I' for Inactive)
REMARK    1  A    between atoms: C_2  and  C_3
REMARK    2  A    between atoms: C_3  and  O_4
REMARK    3  A    between atoms: O_4  and  C_5
REMARK    4  A    between atoms: C_10  and  C_11
REMARK                            x       y       z     vdW  Elec       q    Type
REMARK                         _______ _______ _______ _____ _____    ______ ____
ROOT
ATOM      1  C   UNL     1       0.643  10.106  21.340  0.00  0.00    +0.000 A 
ATOM      2  C   UNL     1       0.892   8.978  22.118  0.00  0.00    +0.000 A 
ATOM      3  C   UNL     1       1.459   7.836  21.541  0.00  0.00    +0.000 A 
ATOM      4  C   UNL     1       1.772   7.802  20.170  0.00  0.00    +0.000 A 
ATOM      5  C   UNL     1       2.388   6.691  19.567  0.00  0.00    +0.000 A 
ATOM      6  C   UNL     1       2.698   6.699  18.202  0.00  0.00    +0.000 A 
ATOM      7  C   UNL     1       2.374   7.809  17.418  0.00  0.00    +0.000 A 
ATOM      8  C   UNL     1       1.770   8.919  18.005  0.00  0.00    +0.000 A 
ATOM      9  C   UNL     1       1.472   8.928  19.375  0.00  0.00    +0.000 A 
ATOM     10  C   UNL     1       0.895  10.058  19.966  0.00  0.00    +0.000 A 
ENDROOT
BRANCH   6  11
ATOM     11  C   UNL     1       3.386   5.568  17.583  0.00  0.00    +0.000 C 
ATOM     12  C   UNL     1       4.645   5.605  17.124  0.00  0.00    +0.000 C 
ATOM     13  S   UNL     1       5.374   4.260  16.310  0.00  0.00    +0.000 S 
ATOM     14  C   UNL     1       6.850   5.142  15.998  0.00  0.00    +0.000 C 
ATOM     15  O   UNL     1       7.815   4.682  15.412  0.00  0.00    +0.000 OA
ATOM     16  N   UNL     1       6.761   6.393  16.509  0.00  0.00    +0.000 N 
ATOM     17  C   UNL     1       5.616   6.741  17.182  0.00  0.00    +0.000 C 
ATOM     18  O   UNL     1       5.440   7.804  17.757  0.00  0.00    +0.000 OA
ATOM     19  H   UNL     1       7.560   7.006  16.423  0.00  0.00    +0.000 HD
ENDBRANCH   6  11
BRANCH   1  20
ATOM     20  O   UNL     1       0.179  11.217  22.007  0.00  0.00    +0.000 OA
BRANCH  20  21
ATOM     21  C   UNL     1      -0.001  12.346  21.159  0.00  0.00    +0.000 C 
BRANCH  21  23
ATOM     22  O   UNL     1      -1.404  14.236  20.858  0.00  0.00    +0.000 OA
ATOM     23  C   UNL     1      -1.314  13.099  21.321  0.00  0.00    +0.000 C 
ATOM     24  N   UNL     1      -2.285  12.406  22.001  0.00  0.00    +0.000 N 
ATOM     25  C   UNL     1      -3.556  12.865  22.246  0.00  0.00    +0.000 A 
ATOM     26  N   UNL     1      -4.326  12.333  23.164  0.00  0.00    +0.000 NA
ATOM     27  C   UNL     1      -5.518  13.044  23.231  0.00  0.00    +0.000 A 
ATOM     28  C   UNL     1      -6.564  12.835  24.153  0.00  0.00    +0.000 A 
ATOM     29  C   UNL     1      -7.703  13.649  24.108  0.00  0.00    +0.000 A 
ATOM     30  C   UNL     1      -7.820  14.653  23.150  0.00  0.00    +0.000 A 
ATOM     31  C   UNL     1      -6.803  14.872  22.219  0.00  0.00    +0.000 A 
ATOM     32  C   UNL     1      -5.659  14.062  22.287  0.00  0.00    +0.000 A 
ATOM     33  S   UNL     1      -4.250  14.112  21.315  0.00  0.00    +0.000 S 
ATOM     34  H   UNL     1      -2.015  11.579  22.522  0.00  0.00    +0.000 HD
ENDBRANCH  21  23
ENDBRANCH  20  21
ENDBRANCH   1  20
TORSDOF 4
ENDMDL
MODEL 2
REMARK VINA RESULT:      -8.6      8.300     11.718
REMARK  Name = 
REMARK  4 active torsions:
REMARK  status: ('A' for Active; 'I' for Inactive)
REMARK    1  A    between atoms: C_2  and  C_3
REMARK    2  A    between atoms: C_3  and  O_4
REMARK    3  A    between atoms: O_4  and  C_5
REMARK    4  A    between atoms: C_10  and  C_11
REMARK                            x       y       z     vdW  Elec       q    Type
REMARK                         _______ _______ _______ _____ _____    ______ ____
ROOT
ATOM      1  C   UNL     1       8.340   9.831  17.896  0.00  0.00    +0.000 A 
ATOM      2  C   UNL     1       8.965   9.368  19.051  0.00  0.00    +0.000 A 
ATOM      3  C   UNL     1       9.616  10.264  19.906  0.00  0.00    +0.000 A 
ATOM      4  C   UNL     1       9.661  11.638  19.610  0.00  0.00    +0.000 A 
ATOM      5  C   UNL     1      10.262  12.573  20.472  0.00  0.00    +0.000 A 
ATOM      6  C   UNL     1      10.275  13.936  20.149  0.00  0.00    +0.000 A 
ATOM      7  C   UNL     1       9.710  14.376  18.951  0.00  0.00    +0.000 A 
ATOM      8  C   UNL     1       9.106  13.461  18.092  0.00  0.00    +0.000 A 
ATOM      9  C   UNL     1       9.070  12.097  18.413  0.00  0.00    +0.000 A 
ATOM     10  C   UNL     1       8.434  11.186  17.564  0.00  0.00    +0.000 A 
ENDROOT
BRANCH   6  11
ATOM     11  C   UNL     1      10.851  14.917  21.067  0.00  0.00    +0.000 C 
ATOM     12  C   UNL     1      10.174  15.525  22.051  0.00  0.00    +0.000 C 
ATOM     13  S   UNL     1      10.885  16.753  23.045  0.00  0.00    +0.000 S 
ATOM     14  C   UNL     1       9.394  17.032  23.911  0.00  0.00    +0.000 C 
ATOM     15  O   UNL     1       9.262  17.849  24.808  0.00  0.00    +0.000 OA
ATOM     16  N   UNL     1       8.424  16.209  23.448  0.00  0.00    +0.000 N 
ATOM     17  C   UNL     1       8.750  15.313  22.459  0.00  0.00    +0.000 C 
ATOM     18  O   UNL     1       7.996  14.464  22.009  0.00  0.00    +0.000 OA
ATOM     19  H   UNL     1       7.513  16.245  23.881  0.00  0.00    +0.000 HD
ENDBRANCH   6  11
BRANCH   1  20
ATOM     20  O   UNL     1       7.640   8.898  17.165  0.00  0.00    +0.000 OA
BRANCH  20  21
ATOM     21  C   UNL     1       7.735   7.582  17.700  0.00  0.00    +0.000 C 
BRANCH  21  23
ATOM     22  O   UNL     1       6.179   6.451  16.310  0.00  0.00    +0.000 OA
ATOM     23  C   UNL     1       6.533   6.678  17.466  0.00  0.00    +0.000 C 
ATOM     24  N   UNL     1       5.945   6.208  18.616  0.00  0.00    +0.000 N 
ATOM     25  C   UNL     1       4.868   5.358  18.659  0.00  0.00    +0.000 A 
ATOM     26  N   UNL     1       4.144   5.202  19.741  0.00  0.00    +0.000 NA
ATOM     27  C   UNL     1       3.090   4.339  19.468  0.00  0.00    +0.000 A 
ATOM     28  C   UNL     1       2.044   3.993  20.347  0.00  0.00    +0.000 A 
ATOM     29  C   UNL     1       1.037   3.119  19.920  0.00  0.00    +0.000 A 
ATOM     30  C   UNL     1       1.067   2.574  18.639  0.00  0.00    +0.000 A 
ATOM     31  C   UNL     1       2.098   2.892  17.753  0.00  0.00    +0.000 A 
ATOM     32  C   UNL     1       3.091   3.784  18.188  0.00  0.00    +0.000 A 
ATOM     33  S   UNL     1       4.446   4.381  17.328  0.00  0.00    +0.000 S 
ATOM     34  H   UNL     1       6.189   6.645  19.498  0.00  0.00    +0.000 HD
ENDBRANCH  21  23
ENDBRANCH  20  21
ENDBRANCH   1  20
TORSDOF 4
ENDMDL
MODEL 3
REMARK VINA RESULT:      -8.6      2.681      2.980
REMARK  Name = 
REMARK  4 active torsions:
REMARK  status: ('A' for Active; 'I' for Inactive)
REMARK    1  A    between atoms: C_2  and  C_3
REMARK    2  A    between atoms: C_3  and  O_4
REMARK    3  A    between atoms: O_4  and  C_5
REMARK    4  A    between atoms: C_10  and  C_11
REMARK                            x       y       z     vdW  Elec       q    Type
REMARK                         _______ _______ _______ _____ _____    ______ ____
ROOT
ATOM      1  C   UNL     1      -0.141  10.780  19.077  0.00  0.00    +0.000 A 
ATOM      2  C   UNL     1      -0.378  10.078  20.257  0.00  0.00    +0.000 A 
ATOM      3  C   UNL     1       0.348   8.917  20.543  0.00  0.00    +0.000 A 
ATOM      4  C   UNL     1       1.314   8.432  19.643  0.00  0.00    +0.000 A 
ATOM      5  C   UNL     1       2.097   7.296  19.920  0.00  0.00    +0.000 A 
ATOM      6  C   UNL     1       3.059   6.852  19.005  0.00  0.00    +0.000 A 
ATOM      7  C   UNL     1       3.233   7.522  17.792  0.00  0.00    +0.000 A 
ATOM      8  C   UNL     1       2.468   8.651  17.509  0.00  0.00    +0.000 A 
ATOM      9  C   UNL     1       1.515   9.116  18.425  0.00  0.00    +0.000 A 
ATOM     10  C   UNL     1       0.773  10.270  18.150  0.00  0.00    +0.000 A 
ENDROOT
BRANCH   6  11
ATOM     11  C   UNL     1       3.912   5.705  19.312  0.00  0.00    +0.000 C 
ATOM     12  C   UNL     1       3.643   4.442  18.953  0.00  0.00    +0.000 C 
ATOM     13  S   UNL     1       4.642   3.110  19.431  0.00  0.00    +0.000 S 
ATOM     14  C   UNL     1       3.586   1.940  18.676  0.00  0.00    +0.000 C 
ATOM     15  O   UNL     1       3.782   0.735  18.677  0.00  0.00    +0.000 OA
ATOM     16  N   UNL     1       2.539   2.566  18.091  0.00  0.00    +0.000 N 
ATOM     17  C   UNL     1       2.489   3.938  18.144  0.00  0.00    +0.000 C 
ATOM     18  O   UNL     1       1.647   4.628  17.592  0.00  0.00    +0.000 OA
ATOM     19  H   UNL     1       1.861   2.008  17.591  0.00  0.00    +0.000 HD
ENDBRANCH   6  11
BRANCH   1  20
ATOM     20  O   UNL     1      -0.827  11.963  18.924  0.00  0.00    +0.000 OA
BRANCH  20  21
ATOM     21  C   UNL     1      -2.000  11.832  18.128  0.00  0.00    +0.000 C 
BRANCH  21  23
ATOM     22  O   UNL     1      -4.368  11.790  18.284  0.00  0.00    +0.000 OA
ATOM     23  C   UNL     1      -3.318  12.129  18.829  0.00  0.00    +0.000 C 
ATOM     24  N   UNL     1      -3.187  12.779  20.032  0.00  0.00    +0.000 N 
ATOM     25  C   UNL     1      -4.227  13.127  20.858  0.00  0.00    +0.000 A 
ATOM     26  N   UNL     1      -4.096  14.019  21.809  0.00  0.00    +0.000 NA
ATOM     27  C   UNL     1      -5.324  14.213  22.430  0.00  0.00    +0.000 A 
ATOM     28  C   UNL     1      -5.611  15.155  23.438  0.00  0.00    +0.000 A 
ATOM     29  C   UNL     1      -6.909  15.245  23.957  0.00  0.00    +0.000 A 
ATOM     30  C   UNL     1      -7.916  14.401  23.496  0.00  0.00    +0.000 A 
ATOM     31  C   UNL     1      -7.655  13.452  22.506  0.00  0.00    +0.000 A 
ATOM     32  C   UNL     1      -6.355  13.385  21.982  0.00  0.00    +0.000 A 
ATOM     33  S   UNL     1      -5.746  12.360  20.753  0.00  0.00    +0.000 S 
ATOM     34  H   UNL     1      -2.293  13.199  20.260  0.00  0.00    +0.000 HD
ENDBRANCH  21  23
ENDBRANCH  20  21
ENDBRANCH   1  20
TORSDOF 4
ENDMDL
MODEL 4
REMARK VINA RESULT:      -8.6      1.811      2.619
REMARK  Name = 
REMARK  4 active torsions:
REMARK  status: ('A' for Active; 'I' for Inactive)
REMARK    1  A    between atoms: C_2  and  C_3
REMARK    2  A    between atoms: C_3  and  O_4
REMARK    3  A    between atoms: O_4  and  C_5
REMARK    4  A    between atoms: C_10  and  C_11
REMARK                            x       y       z     vdW  Elec       q    Type
REMARK                         _______ _______ _______ _____ _____    ______ ____
ROOT
ATOM      1  C   UNL     1       0.974   8.426  20.821  0.00  0.00    +0.000 A 
ATOM      2  C   UNL     1       1.264   9.102  19.638  0.00  0.00    +0.000 A 
ATOM      3  C   UNL     1       1.975   8.461  18.617  0.00  0.00    +0.000 A 
ATOM      4  C   UNL     1       2.417   7.135  18.772  0.00  0.00    +0.000 A 
ATOM      5  C   UNL     1       3.090   6.443  17.749  0.00  0.00    +0.000 A 
ATOM      6  C   UNL     1       3.504   5.118  17.935  0.00  0.00    +0.000 A 
ATOM      7  C   UNL     1       3.272   4.478  19.154  0.00  0.00    +0.000 A 
ATOM      8  C   UNL     1       2.601   5.151  20.173  0.00  0.00    +0.000 A 
ATOM      9  C   UNL     1       2.166   6.471  19.991  0.00  0.00    +0.000 A 
ATOM     10  C   UNL     1       1.464   7.130  21.006  0.00  0.00    +0.000 A 
ENDROOT
BRANCH   6  11
ATOM     11  C   UNL     1       4.155   4.378  16.856  0.00  0.00    +0.000 C 
ATOM     12  C   UNL     1       5.305   4.742  16.272  0.00  0.00    +0.000 C 
ATOM     13  S   UNL     1       5.978   3.878  14.930  0.00  0.00    +0.000 S 
ATOM     14  C   UNL     1       7.303   5.005  14.761  0.00  0.00    +0.000 C 
ATOM     15  O   UNL     1       8.181   4.913  13.919  0.00  0.00    +0.000 OA
ATOM     16  N   UNL     1       7.211   5.975  15.701  0.00  0.00    +0.000 N 
ATOM     17  C   UNL     1       6.181   5.908  16.607  0.00  0.00    +0.000 C 
ATOM     18  O   UNL     1       6.029   6.669  17.550  0.00  0.00    +0.000 OA
ATOM     19  H   UNL     1       7.932   6.681  15.736  0.00  0.00    +0.000 HD
ENDBRANCH   6  11
BRANCH   1  20
ATOM     20  O   UNL     1       0.186   9.097  21.728  0.00  0.00    +0.000 OA
BRANCH  20  21
ATOM     21  C   UNL     1      -0.480  10.224  21.168  0.00  0.00    +0.000 C 
BRANCH  21  23
ATOM     22  O   UNL     1      -0.467  11.293  23.287  0.00  0.00    +0.000 OA
ATOM     23  C   UNL     1      -0.957  11.278  22.158  0.00  0.00    +0.000 C 
ATOM     24  N   UNL     1      -1.926  12.118  21.667  0.00  0.00    +0.000 N 
ATOM     25  C   UNL     1      -2.490  13.161  22.360  0.00  0.00    +0.000 A 
ATOM     26  N   UNL     1      -3.619  13.715  21.992  0.00  0.00    +0.000 NA
ATOM     27  C   UNL     1      -3.975  14.690  22.916  0.00  0.00    +0.000 A 
ATOM     28  C   UNL     1      -5.165  15.445  22.918  0.00  0.00    +0.000 A 
ATOM     29  C   UNL     1      -5.392  16.384  23.932  0.00  0.00    +0.000 A 
ATOM     30  C   UNL     1      -4.444  16.591  24.931  0.00  0.00    +0.000 A 
ATOM     31  C   UNL     1      -3.252  15.864  24.945  0.00  0.00    +0.000 A 
ATOM     32  C   UNL     1      -3.046  14.913  23.934  0.00  0.00    +0.000 A 
ATOM     33  S   UNL     1      -1.715  13.860  23.708  0.00  0.00    +0.000 S 
ATOM     34  H   UNL     1      -2.400  11.861  20.809  0.00  0.00    +0.000 HD
ENDBRANCH  21  23
ENDBRANCH  20  21
ENDBRANCH   1  20
TORSDOF 4
ENDMDL
MODEL 5
REMARK VINA RESULT:      -8.5      1.886      2.411
REMARK  Name = 
REMARK  4 active torsions:
REMARK  status: ('A' for Active; 'I' for Inactive)
REMARK    1  A    between atoms: C_2  and  C_3
REMARK    2  A    between atoms: C_3  and  O_4
REMARK    3  A    between atoms: O_4  and  C_5
REMARK    4  A    between atoms: C_10  and  C_11
REMARK                            x       y       z     vdW  Elec       q    Type
REMARK                         _______ _______ _______ _____ _____    ______ ____
ROOT
ATOM      1  C   UNL     1       0.814   9.119  20.772  0.00  0.00    +0.000 A 
ATOM      2  C   UNL     1       1.047   9.708  19.532  0.00  0.00    +0.000 A 
ATOM      3  C   UNL     1       1.730   9.002  18.535  0.00  0.00    +0.000 A 
ATOM      4  C   UNL     1       2.201   7.698  18.770  0.00  0.00    +0.000 A 
ATOM      5  C   UNL     1       2.846   6.940  17.776  0.00  0.00    +0.000 A 
ATOM      6  C   UNL     1       3.289   5.639  18.045  0.00  0.00    +0.000 A 
ATOM      7  C   UNL     1       3.116   5.090  19.316  0.00  0.00    +0.000 A 
ATOM      8  C   UNL     1       2.473   5.828  20.308  0.00  0.00    +0.000 A 
ATOM      9  C   UNL     1       2.008   7.124  20.045  0.00  0.00    +0.000 A 
ATOM     10  C   UNL     1       1.334   7.848  21.034  0.00  0.00    +0.000 A 
ENDROOT
BRANCH   6  11
ATOM     11  C   UNL     1       3.912   4.829  16.999  0.00  0.00    +0.000 C 
ATOM     12  C   UNL     1       5.102   5.093  16.443  0.00  0.00    +0.000 C 
ATOM     13  S   UNL     1       5.744   4.152  15.137  0.00  0.00    +0.000 S 
ATOM     14  C   UNL     1       7.155   5.171  14.986  0.00  0.00    +0.000 C 
ATOM     15  O   UNL     1       8.047   4.995  14.172  0.00  0.00    +0.000 OA
ATOM     16  N   UNL     1       7.112   6.165  15.905  0.00  0.00    +0.000 N 
ATOM     17  C   UNL     1       6.056   6.195  16.781  0.00  0.00    +0.000 C 
ATOM     18  O   UNL     1       5.936   6.985  17.704  0.00  0.00    +0.000 OA
ATOM     19  H   UNL     1       7.884   6.815  15.948  0.00  0.00    +0.000 HD
ENDBRANCH   6  11
BRANCH   1  20
ATOM     20  O   UNL     1       0.051   9.845  21.657  0.00  0.00    +0.000 OA
BRANCH  20  21
ATOM     21  C   UNL     1       0.243  11.251  21.542  0.00  0.00    +0.000 C 
BRANCH  21  23
ATOM     22  O   UNL     1      -1.886  12.052  20.863  0.00  0.00    +0.000 OA
ATOM     23  C   UNL     1      -1.001  12.111  21.716  0.00  0.00    +0.000 C 
ATOM     24  N   UNL     1      -0.993  12.897  22.843  0.00  0.00    +0.000 N 
ATOM     25  C   UNL     1      -2.011  13.734  23.228  0.00  0.00    +0.000 A 
ATOM     26  N   UNL     1      -1.834  14.694  24.102  0.00  0.00    +0.000 NA
ATOM     27  C   UNL     1      -3.016  15.413  24.241  0.00  0.00    +0.000 A 
ATOM     28  C   UNL     1      -3.201  16.573  25.019  0.00  0.00    +0.000 A 
ATOM     29  C   UNL     1      -4.453  17.200  25.045  0.00  0.00    +0.000 A 
ATOM     30  C   UNL     1      -5.522  16.680  24.320  0.00  0.00    +0.000 A 
ATOM     31  C   UNL     1      -5.367  15.525  23.550  0.00  0.00    +0.000 A 
ATOM     32  C   UNL     1      -4.102  14.917  23.519  0.00  0.00    +0.000 A 
ATOM     33  S   UNL     1      -3.602  13.528  22.652  0.00  0.00    +0.000 S 
ATOM     34  H   UNL     1      -0.118  13.022  23.340  0.00  0.00    +0.000 HD
ENDBRANCH  21  23
ENDBRANCH  20  21
ENDBRANCH   1  20
TORSDOF 4
ENDMDL
MODEL 6
REMARK VINA RESULT:      -8.5      3.001      3.386
REMARK  Name = 
REMARK  4 active torsions:
REMARK  status: ('A' for Active; 'I' for Inactive)
REMARK    1  A    between atoms: C_2  and  C_3
REMARK    2  A    between atoms: C_3  and  O_4
REMARK    3  A    between atoms: O_4  and  C_5
REMARK    4  A    between atoms: C_10  and  C_11
REMARK                            x       y       z     vdW  Elec       q    Type
REMARK                         _______ _______ _______ _____ _____    ______ ____
ROOT
ATOM      1  C   UNL     1      -0.187  10.941  19.512  0.00  0.00    +0.000 A 
ATOM      2  C   UNL     1      -0.333  10.235  20.703  0.00  0.00    +0.000 A 
ATOM      3  C   UNL     1       0.395   9.060  20.918  0.00  0.00    +0.000 A 
ATOM      4  C   UNL     1       1.272   8.566  19.936  0.00  0.00    +0.000 A 
ATOM      5  C   UNL     1       2.057   7.416  20.138  0.00  0.00    +0.000 A 
ATOM      6  C   UNL     1       2.929   6.962  19.141  0.00  0.00    +0.000 A 
ATOM      7  C   UNL     1       3.009   7.638  17.922  0.00  0.00    +0.000 A 
ATOM      8  C   UNL     1       2.242   8.782  17.712  0.00  0.00    +0.000 A 
ATOM      9  C   UNL     1       1.379   9.255  18.710  0.00  0.00    +0.000 A 
ATOM     10  C   UNL     1       0.635  10.423  18.506  0.00  0.00    +0.000 A 
ENDROOT
BRANCH   6  11
ATOM     11  C   UNL     1       3.786   5.800  19.367  0.00  0.00    +0.000 C 
ATOM     12  C   UNL     1       3.507   4.559  18.945  0.00  0.00    +0.000 C 
ATOM     13  S   UNL     1       4.513   3.201  19.328  0.00  0.00    +0.000 S 
ATOM     14  C   UNL     1       3.440   2.075  18.533  0.00  0.00    +0.000 C 
ATOM     15  O   UNL     1       3.633   0.872  18.464  0.00  0.00    +0.000 OA
ATOM     16  N   UNL     1       2.382   2.734  18.005  0.00  0.00    +0.000 N 
ATOM     17  C   UNL     1       2.336   4.100  18.134  0.00  0.00    +0.000 C 
ATOM     18  O   UNL     1       1.484   4.821  17.638  0.00  0.00    +0.000 OA
ATOM     19  H   UNL     1       1.692   2.205  17.490  0.00  0.00    +0.000 HD
ENDBRANCH   6  11
BRANCH   1  20
ATOM     20  O   UNL     1      -0.863  12.136  19.424  0.00  0.00    +0.000 OA
BRANCH  20  21
ATOM     21  C   UNL     1      -2.276  11.977  19.349  0.00  0.00    +0.000 C 
BRANCH  21  23
ATOM     22  O   UNL     1      -4.323  12.854  20.168  0.00  0.00    +0.000 OA
ATOM     23  C   UNL     1      -3.098  12.862  20.275  0.00  0.00    +0.000 C 
ATOM     24  N   UNL     1      -2.352  13.611  21.153  0.00  0.00    +0.000 N 
ATOM     25  C   UNL     1      -2.868  14.460  22.100  0.00  0.00    +0.000 A 
ATOM     26  N   UNL     1      -2.142  15.387  22.677  0.00  0.00    +0.000 NA
ATOM     27  C   UNL     1      -2.944  16.131  23.534  0.00  0.00    +0.000 A 
ATOM     28  C   UNL     1      -2.553  17.270  24.266  0.00  0.00    +0.000 A 
ATOM     29  C   UNL     1      -3.484  17.928  25.079  0.00  0.00    +0.000 A 
ATOM     30  C   UNL     1      -4.791  17.459  25.184  0.00  0.00    +0.000 A 
ATOM     31  C   UNL     1      -5.200  16.326  24.477  0.00  0.00    +0.000 A 
ATOM     32  C   UNL     1      -4.262  15.688  23.652  0.00  0.00    +0.000 A 
ATOM     33  S   UNL     1      -4.474  14.314  22.651  0.00  0.00    +0.000 S 
ATOM     34  H   UNL     1      -1.355  13.698  20.989  0.00  0.00    +0.000 HD
ENDBRANCH  21  23
ENDBRANCH  20  21
ENDBRANCH   1  20
TORSDOF 4
ENDMDL
MODEL 7
REMARK VINA RESULT:      -8.4      4.203      6.732
REMARK  Name = 
REMARK  4 active torsions:
REMARK  status: ('A' for Active; 'I' for Inactive)
REMARK    1  A    between atoms: C_2  and  C_3
REMARK    2  A    between atoms: C_3  and  O_4
REMARK    3  A    between atoms: O_4  and  C_5
REMARK    4  A    between atoms: C_10  and  C_11
REMARK                            x       y       z     vdW  Elec       q    Type
REMARK                         _______ _______ _______ _____ _____    ______ ____
ROOT
ATOM      1  C   UNL     1      -0.263  10.842  19.857  0.00  0.00    +0.000 A 
ATOM      2  C   UNL     1      -0.327  10.094  21.030  0.00  0.00    +0.000 A 
ATOM      3  C   UNL     1       0.435   8.928  21.163  0.00  0.00    +0.000 A 
ATOM      4  C   UNL     1       1.265   8.486  20.117  0.00  0.00    +0.000 A 
ATOM      5  C   UNL     1       2.082   7.348  20.235  0.00  0.00    +0.000 A 
ATOM      6  C   UNL     1       2.905   6.947  19.175  0.00  0.00    +0.000 A 
ATOM      7  C   UNL     1       2.902   7.664  17.977  0.00  0.00    +0.000 A 
ATOM      8  C   UNL     1       2.101   8.797  17.850  0.00  0.00    +0.000 A 
ATOM      9  C   UNL     1       1.288   9.219  18.911  0.00  0.00    +0.000 A 
ATOM     10  C   UNL     1       0.511  10.376  18.790  0.00  0.00    +0.000 A 
ENDROOT
BRANCH   6  11
ATOM     11  C   UNL     1       3.796   5.796  19.312  0.00  0.00    +0.000 C 
ATOM     12  C   UNL     1       3.512   4.561  18.878  0.00  0.00    +0.000 C 
ATOM     13  S   UNL     1       4.566   3.215  19.157  0.00  0.00    +0.000 S 
ATOM     14  C   UNL     1       3.461   2.087  18.409  0.00  0.00    +0.000 C 
ATOM     15  O   UNL     1       3.671   0.890  18.295  0.00  0.00    +0.000 OA
ATOM     16  N   UNL     1       2.358   2.737  17.971  0.00  0.00    +0.000 N 
ATOM     17  C   UNL     1       2.296   4.099  18.137  0.00  0.00    +0.000 C 
ATOM     18  O   UNL     1       1.399   4.814  17.720  0.00  0.00    +0.000 OA
ATOM     19  H   UNL     1       1.644   2.207  17.490  0.00  0.00    +0.000 HD
ENDBRANCH   6  11
BRANCH   1  20
ATOM     20  O   UNL     1      -0.967  12.025  19.849  0.00  0.00    +0.000 OA
BRANCH  20  21
ATOM     21  C   UNL     1      -0.795  12.787  21.039  0.00  0.00    +0.000 C 
BRANCH  21  23
ATOM     22  O   UNL     1       0.796  14.062  22.253  0.00  0.00    +0.000 OA
ATOM     23  C   UNL     1       0.544  13.494  21.191  0.00  0.00    +0.000 C 
ATOM     24  N   UNL     1       1.349  13.428  20.080  0.00  0.00    +0.000 N 
ATOM     25  C   UNL     1       2.610  13.964  19.987  0.00  0.00    +0.000 A 
ATOM     26  N   UNL     1       3.199  14.169  18.835  0.00  0.00    +0.000 NA
ATOM     27  C   UNL     1       4.429  14.780  19.049  0.00  0.00    +0.000 A 
ATOM     28  C   UNL     1       5.317  15.241  18.057  0.00  0.00    +0.000 A 
ATOM     29  C   UNL     1       6.519  15.856  18.430  0.00  0.00    +0.000 A 
ATOM     30  C   UNL     1       6.852  16.003  19.774  0.00  0.00    +0.000 A 
ATOM     31  C   UNL     1       5.994  15.544  20.776  0.00  0.00    +0.000 A 
ATOM     32  C   UNL     1       4.785  14.947  20.388  0.00  0.00    +0.000 A 
ATOM     33  S   UNL     1       3.531  14.325  21.375  0.00  0.00    +0.000 S 
ATOM     34  H   UNL     1       0.939  13.129  19.202  0.00  0.00    +0.000 HD
ENDBRANCH  21  23
ENDBRANCH  20  21
ENDBRANCH   1  20
TORSDOF 4
ENDMDL
MODEL 8
REMARK VINA RESULT:      -8.3      2.344      3.041
REMARK  Name = 
REMARK  4 active torsions:
REMARK  status: ('A' for Active; 'I' for Inactive)
REMARK    1  A    between atoms: C_2  and  C_3
REMARK    2  A    between atoms: C_3  and  O_4
REMARK    3  A    between atoms: O_4  and  C_5
REMARK    4  A    between atoms: C_10  and  C_11
REMARK                            x       y       z     vdW  Elec       q    Type
REMARK                         _______ _______ _______ _____ _____    ______ ____
ROOT
ATOM      1  C   UNL     1       0.752   9.637  20.285  0.00  0.00    +0.000 A 
ATOM      2  C   UNL     1       1.031  10.072  18.992  0.00  0.00    +0.000 A 
ATOM      3  C   UNL     1       1.735   9.245  18.109  0.00  0.00    +0.000 A 
ATOM      4  C   UNL     1       2.182   7.975  18.513  0.00  0.00    +0.000 A 
ATOM      5  C   UNL     1       2.848   7.099  17.637  0.00  0.00    +0.000 A 
ATOM      6  C   UNL     1       3.266   5.835  18.073  0.00  0.00    +0.000 A 
ATOM      7  C   UNL     1       3.046   5.443  19.395  0.00  0.00    +0.000 A 
ATOM      8  C   UNL     1       2.382   6.299  20.270  0.00  0.00    +0.000 A 
ATOM      9  C   UNL     1       1.942   7.559  19.840  0.00  0.00    +0.000 A 
ATOM     10  C   UNL     1       1.247   8.402  20.713  0.00  0.00    +0.000 A 
ENDROOT
BRANCH   6  11
ATOM     11  C   UNL     1       3.910   4.900  17.152  0.00  0.00    +0.000 C 
ATOM     12  C   UNL     1       5.120   5.086  16.605  0.00  0.00    +0.000 C 
ATOM     13  S   UNL     1       5.791   3.990  15.443  0.00  0.00    +0.000 S 
ATOM     14  C   UNL     1       7.217   4.973  15.215  0.00  0.00    +0.000 C 
ATOM     15  O   UNL     1       8.131   4.694  14.456  0.00  0.00    +0.000 OA
ATOM     16  N   UNL     1       7.158   6.070  16.006  0.00  0.00    +0.000 N 
ATOM     17  C   UNL     1       6.076   6.214  16.839  0.00  0.00    +0.000 C 
ATOM     18  O   UNL     1       5.937   7.110  17.657  0.00  0.00    +0.000 OA
ATOM     19  H   UNL     1       7.935   6.715  15.995  0.00  0.00    +0.000 HD
ENDBRANCH   6  11
BRANCH   1  20
ATOM     20  O   UNL     1      -0.030  10.471  21.053  0.00  0.00    +0.000 OA
BRANCH  20  21
ATOM     21  C   UNL     1      -1.049  11.128  20.307  0.00  0.00    +0.000 C 
BRANCH  21  23
ATOM     22  O   UNL     1      -2.447  13.045  20.293  0.00  0.00    +0.000 OA
ATOM     23  C   UNL     1      -1.628  12.387  20.934  0.00  0.00    +0.000 C 
ATOM     24  N   UNL     1      -1.146  12.668  22.190  0.00  0.00    +0.000 N 
ATOM     25  C   UNL     1      -1.539  13.732  22.965  0.00  0.00    +0.000 A 
ATOM     26  N   UNL     1      -0.833  14.149  23.988  0.00  0.00    +0.000 NA
ATOM     27  C   UNL     1      -1.438  15.274  24.534  0.00  0.00    +0.000 A 
ATOM     28  C   UNL     1      -0.936  16.063  25.589  0.00  0.00    +0.000 A 
ATOM     29  C   UNL     1      -1.654  17.186  26.021  0.00  0.00    +0.000 A 
ATOM     30  C   UNL     1      -2.869  17.521  25.429  0.00  0.00    +0.000 A 
ATOM     31  C   UNL     1      -3.393  16.749  24.390  0.00  0.00    +0.000 A 
ATOM     32  C   UNL     1      -2.654  15.638  23.954  0.00  0.00    +0.000 A 
ATOM     33  S   UNL     1      -3.018  14.535  22.696  0.00  0.00    +0.000 S 
ATOM     34  H   UNL     1      -0.318  12.180  22.511  0.00  0.00    +0.000 HD
ENDBRANCH  21  23
ENDBRANCH  20  21
ENDBRANCH   1  20
TORSDOF 4
ENDMDL
MODEL 9
REMARK VINA RESULT:      -8.3      4.252      6.663
REMARK  Name = 
REMARK  4 active torsions:
REMARK  status: ('A' for Active; 'I' for Inactive)
REMARK    1  A    between atoms: C_2  and  C_3
REMARK    2  A    between atoms: C_3  and  O_4
REMARK    3  A    between atoms: O_4  and  C_5
REMARK    4  A    between atoms: C_10  and  C_11
REMARK                            x       y       z     vdW  Elec       q    Type
REMARK                         _______ _______ _______ _____ _____    ______ ____
ROOT
ATOM      1  C   UNL     1      -0.431  10.685  20.105  0.00  0.00    +0.000 A 
ATOM      2  C   UNL     1      -0.414   9.893  21.250  0.00  0.00    +0.000 A 
ATOM      3  C   UNL     1       0.400   8.757  21.308  0.00  0.00    +0.000 A 
ATOM      4  C   UNL     1       1.202   8.389  20.213  0.00  0.00    +0.000 A 
ATOM      5  C   UNL     1       2.070   7.284  20.254  0.00  0.00    +0.000 A 
ATOM      6  C   UNL     1       2.864   6.957  19.147  0.00  0.00    +0.000 A 
ATOM      7  C   UNL     1       2.780   7.716  17.978  0.00  0.00    +0.000 A 
ATOM      8  C   UNL     1       1.929   8.818  17.927  0.00  0.00    +0.000 A 
ATOM      9  C   UNL     1       1.144   9.165  19.035  0.00  0.00    +0.000 A 
ATOM     10  C   UNL     1       0.315  10.292  18.990  0.00  0.00    +0.000 A 
ENDROOT
BRANCH   6  11
ATOM     11  C   UNL     1       3.806   5.841  19.204  0.00  0.00    +0.000 C 
ATOM     12  C   UNL     1       3.516   4.583  18.844  0.00  0.00    +0.000 C 
ATOM     13  S   UNL     1       4.645   3.283  19.027  0.00  0.00    +0.000 S 
ATOM     14  C   UNL     1       3.499   2.096  18.454  0.00  0.00    +0.000 C 
ATOM     15  O   UNL     1       3.737   0.904  18.349  0.00  0.00    +0.000 OA
ATOM     16  N   UNL     1       2.326   2.695  18.140  0.00  0.00    +0.000 N 
ATOM     17  C   UNL     1       2.236   4.058  18.274  0.00  0.00    +0.000 C 
ATOM     18  O   UNL     1       1.268   4.730  17.952  0.00  0.00    +0.000 OA
ATOM     19  H   UNL     1       1.579   2.126  17.767  0.00  0.00    +0.000 HD
ENDBRANCH   6  11
BRANCH   1  20
ATOM     20  O   UNL     1      -1.183  11.836  20.171  0.00  0.00    +0.000 OA
BRANCH  20  21
ATOM     21  C   UNL     1      -0.606  12.837  21.003  0.00  0.00    +0.000 C 
BRANCH  21  23
ATOM     22  O   UNL     1       0.200  14.283  19.303  0.00  0.00    +0.000 OA
ATOM     23  C   UNL     1       0.464  13.706  20.357  0.00  0.00    +0.000 C 
ATOM     24  N   UNL     1       1.655  13.741  21.041  0.00  0.00    +0.000 N 
ATOM     25  C   UNL     1       2.755  14.475  20.670  0.00  0.00    +0.000 A 
ATOM     26  N   UNL     1       3.951  14.229  21.146  0.00  0.00    +0.000 NA
ATOM     27  C   UNL     1       4.869  15.080  20.543  0.00  0.00    +0.000 A 
ATOM     28  C   UNL     1       6.267  15.064  20.724  0.00  0.00    +0.000 A 
ATOM     29  C   UNL     1       7.068  15.980  20.030  0.00  0.00    +0.000 A 
ATOM     30  C   UNL     1       6.496  16.916  19.174  0.00  0.00    +0.000 A 
ATOM     31  C   UNL     1       5.112  16.960  18.986  0.00  0.00    +0.000 A 
ATOM     32  C   UNL     1       4.323  16.025  19.674  0.00  0.00    +0.000 A 
ATOM     33  S   UNL     1       2.625  15.813  19.623  0.00  0.00    +0.000 S 
ATOM     34  H   UNL     1       1.818  13.050  21.765  0.00  0.00    +0.000 HD
ENDBRANCH  21  23
ENDBRANCH  20  21
ENDBRANCH   1  20
TORSDOF 4
ENDMDL
