MODEL 1
REMARK VINA RESULT:      -8.6      0.000      0.000
REMARK  Name = 
REMARK  6 active torsions:
REMARK  status: ('A' for Active; 'I' for Inactive)
REMARK    1  A    between atoms: C_1  and  C_2
REMARK    2  A    between atoms: C_4  and  C_5
REMARK    3  A    between atoms: C_5  and  N_6
REMARK    4  A    between atoms: N_6  and  C_7
REMARK    5  A    between atoms: C_8  and  C_10
REMARK    6  A    between atoms: C_15  and  N_16
REMARK                            x       y       z     vdW  Elec       q    Type
REMARK                         _______ _______ _______ _____ _____    ______ ____
ROOT
ATOM      1  C   UNL     1       4.174   6.507  17.342  0.00  0.00    +0.000 A 
ATOM      2  C   UNL     1       3.528   7.733  17.532  0.00  0.00    +0.000 A 
ATOM      3  C   UNL     1       2.602   7.888  18.561  0.00  0.00    +0.000 A 
ATOM      4  C   UNL     1       2.232   6.789  19.334  0.00  0.00    +0.000 A 
ATOM      5 CL   UNL     1       1.199   7.089  20.690  0.00  0.00    +0.000 Cl
ATOM      6  C   UNL     1       2.769   5.515  19.066  0.00  0.00    +0.000 A 
ATOM      7  C   UNL     1       3.770   5.387  18.090  0.00  0.00    +0.000 A 
ENDROOT
BRANCH   6   8
ATOM      8  N   UNL     1       2.292   4.378  19.755  0.00  0.00    +0.000 N 
ATOM      9  C   UNL     1       2.353   4.308  21.194  0.00  0.00    +0.000 C 
ATOM     10  C   UNL     1       1.979   2.871  21.483  0.00  0.00    +0.000 C 
ATOM     11  C   UNL     1       0.976   2.540  20.384  0.00  0.00    +0.000 C 
ATOM     12  C   UNL     1       1.375   3.465  19.249  0.00  0.00    +0.000 C 
ATOM     13  O   UNL     1       0.955   3.373  18.106  0.00  0.00    +0.000 OA
ENDBRANCH   6   8
BRANCH   1  16
ATOM     14  N   UNL     1       6.328   5.498  16.580  0.00  0.00    +0.000 N 
ATOM     15  C   UNL     1       6.439   4.588  17.716  0.00  0.00    +0.000 C 
ATOM     16  C   UNL     1       5.255   6.357  16.327  0.00  0.00    +0.000 C 
ATOM     17  O   UNL     1       5.162   7.020  15.294  0.00  0.00    +0.000 OA
BRANCH  14  18
ATOM     18  C   UNL     1       7.442   5.476  15.634  0.00  0.00    +0.000 C 
BRANCH  18  22
ATOM     19  C   UNL     1       5.220   2.810  11.887  0.00  0.00    +0.000 C 
ATOM     20  C   UNL     1       6.047   3.622  12.796  0.00  0.00    +0.000 A 
ATOM     21  C   UNL     1       6.071   3.816  14.154  0.00  0.00    +0.000 A 
ATOM     22  C   UNL     1       7.071   4.796  14.355  0.00  0.00    +0.000 A 
ATOM     23  N   UNL     1       7.647   5.143  13.193  0.00  0.00    +0.000 NA
ATOM     24  O   UNL     1       7.005   4.395  12.218  0.00  0.00    +0.000 OA
ENDBRANCH  18  22
ENDBRANCH  14  18
ENDBRANCH   1  16
TORSDOF 4
ENDMDL
MODEL 2
REMARK VINA RESULT:      -8.5      3.886      7.461
REMARK  Name = 
REMARK  6 active torsions:
REMARK  status: ('A' for Active; 'I' for Inactive)
REMARK    1  A    between atoms: C_1  and  C_2
REMARK    2  A    between atoms: C_4  and  C_5
REMARK    3  A    between atoms: C_5  and  N_6
REMARK    4  A    between atoms: N_6  and  C_7
REMARK    5  A    between atoms: C_8  and  C_10
REMARK    6  A    between atoms: C_15  and  N_16
REMARK                            x       y       z     vdW  Elec       q    Type
REMARK                         _______ _______ _______ _____ _____    ______ ____
ROOT
ATOM      1  C   UNL     1       2.275   6.475  20.011  0.00  0.00    +0.000 A 
ATOM      2  C   UNL     1       1.609   5.363  20.537  0.00  0.00    +0.000 A 
ATOM      3  C   UNL     1       2.195   4.100  20.480  0.00  0.00    +0.000 A 
ATOM      4  C   UNL     1       3.397   3.923  19.798  0.00  0.00    +0.000 A 
ATOM      5 CL   UNL     1       4.143   2.364  19.903  0.00  0.00    +0.000 Cl
ATOM      6  C   UNL     1       4.012   5.007  19.142  0.00  0.00    +0.000 A 
ATOM      7  C   UNL     1       3.464   6.292  19.284  0.00  0.00    +0.000 A 
ENDROOT
BRANCH   6   8
ATOM      8  N   UNL     1       5.153   4.800  18.335  0.00  0.00    +0.000 N 
ATOM      9  C   UNL     1       5.043   4.757  16.898  0.00  0.00    +0.000 C 
ATOM     10  C   UNL     1       6.413   4.286  16.464  0.00  0.00    +0.000 C 
ATOM     11  C   UNL     1       7.343   4.904  17.500  0.00  0.00    +0.000 C 
ATOM     12  C   UNL     1       6.463   5.045  18.728  0.00  0.00    +0.000 C 
ATOM     13  O   UNL     1       6.879   5.308  19.846  0.00  0.00    +0.000 OA
ENDBRANCH   6   8
BRANCH   1  16
ATOM     14  N   UNL     1       1.746   8.737  19.093  0.00  0.00    +0.000 N 
ATOM     15  C   UNL     1       2.147   8.406  17.728  0.00  0.00    +0.000 C 
ATOM     16  C   UNL     1       1.721   7.849  20.172  0.00  0.00    +0.000 C 
ATOM     17  O   UNL     1       1.265   8.154  21.275  0.00  0.00    +0.000 OA
BRANCH  14  18
ATOM     18  C   UNL     1       1.326  10.119  19.317  0.00  0.00    +0.000 C 
BRANCH  18  22
ATOM     19  C   UNL     1      -3.296   9.984  17.147  0.00  0.00    +0.000 C 
ATOM     20  C   UNL     1      -2.057  10.219  17.910  0.00  0.00    +0.000 A 
ATOM     21  C   UNL     1      -0.750   9.832  17.756  0.00  0.00    +0.000 A 
ATOM     22  C   UNL     1      -0.093  10.342  18.900  0.00  0.00    +0.000 A 
ATOM     23  N   UNL     1      -0.943  11.032  19.678  0.00  0.00    +0.000 NA
ATOM     24  O   UNL     1      -2.174  10.958  19.045  0.00  0.00    +0.000 OA
ENDBRANCH  18  22
ENDBRANCH  14  18
ENDBRANCH   1  16
TORSDOF 4
ENDMDL
MODEL 3
REMARK VINA RESULT:      -8.3      0.892      1.211
REMARK  Name = 
REMARK  6 active torsions:
REMARK  status: ('A' for Active; 'I' for Inactive)
REMARK    1  A    between atoms: C_1  and  C_2
REMARK    2  A    between atoms: C_4  and  C_5
REMARK    3  A    between atoms: C_5  and  N_6
REMARK    4  A    between atoms: N_6  and  C_7
REMARK    5  A    between atoms: C_8  and  C_10
REMARK    6  A    between atoms: C_15  and  N_16
REMARK                            x       y       z     vdW  Elec       q    Type
REMARK                         _______ _______ _______ _____ _____    ______ ____
ROOT
ATOM      1  C   UNL     1       4.119   6.517  17.273  0.00  0.00    +0.000 A 
ATOM      2  C   UNL     1       3.613   7.781  17.594  0.00  0.00    +0.000 A 
ATOM      3  C   UNL     1       2.660   7.922  18.600  0.00  0.00    +0.000 A 
ATOM      4  C   UNL     1       2.125   6.791  19.213  0.00  0.00    +0.000 A 
ATOM      5 CL   UNL     1       1.066   7.047  20.558  0.00  0.00    +0.000 Cl
ATOM      6  C   UNL     1       2.522   5.503  18.805  0.00  0.00    +0.000 A 
ATOM      7  C   UNL     1       3.549   5.373  17.857  0.00  0.00    +0.000 A 
ENDROOT
BRANCH   6   8
ATOM      8  N   UNL     1       1.879   4.357  19.326  0.00  0.00    +0.000 N 
ATOM      9  C   UNL     1       1.360   3.339  18.447  0.00  0.00    +0.000 C 
ATOM     10  C   UNL     1       0.566   2.453  19.382  0.00  0.00    +0.000 C 
ATOM     11  C   UNL     1       1.355   2.517  20.683  0.00  0.00    +0.000 C 
ATOM     12  C   UNL     1       2.042   3.869  20.616  0.00  0.00    +0.000 C 
ATOM     13  O   UNL     1       2.608   4.401  21.558  0.00  0.00    +0.000 OA
ENDBRANCH   6   8
BRANCH   1  16
ATOM     14  N   UNL     1       6.297   5.511  16.578  0.00  0.00    +0.000 N 
ATOM     15  C   UNL     1       6.386   4.617  17.729  0.00  0.00    +0.000 C 
ATOM     16  C   UNL     1       5.227   6.361  16.287  0.00  0.00    +0.000 C 
ATOM     17  O   UNL     1       5.155   7.009  15.243  0.00  0.00    +0.000 OA
BRANCH  14  18
ATOM     18  C   UNL     1       7.435   5.484  15.660  0.00  0.00    +0.000 C 
BRANCH  18  22
ATOM     19  C   UNL     1       5.304   2.815  11.863  0.00  0.00    +0.000 C 
ATOM     20  C   UNL     1       6.107   3.632  12.789  0.00  0.00    +0.000 A 
ATOM     21  C   UNL     1       6.109   3.815  14.148  0.00  0.00    +0.000 A 
ATOM     22  C   UNL     1       7.092   4.808  14.371  0.00  0.00    +0.000 A 
ATOM     23  N   UNL     1       7.678   5.173  13.220  0.00  0.00    +0.000 NA
ATOM     24  O   UNL     1       7.061   4.424  12.231  0.00  0.00    +0.000 OA
ENDBRANCH  18  22
ENDBRANCH  14  18
ENDBRANCH   1  16
TORSDOF 4
ENDMDL
MODEL 4
REMARK VINA RESULT:      -8.3      3.901      7.537
REMARK  Name = 
REMARK  6 active torsions:
REMARK  status: ('A' for Active; 'I' for Inactive)
REMARK    1  A    between atoms: C_1  and  C_2
REMARK    2  A    between atoms: C_4  and  C_5
REMARK    3  A    between atoms: C_5  and  N_6
REMARK    4  A    between atoms: N_6  and  C_7
REMARK    5  A    between atoms: C_8  and  C_10
REMARK    6  A    between atoms: C_15  and  N_16
REMARK                            x       y       z     vdW  Elec       q    Type
REMARK                         _______ _______ _______ _____ _____    ______ ____
ROOT
ATOM      1  C   UNL     1       2.456   7.181  18.126  0.00  0.00    +0.000 A 
ATOM      2  C   UNL     1       1.482   6.196  18.321  0.00  0.00    +0.000 A 
ATOM      3  C   UNL     1       1.836   4.849  18.333  0.00  0.00    +0.000 A 
ATOM      4  C   UNL     1       3.145   4.472  18.039  0.00  0.00    +0.000 A 
ATOM      5 CL   UNL     1       3.547   2.799  18.227  0.00  0.00    +0.000 Cl
ATOM      6  C   UNL     1       4.108   5.443  17.703  0.00  0.00    +0.000 A 
ATOM      7  C   UNL     1       3.766   6.802  17.785  0.00  0.00    +0.000 A 
ENDROOT
BRANCH   6   8
ATOM      8  N   UNL     1       5.395   5.053  17.269  0.00  0.00    +0.000 N 
ATOM      9  C   UNL     1       5.871   5.411  15.956  0.00  0.00    +0.000 C 
ATOM     10  C   UNL     1       7.147   4.609  15.824  0.00  0.00    +0.000 C 
ATOM     11  C   UNL     1       7.692   4.578  17.246  0.00  0.00    +0.000 C 
ATOM     12  C   UNL     1       6.450   4.711  18.106  0.00  0.00    +0.000 C 
ATOM     13  O   UNL     1       6.425   4.523  19.312  0.00  0.00    +0.000 OA
ENDBRANCH   6   8
BRANCH   1  16
ATOM     14  N   UNL     1       1.500   9.111  19.389  0.00  0.00    +0.000 N 
ATOM     15  C   UNL     1       1.267   8.348  20.611  0.00  0.00    +0.000 C 
ATOM     16  C   UNL     1       2.118   8.628  18.232  0.00  0.00    +0.000 C 
ATOM     17  O   UNL     1       2.391   9.349  17.272  0.00  0.00    +0.000 OA
BRANCH  14  18
ATOM     18  C   UNL     1       1.053  10.503  19.411  0.00  0.00    +0.000 C 
BRANCH  18  22
ATOM     19  C   UNL     1      -3.492  10.035  17.129  0.00  0.00    +0.000 C 
ATOM     20  C   UNL     1      -2.288  10.370  17.909  0.00  0.00    +0.000 A 
ATOM     21  C   UNL     1      -0.962  10.032  17.816  0.00  0.00    +0.000 A 
ATOM     22  C   UNL     1      -0.361  10.639  18.943  0.00  0.00    +0.000 A 
ATOM     23  N   UNL     1      -1.262  11.337  19.653  0.00  0.00    +0.000 NA
ATOM     24  O   UNL     1      -2.469  11.171  18.992  0.00  0.00    +0.000 OA
ENDBRANCH  18  22
ENDBRANCH  14  18
ENDBRANCH   1  16
TORSDOF 4
ENDMDL
MODEL 5
REMARK VINA RESULT:      -8.3      3.975      7.235
REMARK  Name = 
REMARK  6 active torsions:
REMARK  status: ('A' for Active; 'I' for Inactive)
REMARK    1  A    between atoms: C_1  and  C_2
REMARK    2  A    between atoms: C_4  and  C_5
REMARK    3  A    between atoms: C_5  and  N_6
REMARK    4  A    between atoms: N_6  and  C_7
REMARK    5  A    between atoms: C_8  and  C_10
REMARK    6  A    between atoms: C_15  and  N_16
REMARK                            x       y       z     vdW  Elec       q    Type
REMARK                         _______ _______ _______ _____ _____    ______ ____
ROOT
ATOM      1  C   UNL     1       2.592   7.656  18.240  0.00  0.00    +0.000 A 
ATOM      2  C   UNL     1       3.770   7.539  17.494  0.00  0.00    +0.000 A 
ATOM      3  C   UNL     1       4.376   6.296  17.327  0.00  0.00    +0.000 A 
ATOM      4  C   UNL     1       3.872   5.182  17.996  0.00  0.00    +0.000 A 
ATOM      5 CL   UNL     1       4.577   3.647  17.619  0.00  0.00    +0.000 Cl
ATOM      6  C   UNL     1       2.769   5.310  18.863  0.00  0.00    +0.000 A 
ATOM      7  C   UNL     1       2.109   6.546  18.952  0.00  0.00    +0.000 A 
ENDROOT
BRANCH   6   8
ATOM      8  N   UNL     1       2.346   4.214  19.648  0.00  0.00    +0.000 N 
ATOM      9  C   UNL     1       2.406   4.271  21.088  0.00  0.00    +0.000 C 
ATOM     10  C   UNL     1       2.102   2.847  21.499  0.00  0.00    +0.000 C 
ATOM     11  C   UNL     1       1.121   2.374  20.434  0.00  0.00    +0.000 C 
ATOM     12  C   UNL     1       1.477   3.216  19.223  0.00  0.00    +0.000 C 
ATOM     13  O   UNL     1       1.066   3.005  18.093  0.00  0.00    +0.000 OA
ENDBRANCH   6   8
BRANCH   1  16
ATOM     14  N   UNL     1       1.210   9.303  19.510  0.00  0.00    +0.000 N 
ATOM     15  C   UNL     1       1.280   8.568  20.769  0.00  0.00    +0.000 C 
ATOM     16  C   UNL     1       1.864   8.954  18.326  0.00  0.00    +0.000 C 
ATOM     17  O   UNL     1       1.861   9.673  17.326  0.00  0.00    +0.000 OA
BRANCH  14  18
ATOM     18  C   UNL     1       0.388  10.513  19.523  0.00  0.00    +0.000 C 
BRANCH  18  22
ATOM     19  C   UNL     1       3.024  14.857  20.033  0.00  0.00    +0.000 C 
ATOM     20  C   UNL     1       2.291  13.584  20.141  0.00  0.00    +0.000 A 
ATOM     21  C   UNL     1       1.900  12.625  19.241  0.00  0.00    +0.000 A 
ATOM     22  C   UNL     1       1.155  11.699  20.010  0.00  0.00    +0.000 A 
ATOM     23  N   UNL     1       1.133  12.056  21.304  0.00  0.00    +0.000 NA
ATOM     24  O   UNL     1       1.856  13.235  21.381  0.00  0.00    +0.000 OA
ENDBRANCH  18  22
ENDBRANCH  14  18
ENDBRANCH   1  16
TORSDOF 4
ENDMDL
MODEL 6
REMARK VINA RESULT:      -8.2      1.844      3.171
REMARK  Name = 
REMARK  6 active torsions:
REMARK  status: ('A' for Active; 'I' for Inactive)
REMARK    1  A    between atoms: C_1  and  C_2
REMARK    2  A    between atoms: C_4  and  C_5
REMARK    3  A    between atoms: C_5  and  N_6
REMARK    4  A    between atoms: N_6  and  C_7
REMARK    5  A    between atoms: C_8  and  C_10
REMARK    6  A    between atoms: C_15  and  N_16
REMARK                            x       y       z     vdW  Elec       q    Type
REMARK                         _______ _______ _______ _____ _____    ______ ____
ROOT
ATOM      1  C   UNL     1       4.794   4.859  18.609  0.00  0.00    +0.000 A 
ATOM      2  C   UNL     1       4.367   3.663  19.196  0.00  0.00    +0.000 A 
ATOM      3  C   UNL     1       3.115   3.584  19.802  0.00  0.00    +0.000 A 
ATOM      4  C   UNL     1       2.330   4.728  19.924  0.00  0.00    +0.000 A 
ATOM      5 CL   UNL     1       0.726   4.523  20.544  0.00  0.00    +0.000 Cl
ATOM      6  C   UNL     1       2.803   5.971  19.462  0.00  0.00    +0.000 A 
ATOM      7  C   UNL     1       4.024   6.024  18.770  0.00  0.00    +0.000 A 
ENDROOT
BRANCH   6   8
ATOM      8  N   UNL     1       2.070   7.153  19.710  0.00  0.00    +0.000 N 
ATOM      9  C   UNL     1       1.811   7.591  21.059  0.00  0.00    +0.000 C 
ATOM     10  C   UNL     1       0.821   8.719  20.869  0.00  0.00    +0.000 C 
ATOM     11  C   UNL     1       1.250   9.345  19.548  0.00  0.00    +0.000 C 
ATOM     12  C   UNL     1       1.907   8.196  18.806  0.00  0.00    +0.000 C 
ATOM     13  O   UNL     1       2.203   8.221  17.623  0.00  0.00    +0.000 OA
ENDBRANCH   6   8
BRANCH   1  16
ATOM     14  N   UNL     1       6.120   5.607  16.629  0.00  0.00    +0.000 N 
ATOM     15  C   UNL     1       5.040   6.406  16.060  0.00  0.00    +0.000 C 
ATOM     16  C   UNL     1       6.074   4.928  17.850  0.00  0.00    +0.000 C 
ATOM     17  O   UNL     1       7.055   4.363  18.335  0.00  0.00    +0.000 OA
BRANCH  14  18
ATOM     18  C   UNL     1       7.349   5.540  15.840  0.00  0.00    +0.000 C 
BRANCH  18  22
ATOM     19  C   UNL     1       5.620   2.841  11.863  0.00  0.00    +0.000 C 
ATOM     20  C   UNL     1       6.311   3.687  12.853  0.00  0.00    +0.000 A 
ATOM     21  C   UNL     1       6.232   3.826  14.215  0.00  0.00    +0.000 A 
ATOM     22  C   UNL     1       7.123   4.883  14.516  0.00  0.00    +0.000 A 
ATOM     23  N   UNL     1       7.736   5.328  13.407  0.00  0.00    +0.000 NA
ATOM     24  O   UNL     1       7.228   4.566  12.367  0.00  0.00    +0.000 OA
ENDBRANCH  18  22
ENDBRANCH  14  18
ENDBRANCH   1  16
TORSDOF 4
ENDMDL
MODEL 7
REMARK VINA RESULT:      -8.1      3.827      6.853
REMARK  Name = 
REMARK  6 active torsions:
REMARK  status: ('A' for Active; 'I' for Inactive)
REMARK    1  A    between atoms: C_1  and  C_2
REMARK    2  A    between atoms: C_4  and  C_5
REMARK    3  A    between atoms: C_5  and  N_6
REMARK    4  A    between atoms: N_6  and  C_7
REMARK    5  A    between atoms: C_8  and  C_10
REMARK    6  A    between atoms: C_15  and  N_16
REMARK                            x       y       z     vdW  Elec       q    Type
REMARK                         _______ _______ _______ _____ _____    ______ ____
ROOT
ATOM      1  C   UNL     1       2.754   7.824  18.139  0.00  0.00    +0.000 A 
ATOM      2  C   UNL     1       3.859   7.584  17.315  0.00  0.00    +0.000 A 
ATOM      3  C   UNL     1       4.316   6.284  17.113  0.00  0.00    +0.000 A 
ATOM      4  C   UNL     1       3.743   5.229  17.821  0.00  0.00    +0.000 A 
ATOM      5 CL   UNL     1       4.254   3.628  17.403  0.00  0.00    +0.000 Cl
ATOM      6  C   UNL     1       2.722   5.470  18.759  0.00  0.00    +0.000 A 
ATOM      7  C   UNL     1       2.204   6.769  18.887  0.00  0.00    +0.000 A 
ENDROOT
BRANCH   6   8
ATOM      8  N   UNL     1       2.239   4.423  19.576  0.00  0.00    +0.000 N 
ATOM      9  C   UNL     1       2.281   4.530  21.014  0.00  0.00    +0.000 C 
ATOM     10  C   UNL     1       1.908   3.137  21.471  0.00  0.00    +0.000 C 
ATOM     11  C   UNL     1       0.922   2.669  20.408  0.00  0.00    +0.000 C 
ATOM     12  C   UNL     1       1.333   3.450  19.174  0.00  0.00    +0.000 C 
ATOM     13  O   UNL     1       0.929   3.216  18.046  0.00  0.00    +0.000 OA
ENDBRANCH   6   8
BRANCH   1  16
ATOM     14  N   UNL     1       1.387   9.507  19.379  0.00  0.00    +0.000 N 
ATOM     15  C   UNL     1       1.173   8.651  20.542  0.00  0.00    +0.000 C 
ATOM     16  C   UNL     1       2.175   9.192  18.269  0.00  0.00    +0.000 C 
ATOM     17  O   UNL     1       2.411   9.998  17.368  0.00  0.00    +0.000 OA
BRANCH  14  18
ATOM     18  C   UNL     1       0.718  10.807  19.412  0.00  0.00    +0.000 C 
BRANCH  18  22
ATOM     19  C   UNL     1      -3.426   9.701  16.639  0.00  0.00    +0.000 C 
ATOM     20  C   UNL     1      -2.374  10.211  17.536  0.00  0.00    +0.000 A 
ATOM     21  C   UNL     1      -1.016  10.031  17.619  0.00  0.00    +0.000 A 
ATOM     22  C   UNL     1      -0.633  10.752  18.774  0.00  0.00    +0.000 A 
ATOM     23  N   UNL     1      -1.688  11.367  19.331  0.00  0.00    +0.000 NA
ATOM     24  O   UNL     1      -2.778  11.030  18.543  0.00  0.00    +0.000 OA
ENDBRANCH  18  22
ENDBRANCH  14  18
ENDBRANCH   1  16
TORSDOF 4
ENDMDL
MODEL 8
REMARK VINA RESULT:      -8.0      3.906      7.525
REMARK  Name = 
REMARK  6 active torsions:
REMARK  status: ('A' for Active; 'I' for Inactive)
REMARK    1  A    between atoms: C_1  and  C_2
REMARK    2  A    between atoms: C_4  and  C_5
REMARK    3  A    between atoms: C_5  and  N_6
REMARK    4  A    between atoms: N_6  and  C_7
REMARK    5  A    between atoms: C_8  and  C_10
REMARK    6  A    between atoms: C_15  and  N_16
REMARK                            x       y       z     vdW  Elec       q    Type
REMARK                         _______ _______ _______ _____ _____    ______ ____
ROOT
ATOM      1  C   UNL     1       2.441   7.424  18.066  0.00  0.00    +0.000 A 
ATOM      2  C   UNL     1       1.476   6.416  17.964  0.00  0.00    +0.000 A 
ATOM      3  C   UNL     1       1.858   5.076  17.947  0.00  0.00    +0.000 A 
ATOM      4  C   UNL     1       3.210   4.740  17.917  0.00  0.00    +0.000 A 
ATOM      5 CL   UNL     1       3.610   3.062  18.055  0.00  0.00    +0.000 Cl
ATOM      6  C   UNL     1       4.195   5.746  17.879  0.00  0.00    +0.000 A 
ATOM      7  C   UNL     1       3.804   7.090  17.991  0.00  0.00    +0.000 A 
ENDROOT
BRANCH   6   8
ATOM      8  N   UNL     1       5.556   5.408  17.708  0.00  0.00    +0.000 N 
ATOM      9  C   UNL     1       6.389   5.101  18.845  0.00  0.00    +0.000 C 
ATOM     10  C   UNL     1       7.777   5.042  18.246  0.00  0.00    +0.000 C 
ATOM     11  C   UNL     1       7.535   4.486  16.849  0.00  0.00    +0.000 C 
ATOM     12  C   UNL     1       6.116   4.923  16.533  0.00  0.00    +0.000 C 
ATOM     13  O   UNL     1       5.607   4.858  15.425  0.00  0.00    +0.000 OA
ENDBRANCH   6   8
BRANCH   1  16
ATOM     14  N   UNL     1       1.419   9.284  19.383  0.00  0.00    +0.000 N 
ATOM     15  C   UNL     1       1.227   8.482  20.588  0.00  0.00    +0.000 C 
ATOM     16  C   UNL     1       2.046   8.854  18.210  0.00  0.00    +0.000 C 
ATOM     17  O   UNL     1       2.282   9.608  17.266  0.00  0.00    +0.000 OA
BRANCH  14  18
ATOM     18  C   UNL     1       0.916  10.656  19.443  0.00  0.00    +0.000 C 
BRANCH  18  22
ATOM     19  C   UNL     1      -3.615   9.994  17.182  0.00  0.00    +0.000 C 
ATOM     20  C   UNL     1      -2.415  10.394  17.937  0.00  0.00    +0.000 A 
ATOM     21  C   UNL     1      -1.089  10.049  17.882  0.00  0.00    +0.000 A 
ATOM     22  C   UNL     1      -0.494  10.751  18.956  0.00  0.00    +0.000 A 
ATOM     23  N   UNL     1      -1.399  11.509  19.597  0.00  0.00    +0.000 NA
ATOM     24  O   UNL     1      -2.602  11.287  18.946  0.00  0.00    +0.000 OA
ENDBRANCH  18  22
ENDBRANCH  14  18
ENDBRANCH   1  16
TORSDOF 4
ENDMDL
MODEL 9
REMARK VINA RESULT:      -8.0      4.024      7.483
REMARK  Name = 
REMARK  6 active torsions:
REMARK  status: ('A' for Active; 'I' for Inactive)
REMARK    1  A    between atoms: C_1  and  C_2
REMARK    2  A    between atoms: C_4  and  C_5
REMARK    3  A    between atoms: C_5  and  N_6
REMARK    4  A    between atoms: N_6  and  C_7
REMARK    5  A    between atoms: C_8  and  C_10
REMARK    6  A    between atoms: C_15  and  N_16
REMARK                            x       y       z     vdW  Elec       q    Type
REMARK                         _______ _______ _______ _____ _____    ______ ____
ROOT
ATOM      1  C   UNL     1       2.174   6.709  20.079  0.00  0.00    +0.000 A 
ATOM      2  C   UNL     1       1.494   5.534  20.418  0.00  0.00    +0.000 A 
ATOM      3  C   UNL     1       2.117   4.295  20.278  0.00  0.00    +0.000 A 
ATOM      4  C   UNL     1       3.380   4.216  19.694  0.00  0.00    +0.000 A 
ATOM      5 CL   UNL     1       4.155   2.668  19.697  0.00  0.00    +0.000 Cl
ATOM      6  C   UNL     1       4.021   5.376  19.220  0.00  0.00    +0.000 A 
ATOM      7  C   UNL     1       3.427   6.627  19.449  0.00  0.00    +0.000 A 
ENDROOT
BRANCH   6   8
ATOM      8  N   UNL     1       5.236   5.280  18.504  0.00  0.00    +0.000 N 
ATOM      9  C   UNL     1       6.503   5.351  19.188  0.00  0.00    +0.000 C 
ATOM     10  C   UNL     1       7.499   5.451  18.053  0.00  0.00    +0.000 C 
ATOM     11  C   UNL     1       6.863   4.613  16.951  0.00  0.00    +0.000 C 
ATOM     12  C   UNL     1       5.377   4.705  17.248  0.00  0.00    +0.000 C 
ATOM     13  O   UNL     1       4.500   4.343  16.480  0.00  0.00    +0.000 OA
ENDBRANCH   6   8
BRANCH   1  16
ATOM     14  N   UNL     1       1.482   8.978  19.299  0.00  0.00    +0.000 N 
ATOM     15  C   UNL     1       1.803   8.723  17.898  0.00  0.00    +0.000 C 
ATOM     16  C   UNL     1       1.570   8.047  20.337  0.00  0.00    +0.000 C 
ATOM     17  O   UNL     1       1.177   8.283  21.480  0.00  0.00    +0.000 OA
BRANCH  14  18
ATOM     18  C   UNL     1       1.016  10.328  19.612  0.00  0.00    +0.000 C 
BRANCH  18  22
ATOM     19  C   UNL     1      -3.636  10.560  17.514  0.00  0.00    +0.000 C 
ATOM     20  C   UNL     1      -2.245  10.704  17.980  0.00  0.00    +0.000 A 
ATOM     21  C   UNL     1      -1.359   9.875  18.619  0.00  0.00    +0.000 A 
ATOM     22  C   UNL     1      -0.218  10.681  18.844  0.00  0.00    +0.000 A 
ATOM     23  N   UNL     1      -0.389  11.911  18.334  0.00  0.00    +0.000 NA
ATOM     24  O   UNL     1      -1.661  11.916  17.785  0.00  0.00    +0.000 OA
ENDBRANCH  18  22
ENDBRANCH  14  18
ENDBRANCH   1  16
TORSDOF 4
ENDMDL
