MODEL 1
REMARK VINA RESULT:      -7.5      0.000      0.000
REMARK  Name = 
REMARK  3 active torsions:
REMARK  status: ('A' for Active; 'I' for Inactive)
REMARK    1  A    between atoms: C_1  and  C_2
REMARK    2  A    between atoms: C_2  and  C_3
REMARK    3  A    between atoms: C_19  and  C_21
REMARK                            x       y       z     vdW  Elec       q    Type
REMARK                         _______ _______ _______ _____ _____    ______ ____
ROOT
ATOM      1  C   UNL     1       1.732  12.526  18.689  0.00  0.00    +0.000 C 
ATOM      2  C   UNL     1       0.575  11.856  19.461  0.00  0.00    +0.000 C 
ATOM      3  C   UNL     1      -0.589  11.527  18.501  0.00  0.00    +0.000 C 
ATOM      4  C   UNL     1      -1.887  11.220  19.236  0.00  0.00    +0.000 C 
ATOM      5  C   UNL     1      -2.294  12.349  20.163  0.00  0.00    +0.000 C 
ATOM      6  N   UNL     1      -1.238  12.755  21.077  0.00  0.00    +0.000 N 
ATOM      7  C   UNL     1      -1.468  13.352  22.334  0.00  0.00    +0.000 C 
ATOM      8  O   UNL     1      -0.558  13.784  23.042  0.00  0.00    +0.000 OA
ATOM      9  C   UNL     1       0.097  12.938  20.493  0.00  0.00    +0.000 C 
ENDROOT
BRANCH   2  10
ATOM     10  C   UNL     1       1.060  10.592  20.239  0.00  0.00    +0.000 C 
ATOM     11  O   UNL     1       1.029  10.601  21.476  0.00  0.00    +0.000 OA
ATOM     12  N   UNL     1       1.493   9.424  19.602  0.00  0.00    +0.000 N 
ATOM     13  C   UNL     1       1.564   9.157  18.166  0.00  0.00    +0.000 C 
ATOM     14  C   UNL     1       2.690   8.187  17.804  0.00  0.00    +0.000 C 
ATOM     15  C   UNL     1       2.555   6.927  18.589  0.00  0.00    +0.000 A 
ATOM     16  C   UNL     1       2.981   5.701  18.122  0.00  0.00    +0.000 A 
ATOM     17  N   UNL     1       2.865   4.556  18.818  0.00  0.00    +0.000 NA
ATOM     18  C   UNL     1       2.310   4.674  20.033  0.00  0.00    +0.000 A 
ATOM     19  N   UNL     1       1.870   5.812  20.594  0.00  0.00    +0.000 NA
ATOM     20  C   UNL     1       2.003   6.940  19.859  0.00  0.00    +0.000 A 
ATOM     21  C   UNL     1       1.480   8.226  20.467  0.00  0.00    +0.000 C 
ENDBRANCH   2  10
BRANCH   7  22
ATOM     22  C   UNL     1      -2.854  13.502  22.875  0.00  0.00    +0.000 A 
ATOM     23  C   UNL     1      -3.350  12.516  23.741  0.00  0.00    +0.000 A 
ATOM     24  C   UNL     1      -4.637  12.646  24.286  0.00  0.00    +0.000 A 
ATOM     25  C   UNL     1      -5.423  13.749  23.965  0.00  0.00    +0.000 A 
ATOM     26  C   UNL     1      -4.917  14.749  23.142  0.00  0.00    +0.000 A 
ATOM     27  C   UNL     1      -3.623  14.646  22.637  0.00  0.00    +0.000 A 
ENDBRANCH   7  22
TORSDOF 2
ENDMDL
MODEL 2
REMARK VINA RESULT:      -7.3      1.209      1.739
REMARK  Name = 
REMARK  3 active torsions:
REMARK  status: ('A' for Active; 'I' for Inactive)
REMARK    1  A    between atoms: C_1  and  C_2
REMARK    2  A    between atoms: C_2  and  C_3
REMARK    3  A    between atoms: C_19  and  C_21
REMARK                            x       y       z     vdW  Elec       q    Type
REMARK                         _______ _______ _______ _____ _____    ______ ____
ROOT
ATOM      1  C   UNL     1       2.202  10.793  17.952  0.00  0.00    +0.000 C 
ATOM      2  C   UNL     1       1.022  10.402  18.868  0.00  0.00    +0.000 C 
ATOM      3  C   UNL     1      -0.229  10.083  18.021  0.00  0.00    +0.000 C 
ATOM      4  C   UNL     1      -1.508  10.061  18.848  0.00  0.00    +0.000 C 
ATOM      5  C   UNL     1      -1.719  11.362  19.598  0.00  0.00    +0.000 C 
ATOM      6  N   UNL     1      -0.569  11.764  20.393  0.00  0.00    +0.000 N 
ATOM      7  C   UNL     1      -0.649  12.571  21.546  0.00  0.00    +0.000 C 
ATOM      8  O   UNL     1       0.348  12.986  22.139  0.00  0.00    +0.000 OA
ATOM      9  C   UNL     1       0.740  11.683  19.733  0.00  0.00    +0.000 C 
ENDROOT
BRANCH   2  10
ATOM     10  C   UNL     1       1.396   9.221  19.817  0.00  0.00    +0.000 C 
ATOM     11  O   UNL     1       1.126   9.311  21.021  0.00  0.00    +0.000 OA
ATOM     12  N   UNL     1       1.992   8.038  19.365  0.00  0.00    +0.000 N 
ATOM     13  C   UNL     1       2.351   7.682  17.993  0.00  0.00    +0.000 C 
ATOM     14  C   UNL     1       3.564   6.751  17.927  0.00  0.00    +0.000 C 
ATOM     15  C   UNL     1       3.330   5.541  18.765  0.00  0.00    +0.000 A 
ATOM     16  C   UNL     1       3.888   4.311  18.481  0.00  0.00    +0.000 A 
ATOM     17  N   UNL     1       3.684   3.211  19.227  0.00  0.00    +0.000 NA
ATOM     18  C   UNL     1       2.901   3.379  20.301  0.00  0.00    +0.000 A 
ATOM     19  N   UNL     1       2.315   4.526  20.681  0.00  0.00    +0.000 NA
ATOM     20  C   UNL     1       2.542   5.608  19.902  0.00  0.00    +0.000 A 
ATOM     21  C   UNL     1       1.859   6.901  20.300  0.00  0.00    +0.000 C 
ENDBRANCH   2  10
BRANCH   7  22
ATOM     22  C   UNL     1      -1.972  12.979  22.113  0.00  0.00    +0.000 A 
ATOM     23  C   UNL     1      -2.613  14.109  21.581  0.00  0.00    +0.000 A 
ATOM     24  C   UNL     1      -3.867  14.499  22.075  0.00  0.00    +0.000 A 
ATOM     25  C   UNL     1      -4.473  13.770  23.094  0.00  0.00    +0.000 A 
ATOM     26  C   UNL     1      -3.860  12.626  23.593  0.00  0.00    +0.000 A 
ATOM     27  C   UNL     1      -2.636  12.210  23.073  0.00  0.00    +0.000 A 
ENDBRANCH   7  22
TORSDOF 2
ENDMDL
MODEL 3
REMARK VINA RESULT:      -7.3      0.414      1.014
REMARK  Name = 
REMARK  3 active torsions:
REMARK  status: ('A' for Active; 'I' for Inactive)
REMARK    1  A    between atoms: C_1  and  C_2
REMARK    2  A    between atoms: C_2  and  C_3
REMARK    3  A    between atoms: C_19  and  C_21
REMARK                            x       y       z     vdW  Elec       q    Type
REMARK                         _______ _______ _______ _____ _____    ______ ____
ROOT
ATOM      1  C   UNL     1       1.867  12.020  18.575  0.00  0.00    +0.000 C 
ATOM      2  C   UNL     1       0.687  11.433  19.381  0.00  0.00    +0.000 C 
ATOM      3  C   UNL     1      -0.516  11.166  18.450  0.00  0.00    +0.000 C 
ATOM      4  C   UNL     1      -1.815  10.951  19.215  0.00  0.00    +0.000 C 
ATOM      5  C   UNL     1      -2.130  12.115  20.134  0.00  0.00    +0.000 C 
ATOM      6  N   UNL     1      -1.032  12.466  21.020  0.00  0.00    +0.000 N 
ATOM      7  C   UNL     1      -1.197  13.092  22.273  0.00  0.00    +0.000 C 
ATOM      8  O   UNL     1      -0.246  13.475  22.956  0.00  0.00    +0.000 OA
ATOM      9  C   UNL     1       0.299  12.557  20.407  0.00  0.00    +0.000 C 
ENDROOT
BRANCH   2  10
ATOM     10  C   UNL     1       1.107  10.151  20.166  0.00  0.00    +0.000 C 
ATOM     11  O   UNL     1       0.968  10.130  21.395  0.00  0.00    +0.000 OA
ATOM     12  N   UNL     1       1.601   9.001  19.541  0.00  0.00    +0.000 N 
ATOM     13  C   UNL     1       1.800   8.772  18.111  0.00  0.00    +0.000 C 
ATOM     14  C   UNL     1       2.959   7.814  17.825  0.00  0.00    +0.000 C 
ATOM     15  C   UNL     1       2.762   6.534  18.564  0.00  0.00    +0.000 A 
ATOM     16  C   UNL     1       3.234   5.322  18.105  0.00  0.00    +0.000 A 
ATOM     17  N   UNL     1       3.063   4.160  18.760  0.00  0.00    +0.000 NA
ATOM     18  C   UNL     1       2.403   4.245  19.923  0.00  0.00    +0.000 A 
ATOM     19  N   UNL     1       1.909   5.367  20.472  0.00  0.00    +0.000 NA
ATOM     20  C   UNL     1       2.100   6.513  19.780  0.00  0.00    +0.000 A 
ATOM     21  C   UNL     1       1.518   7.782  20.371  0.00  0.00    +0.000 C 
ENDBRANCH   2  10
BRANCH   7  22
ATOM     22  C   UNL     1      -2.559  13.337  22.841  0.00  0.00    +0.000 A 
ATOM     23  C   UNL     1      -3.217  14.534  22.520  0.00  0.00    +0.000 A 
ATOM     24  C   UNL     1      -4.507  14.778  23.017  0.00  0.00    +0.000 A 
ATOM     25  C   UNL     1      -5.131  13.836  23.830  0.00  0.00    +0.000 A 
ATOM     26  C   UNL     1      -4.499  12.631  24.113  0.00  0.00    +0.000 A 
ATOM     27  C   UNL     1      -3.237  12.366  23.584  0.00  0.00    +0.000 A 
ENDBRANCH   7  22
TORSDOF 2
ENDMDL
MODEL 4
REMARK VINA RESULT:      -7.3      2.717      8.564
REMARK  Name = 
REMARK  3 active torsions:
REMARK  status: ('A' for Active; 'I' for Inactive)
REMARK    1  A    between atoms: C_1  and  C_2
REMARK    2  A    between atoms: C_2  and  C_3
REMARK    3  A    between atoms: C_19  and  C_21
REMARK                            x       y       z     vdW  Elec       q    Type
REMARK                         _______ _______ _______ _____ _____    ______ ____
ROOT
ATOM      1  C   UNL     1       1.244  12.150  19.852  0.00  0.00    +0.000 C 
ATOM      2  C   UNL     1       0.697  10.710  19.730  0.00  0.00    +0.000 C 
ATOM      3  C   UNL     1       0.403  10.129  21.130  0.00  0.00    +0.000 C 
ATOM      4  C   UNL     1       0.227   8.617  21.113  0.00  0.00    +0.000 C 
ATOM      5  C   UNL     1       1.427   7.913  20.510  0.00  0.00    +0.000 C 
ATOM      6  N   UNL     1       1.803   8.428  19.203  0.00  0.00    +0.000 N 
ATOM      7  C   UNL     1       2.477   7.675  18.220  0.00  0.00    +0.000 C 
ATOM      8  O   UNL     1       2.879   8.165  17.164  0.00  0.00    +0.000 OA
ATOM      9  C   UNL     1       1.861   9.890  19.069  0.00  0.00    +0.000 C 
ENDROOT
BRANCH   2  10
ATOM     10  C   UNL     1      -0.558  10.648  18.802  0.00  0.00    +0.000 C 
ATOM     11  O   UNL     1      -0.487  10.017  17.741  0.00  0.00    +0.000 OA
ATOM     12  N   UNL     1      -1.780  11.243  19.132  0.00  0.00    +0.000 N 
ATOM     13  C   UNL     1      -2.119  11.987  20.345  0.00  0.00    +0.000 C 
ATOM     14  C   UNL     1      -3.177  13.063  20.098  0.00  0.00    +0.000 C 
ATOM     15  C   UNL     1      -4.387  12.461  19.468  0.00  0.00    +0.000 A 
ATOM     16  C   UNL     1      -5.659  12.962  19.654  0.00  0.00    +0.000 A 
ATOM     17  N   UNL     1      -6.759  12.428  19.094  0.00  0.00    +0.000 NA
ATOM     18  C   UNL     1      -6.547  11.361  18.310  0.00  0.00    +0.000 A 
ATOM     19  N   UNL     1      -5.357  10.796  18.049  0.00  0.00    +0.000 NA
ATOM     20  C   UNL     1      -4.277  11.361  18.634  0.00  0.00    +0.000 A 
ATOM     21  C   UNL     1      -2.932  10.712  18.374  0.00  0.00    +0.000 C 
ENDBRANCH   2  10
BRANCH   7  22
ATOM     22  C   UNL     1       2.753   6.218  18.419  0.00  0.00    +0.000 A 
ATOM     23  C   UNL     1       1.826   5.284  17.931  0.00  0.00    +0.000 A 
ATOM     24  C   UNL     1       2.073   3.910  18.080  0.00  0.00    +0.000 A 
ATOM     25  C   UNL     1       3.233   3.474  18.713  0.00  0.00    +0.000 A 
ATOM     26  C   UNL     1       4.174   4.396  19.158  0.00  0.00    +0.000 A 
ATOM     27  C   UNL     1       3.953   5.759  18.971  0.00  0.00    +0.000 A 
ENDBRANCH   7  22
TORSDOF 2
ENDMDL
MODEL 5
REMARK VINA RESULT:      -7.3      1.333      1.820
REMARK  Name = 
REMARK  3 active torsions:
REMARK  status: ('A' for Active; 'I' for Inactive)
REMARK    1  A    between atoms: C_1  and  C_2
REMARK    2  A    between atoms: C_2  and  C_3
REMARK    3  A    between atoms: C_19  and  C_21
REMARK                            x       y       z     vdW  Elec       q    Type
REMARK                         _______ _______ _______ _____ _____    ______ ____
ROOT
ATOM      1  C   UNL     1       2.327  10.319  17.884  0.00  0.00    +0.000 C 
ATOM      2  C   UNL     1       1.122  10.036  18.807  0.00  0.00    +0.000 C 
ATOM      3  C   UNL     1      -0.140   9.747  17.965  0.00  0.00    +0.000 C 
ATOM      4  C   UNL     1      -1.423   9.833  18.780  0.00  0.00    +0.000 C 
ATOM      5  C   UNL     1      -1.567  11.176  19.469  0.00  0.00    +0.000 C 
ATOM      6  N   UNL     1      -0.402  11.551  20.254  0.00  0.00    +0.000 N 
ATOM      7  C   UNL     1      -0.444  12.414  21.368  0.00  0.00    +0.000 C 
ATOM      8  O   UNL     1       0.570  12.801  21.950  0.00  0.00    +0.000 OA
ATOM      9  C   UNL     1       0.906  11.369  19.610  0.00  0.00    +0.000 C 
ENDROOT
BRANCH   2  10
ATOM     10  C   UNL     1       1.425   8.881  19.812  0.00  0.00    +0.000 C 
ATOM     11  O   UNL     1       1.083   9.011  20.994  0.00  0.00    +0.000 OA
ATOM     12  N   UNL     1       2.034   7.680  19.433  0.00  0.00    +0.000 N 
ATOM     13  C   UNL     1       2.473   7.278  18.097  0.00  0.00    +0.000 C 
ATOM     14  C   UNL     1       3.677   6.336  18.132  0.00  0.00    +0.000 C 
ATOM     15  C   UNL     1       3.380   5.154  18.991  0.00  0.00    +0.000 A 
ATOM     16  C   UNL     1       3.941   3.911  18.779  0.00  0.00    +0.000 A 
ATOM     17  N   UNL     1       3.681   2.836  19.544  0.00  0.00    +0.000 NA
ATOM     18  C   UNL     1       2.835   3.044  20.563  0.00  0.00    +0.000 A 
ATOM     19  N   UNL     1       2.240   4.208  20.871  0.00  0.00    +0.000 NA
ATOM     20  C   UNL     1       2.525   5.263  20.075  0.00  0.00    +0.000 A 
ATOM     21  C   UNL     1       1.833   6.574  20.391  0.00  0.00    +0.000 C 
ENDBRANCH   2  10
BRANCH   7  22
ATOM     22  C   UNL     1      -1.746  12.919  21.904  0.00  0.00    +0.000 A 
ATOM     23  C   UNL     1      -2.355  12.225  22.961  0.00  0.00    +0.000 A 
ATOM     24  C   UNL     1      -3.563  12.693  23.502  0.00  0.00    +0.000 A 
ATOM     25  C   UNL     1      -4.159  13.841  22.988  0.00  0.00    +0.000 A 
ATOM     26  C   UNL     1      -3.536  14.555  21.971  0.00  0.00    +0.000 A 
ATOM     27  C   UNL     1      -2.314  14.119  21.463  0.00  0.00    +0.000 A 
ENDBRANCH   7  22
TORSDOF 2
ENDMDL
MODEL 6
REMARK VINA RESULT:      -7.0      4.651     11.213
REMARK  Name = 
REMARK  3 active torsions:
REMARK  status: ('A' for Active; 'I' for Inactive)
REMARK    1  A    between atoms: C_1  and  C_2
REMARK    2  A    between atoms: C_2  and  C_3
REMARK    3  A    between atoms: C_19  and  C_21
REMARK                            x       y       z     vdW  Elec       q    Type
REMARK                         _______ _______ _______ _____ _____    ______ ____
ROOT
ATOM      1  C   UNL     1       5.921   5.271  19.380  0.00  0.00    +0.000 C 
ATOM      2  C   UNL     1       5.041   5.230  18.111  0.00  0.00    +0.000 C 
ATOM      3  C   UNL     1       3.963   4.133  18.244  0.00  0.00    +0.000 C 
ATOM      4  C   UNL     1       3.315   3.782  16.912  0.00  0.00    +0.000 C 
ATOM      5  C   UNL     1       4.340   3.365  15.875  0.00  0.00    +0.000 C 
ATOM      6  N   UNL     1       5.422   4.325  15.715  0.00  0.00    +0.000 N 
ATOM      7  C   UNL     1       6.171   4.479  14.530  0.00  0.00    +0.000 C 
ATOM      8  O   UNL     1       7.151   5.222  14.454  0.00  0.00    +0.000 OA
ATOM      9  C   UNL     1       6.024   4.843  16.950  0.00  0.00    +0.000 C 
ENDROOT
BRANCH   2  10
ATOM     10  C   UNL     1       4.413   6.625  17.801  0.00  0.00    +0.000 C 
ATOM     11  O   UNL     1       4.858   7.285  16.854  0.00  0.00    +0.000 OA
ATOM     12  N   UNL     1       3.337   7.154  18.521  0.00  0.00    +0.000 N 
ATOM     13  C   UNL     1       2.614   6.542  19.635  0.00  0.00    +0.000 C 
ATOM     14  C   UNL     1       2.057   7.578  20.614  0.00  0.00    +0.000 C 
ATOM     15  C   UNL     1       1.211   8.568  19.889  0.00  0.00    +0.000 A 
ATOM     16  C   UNL     1       0.143   9.216  20.476  0.00  0.00    +0.000 A 
ATOM     17  N   UNL     1      -0.630  10.110  19.834  0.00  0.00    +0.000 NA
ATOM     18  C   UNL     1      -0.289  10.358  18.561  0.00  0.00    +0.000 A 
ATOM     19  N   UNL     1       0.731   9.798  17.892  0.00  0.00    +0.000 NA
ATOM     20  C   UNL     1       1.482   8.902  18.573  0.00  0.00    +0.000 A 
ATOM     21  C   UNL     1       2.616   8.237  17.819  0.00  0.00    +0.000 C 
ENDBRANCH   2  10
BRANCH   7  22
ATOM     22  C   UNL     1       5.816   3.727  13.288  0.00  0.00    +0.000 A 
ATOM     23  C   UNL     1       4.569   3.964  12.690  0.00  0.00    +0.000 A 
ATOM     24  C   UNL     1       4.220   3.293  11.508  0.00  0.00    +0.000 A 
ATOM     25  C   UNL     1       5.107   2.389  10.931  0.00  0.00    +0.000 A 
ATOM     26  C   UNL     1       6.360   2.184  11.497  0.00  0.00    +0.000 A 
ATOM     27  C   UNL     1       6.728   2.883  12.645  0.00  0.00    +0.000 A 
ENDBRANCH   7  22
TORSDOF 2
ENDMDL
MODEL 7
REMARK VINA RESULT:      -6.8      5.937      9.860
REMARK  Name = 
REMARK  3 active torsions:
REMARK  status: ('A' for Active; 'I' for Inactive)
REMARK    1  A    between atoms: C_1  and  C_2
REMARK    2  A    between atoms: C_2  and  C_3
REMARK    3  A    between atoms: C_19  and  C_21
REMARK                            x       y       z     vdW  Elec       q    Type
REMARK                         _______ _______ _______ _____ _____    ______ ____
ROOT
ATOM      1  C   UNL     1       4.225  16.565  17.933  0.00  0.00    +0.000 C 
ATOM      2  C   UNL     1       5.249  15.842  18.835  0.00  0.00    +0.000 C 
ATOM      3  C   UNL     1       6.194  16.867  19.499  0.00  0.00    +0.000 C 
ATOM      4  C   UNL     1       7.441  16.221  20.088  0.00  0.00    +0.000 C 
ATOM      5  C   UNL     1       8.206  15.419  19.054  0.00  0.00    +0.000 C 
ATOM      6  N   UNL     1       7.380  14.454  18.345  0.00  0.00    +0.000 N 
ATOM      7  C   UNL     1       7.875  13.269  17.761  0.00  0.00    +0.000 C 
ATOM      8  O   UNL     1       7.176  12.523  17.075  0.00  0.00    +0.000 OA
ATOM      9  C   UNL     1       6.082  14.938  17.858  0.00  0.00    +0.000 C 
ENDROOT
BRANCH   2  10
ATOM     10  C   UNL     1       4.545  14.933  19.892  0.00  0.00    +0.000 C 
ATOM     11  O   UNL     1       4.878  15.027  21.079  0.00  0.00    +0.000 OA
ATOM     12  N   UNL     1       3.520  14.039  19.566  0.00  0.00    +0.000 N 
ATOM     13  C   UNL     1       2.924  13.795  18.253  0.00  0.00    +0.000 C 
ATOM     14  C   UNL     1       2.421  12.359  18.094  0.00  0.00    +0.000 C 
ATOM     15  C   UNL     1       1.477  12.020  19.196  0.00  0.00    +0.000 A 
ATOM     16  C   UNL     1       0.444  11.117  19.049  0.00  0.00    +0.000 A 
ATOM     17  N   UNL     1      -0.416  10.802  20.034  0.00  0.00    +0.000 NA
ATOM     18  C   UNL     1      -0.202  11.418  21.205  0.00  0.00    +0.000 A 
ATOM     19  N   UNL     1       0.774  12.302  21.467  0.00  0.00    +0.000 NA
ATOM     20  C   UNL     1       1.615  12.594  20.449  0.00  0.00    +0.000 A 
ATOM     21  C   UNL     1       2.700  13.616  20.721  0.00  0.00    +0.000 C 
ENDBRANCH   2  10
BRANCH   7  22
ATOM     22  C   UNL     1       9.301  12.857  17.941  0.00  0.00    +0.000 A 
ATOM     23  C   UNL     1       9.603  11.872  18.894  0.00  0.00    +0.000 A 
ATOM     24  C   UNL     1      10.930  11.447  19.065  0.00  0.00    +0.000 A 
ATOM     25  C   UNL     1      11.946  12.003  18.292  0.00  0.00    +0.000 A 
ATOM     26  C   UNL     1      11.643  12.946  17.317  0.00  0.00    +0.000 A 
ATOM     27  C   UNL     1      10.322  13.338  17.114  0.00  0.00    +0.000 A 
ENDBRANCH   7  22
TORSDOF 2
ENDMDL
MODEL 8
REMARK VINA RESULT:      -6.8      2.732      8.421
REMARK  Name = 
REMARK  3 active torsions:
REMARK  status: ('A' for Active; 'I' for Inactive)
REMARK    1  A    between atoms: C_1  and  C_2
REMARK    2  A    between atoms: C_2  and  C_3
REMARK    3  A    between atoms: C_19  and  C_21
REMARK                            x       y       z     vdW  Elec       q    Type
REMARK                         _______ _______ _______ _____ _____    ______ ____
ROOT
ATOM      1  C   UNL     1       0.512  13.076  20.082  0.00  0.00    +0.000 C 
ATOM      2  C   UNL     1       0.043  11.609  19.972  0.00  0.00    +0.000 C 
ATOM      3  C   UNL     1      -0.233  11.029  21.376  0.00  0.00    +0.000 C 
ATOM      4  C   UNL     1      -0.329   9.509  21.375  0.00  0.00    +0.000 C 
ATOM      5  C   UNL     1       0.913   8.863  20.792  0.00  0.00    +0.000 C 
ATOM      6  N   UNL     1       1.275   9.383  19.483  0.00  0.00    +0.000 N 
ATOM      7  C   UNL     1       1.998   8.655  18.516  0.00  0.00    +0.000 C 
ATOM      8  O   UNL     1       2.385   9.154  17.458  0.00  0.00    +0.000 OA
ATOM      9  C   UNL     1       1.257  10.844  19.332  0.00  0.00    +0.000 C 
ENDROOT
BRANCH   2  10
ATOM     10  C   UNL     1      -1.196  11.470  19.033  0.00  0.00    +0.000 C 
ATOM     11  O   UNL     1      -1.060  10.902  17.942  0.00  0.00    +0.000 OA
ATOM     12  N   UNL     1      -2.472  11.924  19.382  0.00  0.00    +0.000 N 
ATOM     13  C   UNL     1      -2.886  12.570  20.627  0.00  0.00    +0.000 C 
ATOM     14  C   UNL     1      -4.045  13.548  20.425  0.00  0.00    +0.000 C 
ATOM     15  C   UNL     1      -5.187  12.861  19.757  0.00  0.00    +0.000 A 
ATOM     16  C   UNL     1      -6.503  13.224  19.957  0.00  0.00    +0.000 A 
ATOM     17  N   UNL     1      -7.543  12.613  19.363  0.00  0.00    +0.000 NA
ATOM     18  C   UNL     1      -7.225  11.613  18.530  0.00  0.00    +0.000 A 
ATOM     19  N   UNL     1      -5.985  11.181  18.250  0.00  0.00    +0.000 NA
ATOM     20  C   UNL     1      -4.967  11.820  18.871  0.00  0.00    +0.000 A 
ATOM     21  C   UNL     1      -3.564  11.320  18.590  0.00  0.00    +0.000 C 
ENDBRANCH   2  10
BRANCH   7  22
ATOM     22  C   UNL     1       2.349   7.217  18.735  0.00  0.00    +0.000 A 
ATOM     23  C   UNL     1       2.982   6.513  17.699  0.00  0.00    +0.000 A 
ATOM     24  C   UNL     1       3.347   5.171  17.887  0.00  0.00    +0.000 A 
ATOM     25  C   UNL     1       3.078   4.537  19.097  0.00  0.00    +0.000 A 
ATOM     26  C   UNL     1       2.490   5.245  20.139  0.00  0.00    +0.000 A 
ATOM     27  C   UNL     1       2.168   6.590  19.972  0.00  0.00    +0.000 A 
ENDBRANCH   7  22
TORSDOF 2
ENDMDL
MODEL 9
REMARK VINA RESULT:      -6.7      2.529      5.066
REMARK  Name = 
REMARK  3 active torsions:
REMARK  status: ('A' for Active; 'I' for Inactive)
REMARK    1  A    between atoms: C_1  and  C_2
REMARK    2  A    between atoms: C_2  and  C_3
REMARK    3  A    between atoms: C_19  and  C_21
REMARK                            x       y       z     vdW  Elec       q    Type
REMARK                         _______ _______ _______ _____ _____    ______ ____
ROOT
ATOM      1  C   UNL     1      -1.534  10.505  18.894  0.00  0.00    +0.000 C 
ATOM      2  C   UNL     1      -0.415  11.062  19.801  0.00  0.00    +0.000 C 
ATOM      3  C   UNL     1      -1.014  11.984  20.885  0.00  0.00    +0.000 C 
ATOM      4  C   UNL     1       0.036  12.852  21.564  0.00  0.00    +0.000 C 
ATOM      5  C   UNL     1       0.818  13.682  20.564  0.00  0.00    +0.000 C 
ATOM      6  N   UNL     1       1.385  12.896  19.479  0.00  0.00    +0.000 N 
ATOM      7  C   UNL     1       2.536  13.266  18.754  0.00  0.00    +0.000 C 
ATOM      8  O   UNL     1       2.934  12.639  17.771  0.00  0.00    +0.000 OA
ATOM      9  C   UNL     1       0.492  11.917  18.846  0.00  0.00    +0.000 C 
ENDROOT
BRANCH   2  10
ATOM     10  C   UNL     1       0.443   9.916  20.425  0.00  0.00    +0.000 C 
ATOM     11  O   UNL     1       0.427   9.757  21.652  0.00  0.00    +0.000 OA
ATOM     12  N   UNL     1       1.204   9.029  19.657  0.00  0.00    +0.000 N 
ATOM     13  C   UNL     1       1.334   8.984  18.201  0.00  0.00    +0.000 C 
ATOM     14  C   UNL     1       2.698   8.458  17.749  0.00  0.00    +0.000 C 
ATOM     15  C   UNL     1       2.965   7.127  18.364  0.00  0.00    +0.000 A 
ATOM     16  C   UNL     1       3.740   6.160  17.757  0.00  0.00    +0.000 A 
ATOM     17  N   UNL     1       3.988   4.955  18.299  0.00  0.00    +0.000 NA
ATOM     18  C   UNL     1       3.440   4.741  19.503  0.00  0.00    +0.000 A 
ATOM     19  N   UNL     1       2.681   5.608  20.192  0.00  0.00    +0.000 NA
ATOM     20  C   UNL     1       2.453   6.807  19.610  0.00  0.00    +0.000 A 
ATOM     21  C   UNL     1       1.569   7.782  20.362  0.00  0.00    +0.000 C 
ENDBRANCH   2  10
BRANCH   7  22
ATOM     22  C   UNL     1       3.342  14.465  19.142  0.00  0.00    +0.000 A 
ATOM     23  C   UNL     1       3.247  15.623  18.356  0.00  0.00    +0.000 A 
ATOM     24  C   UNL     1       3.971  16.772  18.713  0.00  0.00    +0.000 A 
ATOM     25  C   UNL     1       4.785  16.761  19.842  0.00  0.00    +0.000 A 
ATOM     26  C   UNL     1       4.847  15.629  20.646  0.00  0.00    +0.000 A 
ATOM     27  C   UNL     1       4.094  14.502  20.321  0.00  0.00    +0.000 A 
ENDBRANCH   7  22
TORSDOF 2
ENDMDL
