MODEL 1
REMARK VINA RESULT:      -7.4      0.000      0.000
REMARK  Name = 
REMARK  7 active torsions:
REMARK  status: ('A' for Active; 'I' for Inactive)
REMARK    1  A    between atoms: C_1  and  C_2
REMARK    2  A    between atoms: C_2  and  O_3
REMARK    3  A    between atoms: C_2  and  C_4
REMARK    4  A    between atoms: C_4  and  N_5
REMARK    5  A    between atoms: C_4  and  C_6
REMARK    6  A    between atoms: C_10  and  C_11
REMARK    7  A    between atoms: C_14  and  C_15
REMARK                            x       y       z     vdW  Elec       q    Type
REMARK                         _______ _______ _______ _____ _____    ______ ____
ROOT
ATOM      1  C   UNL     1       6.045   4.855  15.448  0.00  0.00    +0.000 A 
ATOM      2  N   UNL     1       5.693   6.103  15.683  0.00  0.00    +0.000 NA
ATOM      3  C   UNL     1       4.702   6.033  16.624  0.00  0.00    +0.000 A 
ATOM      4  C   UNL     1       3.965   7.067  17.216  0.00  0.00    +0.000 A 
ATOM      5  C   UNL     1       2.973   6.772  18.173  0.00  0.00    +0.000 A 
ATOM      6  C   UNL     1       2.749   5.416  18.494  0.00  0.00    +0.000 A 
ATOM      7  C   UNL     1       3.482   4.363  17.923  0.00  0.00    +0.000 A 
ATOM      8  C   UNL     1       4.453   4.719  16.991  0.00  0.00    +0.000 A 
ATOM      9  N   UNL     1       5.346   3.988  16.254  0.00  0.00    +0.000 N 
ATOM     10  H   UNL     1       5.470   2.986  16.284  0.00  0.00    +0.000 HD
ENDROOT
BRANCH   5  11
ATOM     11  C   UNL     1       2.222   7.862  18.841  0.00  0.00    +0.000 A 
ATOM     12  C   UNL     1       1.833   7.770  20.191  0.00  0.00    +0.000 A 
ATOM     13  C   UNL     1       1.067   8.771  20.801  0.00  0.00    +0.000 A 
ATOM     14  C   UNL     1       0.689   9.902  20.076  0.00  0.00    +0.000 A 
ATOM     15  C   UNL     1       1.084  10.028  18.745  0.00  0.00    +0.000 A 
ATOM     16  C   UNL     1       1.835   9.018  18.137  0.00  0.00    +0.000 A 
BRANCH  14  17
ATOM     17  C   UNL     1      -0.111  10.917  20.690  0.00  0.00    +0.000 C 
ATOM     18  N   UNL     1      -0.760  11.744  21.184  0.00  0.00    +0.000 NA
ENDBRANCH  14  17
ENDBRANCH   5  11
BRANCH   1  19
ATOM     19  C   UNL     1       7.040   4.381  14.439  0.00  0.00    +0.000 C 
BRANCH  19  20
ATOM     20  N   UNL     1       7.839   5.524  13.962  0.00  0.00    +0.000 NA
ATOM     21  H   UNL     1       7.855   5.468  12.938  0.00  0.00    +0.000 HD
ATOM     22  H   UNL     1       8.812   5.336  14.226  0.00  0.00    +0.000 HD
ENDBRANCH  19  20
BRANCH  19  24
ATOM     23  C   UNL     1       6.993   3.972  11.904  0.00  0.00    +0.000 C 
ATOM     24  C   UNL     1       6.350   3.651  13.252  0.00  0.00    +0.000 C 
BRANCH  24  25
ATOM     25  O   UNL     1       4.964   4.036  13.199  0.00  0.00    +0.000 OA
ATOM     26  H   UNL     1       4.727   4.407  14.066  0.00  0.00    +0.000 HD
ENDBRANCH  24  25
ENDBRANCH  19  24
ENDBRANCH   1  19
TORSDOF 6
ENDMDL
MODEL 2
REMARK VINA RESULT:      -7.4      0.177      1.041
REMARK  Name = 
REMARK  7 active torsions:
REMARK  status: ('A' for Active; 'I' for Inactive)
REMARK    1  A    between atoms: C_1  and  C_2
REMARK    2  A    between atoms: C_2  and  O_3
REMARK    3  A    between atoms: C_2  and  C_4
REMARK    4  A    between atoms: C_4  and  N_5
REMARK    5  A    between atoms: C_4  and  C_6
REMARK    6  A    between atoms: C_10  and  C_11
REMARK    7  A    between atoms: C_14  and  C_15
REMARK                            x       y       z     vdW  Elec       q    Type
REMARK                         _______ _______ _______ _____ _____    ______ ____
ROOT
ATOM      1  C   UNL     1       6.107   4.815  15.482  0.00  0.00    +0.000 A 
ATOM      2  N   UNL     1       5.683   6.047  15.681  0.00  0.00    +0.000 NA
ATOM      3  C   UNL     1       4.737   5.954  16.665  0.00  0.00    +0.000 A 
ATOM      4  C   UNL     1       3.958   6.964  17.245  0.00  0.00    +0.000 A 
ATOM      5  C   UNL     1       3.026   6.646  18.255  0.00  0.00    +0.000 A 
ATOM      6  C   UNL     1       2.904   5.294  18.638  0.00  0.00    +0.000 A 
ATOM      7  C   UNL     1       3.681   4.266  18.079  0.00  0.00    +0.000 A 
ATOM      8  C   UNL     1       4.589   4.644  17.094  0.00  0.00    +0.000 A 
ATOM      9  N   UNL     1       5.499   3.940  16.350  0.00  0.00    +0.000 N 
ATOM     10  H   UNL     1       5.689   2.951  16.416  0.00  0.00    +0.000 HD
ENDROOT
BRANCH   5  11
ATOM     11  C   UNL     1       2.232   7.714  18.908  0.00  0.00    +0.000 A 
ATOM     12  C   UNL     1       1.864   8.886  18.220  0.00  0.00    +0.000 A 
ATOM     13  C   UNL     1       1.171   9.922  18.857  0.00  0.00    +0.000 A 
ATOM     14  C   UNL     1       0.812   9.801  20.200  0.00  0.00    +0.000 A 
ATOM     15  C   UNL     1       1.143   8.639  20.897  0.00  0.00    +0.000 A 
ATOM     16  C   UNL     1       1.849   7.615  20.259  0.00  0.00    +0.000 A 
BRANCH  14  17
ATOM     17  C   UNL     1       0.123  10.866  20.861  0.00  0.00    +0.000 C 
ATOM     18  N   UNL     1      -0.439  11.732  21.395  0.00  0.00    +0.000 NA
ENDBRANCH  14  17
ENDBRANCH   5  11
BRANCH   1  19
ATOM     19  C   UNL     1       7.091   4.363  14.452  0.00  0.00    +0.000 C 
BRANCH  19  20
ATOM     20  N   UNL     1       7.871   5.519  13.975  0.00  0.00    +0.000 NA
ATOM     21  H   UNL     1       8.833   5.192  13.838  0.00  0.00    +0.000 HD
ATOM     22  H   UNL     1       7.950   6.169  14.764  0.00  0.00    +0.000 HD
ENDBRANCH  19  20
BRANCH  19  24
ATOM     23  C   UNL     1       7.007   3.984  11.913  0.00  0.00    +0.000 C 
ATOM     24  C   UNL     1       6.389   3.640  13.267  0.00  0.00    +0.000 C 
BRANCH  24  25
ATOM     25  O   UNL     1       4.999   4.011  13.241  0.00  0.00    +0.000 OA
ATOM     26  H   UNL     1       4.479   3.224  13.480  0.00  0.00    +0.000 HD
ENDBRANCH  24  25
ENDBRANCH  19  24
ENDBRANCH   1  19
TORSDOF 6
ENDMDL
MODEL 3
REMARK VINA RESULT:      -7.3      1.458      1.773
REMARK  Name = 
REMARK  7 active torsions:
REMARK  status: ('A' for Active; 'I' for Inactive)
REMARK    1  A    between atoms: C_1  and  C_2
REMARK    2  A    between atoms: C_2  and  O_3
REMARK    3  A    between atoms: C_2  and  C_4
REMARK    4  A    between atoms: C_4  and  N_5
REMARK    5  A    between atoms: C_4  and  C_6
REMARK    6  A    between atoms: C_10  and  C_11
REMARK    7  A    between atoms: C_14  and  C_15
REMARK                            x       y       z     vdW  Elec       q    Type
REMARK                         _______ _______ _______ _____ _____    ______ ____
ROOT
ATOM      1  C   UNL     1       5.540   5.093  16.888  0.00  0.00    +0.000 A 
ATOM      2  N   UNL     1       4.967   6.252  16.627  0.00  0.00    +0.000 NA
ATOM      3  C   UNL     1       4.074   6.455  17.644  0.00  0.00    +0.000 A 
ATOM      4  C   UNL     1       3.190   7.523  17.848  0.00  0.00    +0.000 A 
ATOM      5  C   UNL     1       2.341   7.533  18.973  0.00  0.00    +0.000 A 
ATOM      6  C   UNL     1       2.407   6.438  19.860  0.00  0.00    +0.000 A 
ATOM      7  C   UNL     1       3.292   5.361  19.682  0.00  0.00    +0.000 A 
ATOM      8  C   UNL     1       4.110   5.413  18.558  0.00  0.00    +0.000 A 
ATOM      9  N   UNL     1       5.079   4.573  18.074  0.00  0.00    +0.000 N 
ATOM     10  H   UNL     1       5.397   3.716  18.502  0.00  0.00    +0.000 HD
ENDROOT
BRANCH   5  11
ATOM     11  C   UNL     1       1.438   8.682  19.224  0.00  0.00    +0.000 A 
ATOM     12  C   UNL     1       0.971   8.985  20.518  0.00  0.00    +0.000 A 
ATOM     13  C   UNL     1       0.067  10.029  20.745  0.00  0.00    +0.000 A 
ATOM     14  C   UNL     1      -0.379  10.811  19.678  0.00  0.00    +0.000 A 
ATOM     15  C   UNL     1       0.088  10.547  18.390  0.00  0.00    +0.000 A 
ATOM     16  C   UNL     1       0.979   9.493  18.169  0.00  0.00    +0.000 A 
BRANCH  14  17
ATOM     17  C   UNL     1      -1.320  11.866  19.901  0.00  0.00    +0.000 C 
ATOM     18  N   UNL     1      -2.087  12.720  20.081  0.00  0.00    +0.000 NA
ENDBRANCH  14  17
ENDBRANCH   5  11
BRANCH   1  19
ATOM     19  C   UNL     1       6.539   4.378  16.038  0.00  0.00    +0.000 C 
BRANCH  19  20
ATOM     20  N   UNL     1       7.878   4.501  16.643  0.00  0.00    +0.000 NA
ATOM     21  H   UNL     1       8.336   5.298  16.190  0.00  0.00    +0.000 HD
ATOM     22  H   UNL     1       8.424   3.696  16.319  0.00  0.00    +0.000 HD
ENDBRANCH  19  20
BRANCH  19  24
ATOM     23  C   UNL     1       6.208   3.835  13.549  0.00  0.00    +0.000 C 
ATOM     24  C   UNL     1       6.538   4.915  14.578  0.00  0.00    +0.000 C 
BRANCH  24  25
ATOM     25  O   UNL     1       7.836   5.456  14.270  0.00  0.00    +0.000 OA
ATOM     26  H   UNL     1       7.806   6.413  14.443  0.00  0.00    +0.000 HD
ENDBRANCH  24  25
ENDBRANCH  19  24
ENDBRANCH   1  19
TORSDOF 6
ENDMDL
MODEL 4
REMARK VINA RESULT:      -7.2      1.461      2.041
REMARK  Name = 
REMARK  7 active torsions:
REMARK  status: ('A' for Active; 'I' for Inactive)
REMARK    1  A    between atoms: C_1  and  C_2
REMARK    2  A    between atoms: C_2  and  O_3
REMARK    3  A    between atoms: C_2  and  C_4
REMARK    4  A    between atoms: C_4  and  N_5
REMARK    5  A    between atoms: C_4  and  C_6
REMARK    6  A    between atoms: C_10  and  C_11
REMARK    7  A    between atoms: C_14  and  C_15
REMARK                            x       y       z     vdW  Elec       q    Type
REMARK                         _______ _______ _______ _____ _____    ______ ____
ROOT
ATOM      1  C   UNL     1       5.471   4.974  16.944  0.00  0.00    +0.000 A 
ATOM      2  N   UNL     1       4.914   6.141  16.687  0.00  0.00    +0.000 NA
ATOM      3  C   UNL     1       4.035   6.360  17.714  0.00  0.00    +0.000 A 
ATOM      4  C   UNL     1       3.170   7.442  17.925  0.00  0.00    +0.000 A 
ATOM      5  C   UNL     1       2.333   7.467  19.060  0.00  0.00    +0.000 A 
ATOM      6  C   UNL     1       2.392   6.372  19.948  0.00  0.00    +0.000 A 
ATOM      7  C   UNL     1       3.259   5.282  19.762  0.00  0.00    +0.000 A 
ATOM      8  C   UNL     1       4.065   5.319  18.629  0.00  0.00    +0.000 A 
ATOM      9  N   UNL     1       5.015   4.464  18.136  0.00  0.00    +0.000 N 
ATOM     10  H   UNL     1       5.325   3.602  18.562  0.00  0.00    +0.000 HD
ENDROOT
BRANCH   5  11
ATOM     11  C   UNL     1       1.451   8.630  19.318  0.00  0.00    +0.000 A 
ATOM     12  C   UNL     1       1.102   9.533  18.295  0.00  0.00    +0.000 A 
ATOM     13  C   UNL     1       0.323  10.667  18.554  0.00  0.00    +0.000 A 
ATOM     14  C   UNL     1      -0.143  10.914  19.845  0.00  0.00    +0.000 A 
ATOM     15  C   UNL     1       0.167  10.022  20.871  0.00  0.00    +0.000 A 
ATOM     16  C   UNL     1       0.959   8.900  20.609  0.00  0.00    +0.000 A 
BRANCH  14  17
ATOM     17  C   UNL     1      -0.922  12.083  20.119  0.00  0.00    +0.000 C 
ATOM     18  N   UNL     1      -1.550  13.035  20.341  0.00  0.00    +0.000 NA
ENDBRANCH  14  17
ENDBRANCH   5  11
BRANCH   1  19
ATOM     19  C   UNL     1       6.450   4.243  16.084  0.00  0.00    +0.000 C 
BRANCH  19  20
ATOM     20  N   UNL     1       7.771   4.237  16.737  0.00  0.00    +0.000 NA
ATOM     21  H   UNL     1       8.133   5.195  16.681  0.00  0.00    +0.000 HD
ATOM     22  H   UNL     1       8.401   3.708  16.126  0.00  0.00    +0.000 HD
ENDBRANCH  19  20
BRANCH  19  24
ATOM     23  C   UNL     1       6.241   3.849  13.554  0.00  0.00    +0.000 C 
ATOM     24  C   UNL     1       6.536   4.861  14.660  0.00  0.00    +0.000 C 
BRANCH  24  25
ATOM     25  O   UNL     1       7.858   5.391  14.451  0.00  0.00    +0.000 OA
ATOM     26  H   UNL     1       8.251   4.917  13.699  0.00  0.00    +0.000 HD
ENDBRANCH  24  25
ENDBRANCH  19  24
ENDBRANCH   1  19
TORSDOF 6
ENDMDL
MODEL 5
REMARK VINA RESULT:      -7.2      3.517      4.524
REMARK  Name = 
REMARK  7 active torsions:
REMARK  status: ('A' for Active; 'I' for Inactive)
REMARK    1  A    between atoms: C_1  and  C_2
REMARK    2  A    between atoms: C_2  and  O_3
REMARK    3  A    between atoms: C_2  and  C_4
REMARK    4  A    between atoms: C_4  and  N_5
REMARK    5  A    between atoms: C_4  and  C_6
REMARK    6  A    between atoms: C_10  and  C_11
REMARK    7  A    between atoms: C_14  and  C_15
REMARK                            x       y       z     vdW  Elec       q    Type
REMARK                         _______ _______ _______ _____ _____    ______ ____
ROOT
ATOM      1  C   UNL     1       3.345   4.657  19.378  0.00  0.00    +0.000 A 
ATOM      2  N   UNL     1       2.659   5.103  20.411  0.00  0.00    +0.000 NA
ATOM      3  C   UNL     1       2.261   6.367  20.067  0.00  0.00    +0.000 A 
ATOM      4  C   UNL     1       1.519   7.296  20.809  0.00  0.00    +0.000 A 
ATOM      5  C   UNL     1       1.220   8.561  20.262  0.00  0.00    +0.000 A 
ATOM      6  C   UNL     1       1.701   8.850  18.968  0.00  0.00    +0.000 A 
ATOM      7  C   UNL     1       2.437   7.931  18.201  0.00  0.00    +0.000 A 
ATOM      8  C   UNL     1       2.693   6.698  18.792  0.00  0.00    +0.000 A 
ATOM      9  N   UNL     1       3.352   5.578  18.358  0.00  0.00    +0.000 N 
ATOM     10  H   UNL     1       3.778   5.447  17.452  0.00  0.00    +0.000 HD
ENDROOT
BRANCH   5  11
ATOM     11  C   UNL     1       0.394   9.531  21.019  0.00  0.00    +0.000 A 
ATOM     12  C   UNL     1       0.081   9.332  22.377  0.00  0.00    +0.000 A 
ATOM     13  C   UNL     1      -0.753  10.214  23.074  0.00  0.00    +0.000 A 
ATOM     14  C   UNL     1      -1.280  11.334  22.428  0.00  0.00    +0.000 A 
ATOM     15  C   UNL     1      -0.964  11.568  21.090  0.00  0.00    +0.000 A 
ATOM     16  C   UNL     1      -0.144  10.673  20.397  0.00  0.00    +0.000 A 
BRANCH  14  17
ATOM     17  C   UNL     1      -2.150  12.228  23.130  0.00  0.00    +0.000 C 
ATOM     18  N   UNL     1      -2.859  12.954  23.696  0.00  0.00    +0.000 NA
ENDBRANCH  14  17
ENDBRANCH   5  11
BRANCH   1  19
ATOM     19  C   UNL     1       4.062   3.350  19.279  0.00  0.00    +0.000 C 
BRANCH  19  20
ATOM     20  N   UNL     1       5.487   3.591  18.987  0.00  0.00    +0.000 NA
ATOM     21  H   UNL     1       5.883   4.059  19.808  0.00  0.00    +0.000 HD
ATOM     22  H   UNL     1       5.523   4.313  18.260  0.00  0.00    +0.000 HD
ENDBRANCH  19  20
BRANCH  19  24
ATOM     23  C   UNL     1       1.934   2.181  18.441  0.00  0.00    +0.000 C 
ATOM     24  C   UNL     1       3.424   2.426  18.204  0.00  0.00    +0.000 C 
BRANCH  24  25
ATOM     25  O   UNL     1       4.100   1.155  18.207  0.00  0.00    +0.000 OA
ATOM     26  H   UNL     1       3.464   0.482  18.504  0.00  0.00    +0.000 HD
ENDBRANCH  24  25
ENDBRANCH  19  24
ENDBRANCH   1  19
TORSDOF 6
ENDMDL
MODEL 6
REMARK VINA RESULT:      -7.1      3.404      4.485
REMARK  Name = 
REMARK  7 active torsions:
REMARK  status: ('A' for Active; 'I' for Inactive)
REMARK    1  A    between atoms: C_1  and  C_2
REMARK    2  A    between atoms: C_2  and  O_3
REMARK    3  A    between atoms: C_2  and  C_4
REMARK    4  A    between atoms: C_4  and  N_5
REMARK    5  A    between atoms: C_4  and  C_6
REMARK    6  A    between atoms: C_10  and  C_11
REMARK    7  A    between atoms: C_14  and  C_15
REMARK                            x       y       z     vdW  Elec       q    Type
REMARK                         _______ _______ _______ _____ _____    ______ ____
ROOT
ATOM      1  C   UNL     1       3.455   4.703  19.226  0.00  0.00    +0.000 A 
ATOM      2  N   UNL     1       2.798   5.172  20.268  0.00  0.00    +0.000 NA
ATOM      3  C   UNL     1       2.365   6.417  19.897  0.00  0.00    +0.000 A 
ATOM      4  C   UNL     1       1.633   7.357  20.635  0.00  0.00    +0.000 A 
ATOM      5  C   UNL     1       1.291   8.597  20.057  0.00  0.00    +0.000 A 
ATOM      6  C   UNL     1       1.720   8.851  18.737  0.00  0.00    +0.000 A 
ATOM      7  C   UNL     1       2.445   7.920  17.975  0.00  0.00    +0.000 A 
ATOM      8  C   UNL     1       2.745   6.712  18.597  0.00  0.00    +0.000 A 
ATOM      9  N   UNL     1       3.408   5.589  18.176  0.00  0.00    +0.000 N 
ATOM     10  H   UNL     1       3.804   5.435  17.260  0.00  0.00    +0.000 HD
ENDROOT
BRANCH   5  11
ATOM     11  C   UNL     1       0.475   9.579  20.811  0.00  0.00    +0.000 A 
ATOM     12  C   UNL     1       0.060  10.793  20.231  0.00  0.00    +0.000 A 
ATOM     13  C   UNL     1      -0.654  11.748  20.964  0.00  0.00    +0.000 A 
ATOM     14  C   UNL     1      -0.987  11.500  22.297  0.00  0.00    +0.000 A 
ATOM     15  C   UNL     1      -0.609  10.295  22.887  0.00  0.00    +0.000 A 
ATOM     16  C   UNL     1       0.117   9.352  22.153  0.00  0.00    +0.000 A 
BRANCH  14  17
ATOM     17  C   UNL     1      -1.698  12.482  23.057  0.00  0.00    +0.000 C 
ATOM     18  N   UNL     1      -2.272  13.283  23.674  0.00  0.00    +0.000 NA
ENDBRANCH  14  17
ENDBRANCH   5  11
BRANCH   1  19
ATOM     19  C   UNL     1       4.192   3.406  19.144  0.00  0.00    +0.000 C 
BRANCH  19  20
ATOM     20  N   UNL     1       5.614   3.665  18.853  0.00  0.00    +0.000 NA
ATOM     21  H   UNL     1       5.692   4.660  18.620  0.00  0.00    +0.000 HD
ATOM     22  H   UNL     1       5.826   3.194  17.968  0.00  0.00    +0.000 HD
ENDBRANCH  19  20
BRANCH  19  24
ATOM     23  C   UNL     1       2.049   2.366  18.182  0.00  0.00    +0.000 C 
ATOM     24  C   UNL     1       3.570   2.460  18.078  0.00  0.00    +0.000 C 
BRANCH  24  25
ATOM     25  O   UNL     1       4.120   1.139  18.236  0.00  0.00    +0.000 OA
ATOM     26  H   UNL     1       3.377   0.512  18.274  0.00  0.00    +0.000 HD
ENDBRANCH  24  25
ENDBRANCH  19  24
ENDBRANCH   1  19
TORSDOF 6
ENDMDL
MODEL 7
REMARK VINA RESULT:      -7.0      2.514      3.989
REMARK  Name = 
REMARK  7 active torsions:
REMARK  status: ('A' for Active; 'I' for Inactive)
REMARK    1  A    between atoms: C_1  and  C_2
REMARK    2  A    between atoms: C_2  and  O_3
REMARK    3  A    between atoms: C_2  and  C_4
REMARK    4  A    between atoms: C_4  and  N_5
REMARK    5  A    between atoms: C_4  and  C_6
REMARK    6  A    between atoms: C_10  and  C_11
REMARK    7  A    between atoms: C_14  and  C_15
REMARK                            x       y       z     vdW  Elec       q    Type
REMARK                         _______ _______ _______ _____ _____    ______ ____
ROOT
ATOM      1  C   UNL     1       3.833   5.394  18.538  0.00  0.00    +0.000 A 
ATOM      2  N   UNL     1       3.210   5.685  19.662  0.00  0.00    +0.000 NA
ATOM      3  C   UNL     1       2.594   6.886  19.438  0.00  0.00    +0.000 A 
ATOM      4  C   UNL     1       1.812   7.658  20.308  0.00  0.00    +0.000 A 
ATOM      5  C   UNL     1       1.269   8.884  19.872  0.00  0.00    +0.000 A 
ATOM      6  C   UNL     1       1.553   9.299  18.554  0.00  0.00    +0.000 A 
ATOM      7  C   UNL     1       2.325   8.538  17.661  0.00  0.00    +0.000 A 
ATOM      8  C   UNL     1       2.825   7.334  18.147  0.00  0.00    +0.000 A 
ATOM      9  N   UNL     1       3.589   6.348  17.579  0.00  0.00    +0.000 N 
ATOM     10  H   UNL     1       3.925   6.324  16.628  0.00  0.00    +0.000 HD
ENDROOT
BRANCH   5  11
ATOM     11  C   UNL     1       0.400   9.683  20.769  0.00  0.00    +0.000 A 
ATOM     12  C   UNL     1       0.170   9.302  22.105  0.00  0.00    +0.000 A 
ATOM     13  C   UNL     1      -0.702  10.020  22.931  0.00  0.00    +0.000 A 
ATOM     14  C   UNL     1      -1.353  11.154  22.442  0.00  0.00    +0.000 A 
ATOM     15  C   UNL     1      -1.124  11.566  21.130  0.00  0.00    +0.000 A 
ATOM     16  C   UNL     1      -0.263  10.835  20.306  0.00  0.00    +0.000 A 
BRANCH  14  17
ATOM     17  C   UNL     1      -2.263  11.879  23.276  0.00  0.00    +0.000 C 
ATOM     18  N   UNL     1      -3.005  12.466  23.950  0.00  0.00    +0.000 NA
ENDBRANCH  14  17
ENDBRANCH   5  11
BRANCH   1  19
ATOM     19  C   UNL     1       4.720   4.218  18.285  0.00  0.00    +0.000 C 
BRANCH  19  20
ATOM     20  N   UNL     1       5.130   3.625  19.571  0.00  0.00    +0.000 NA
ATOM     21  H   UNL     1       6.128   3.829  19.687  0.00  0.00    +0.000 HD
ATOM     22  H   UNL     1       5.106   2.608  19.450  0.00  0.00    +0.000 HD
ENDBRANCH  19  20
BRANCH  19  24
ATOM     23  C   UNL     1       5.928   4.007  16.029  0.00  0.00    +0.000 C 
ATOM     24  C   UNL     1       5.961   4.608  17.433  0.00  0.00    +0.000 C 
BRANCH  24  25
ATOM     25  O   UNL     1       7.155   4.154  18.096  0.00  0.00    +0.000 OA
ATOM     26  H   UNL     1       7.823   4.856  18.016  0.00  0.00    +0.000 HD
ENDBRANCH  24  25
ENDBRANCH  19  24
ENDBRANCH   1  19
TORSDOF 6
ENDMDL
MODEL 8
REMARK VINA RESULT:      -7.0      1.031      1.136
REMARK  Name = 
REMARK  7 active torsions:
REMARK  status: ('A' for Active; 'I' for Inactive)
REMARK    1  A    between atoms: C_1  and  C_2
REMARK    2  A    between atoms: C_2  and  O_3
REMARK    3  A    between atoms: C_2  and  C_4
REMARK    4  A    between atoms: C_4  and  N_5
REMARK    5  A    between atoms: C_4  and  C_6
REMARK    6  A    between atoms: C_10  and  C_11
REMARK    7  A    between atoms: C_14  and  C_15
REMARK                            x       y       z     vdW  Elec       q    Type
REMARK                         _______ _______ _______ _____ _____    ______ ____
ROOT
ATOM      1  C   UNL     1       6.399   4.740  14.649  0.00  0.00    +0.000 A 
ATOM      2  N   UNL     1       5.950   5.941  14.959  0.00  0.00    +0.000 NA
ATOM      3  C   UNL     1       5.077   5.747  15.996  0.00  0.00    +0.000 A 
ATOM      4  C   UNL     1       4.307   6.688  16.694  0.00  0.00    +0.000 A 
ATOM      5  C   UNL     1       3.459   6.270  17.740  0.00  0.00    +0.000 A 
ATOM      6  C   UNL     1       3.408   4.892  18.038  0.00  0.00    +0.000 A 
ATOM      7  C   UNL     1       4.178   3.933  17.360  0.00  0.00    +0.000 A 
ATOM      8  C   UNL     1       5.003   4.408  16.344  0.00  0.00    +0.000 A 
ATOM      9  N   UNL     1       5.882   3.789  15.495  0.00  0.00    +0.000 N 
ATOM     10  H   UNL     1       6.108   2.805  15.481  0.00  0.00    +0.000 HD
ENDROOT
BRANCH   5  11
ATOM     11  C   UNL     1       2.677   7.263  18.516  0.00  0.00    +0.000 A 
ATOM     12  C   UNL     1       2.319   7.033  19.858  0.00  0.00    +0.000 A 
ATOM     13  C   UNL     1       1.526   7.940  20.570  0.00  0.00    +0.000 A 
ATOM     14  C   UNL     1       1.087   9.115  19.958  0.00  0.00    +0.000 A 
ATOM     15  C   UNL     1       1.449   9.378  18.637  0.00  0.00    +0.000 A 
ATOM     16  C   UNL     1       2.229   8.460  17.927  0.00  0.00    +0.000 A 
BRANCH  14  17
ATOM     17  C   UNL     1       0.258  10.035  20.675  0.00  0.00    +0.000 C 
ATOM     18  N   UNL     1      -0.412  10.782  21.260  0.00  0.00    +0.000 NA
ENDBRANCH  14  17
ENDBRANCH   5  11
BRANCH   1  19
ATOM     19  C   UNL     1       7.323   4.394  13.528  0.00  0.00    +0.000 C 
BRANCH  19  20
ATOM     20  N   UNL     1       8.148   5.568  13.188  0.00  0.00    +0.000 NA
ATOM     21  H   UNL     1       7.997   5.759  12.193  0.00  0.00    +0.000 HD
ATOM     22  H   UNL     1       9.126   5.264  13.228  0.00  0.00    +0.000 HD
ENDBRANCH  19  20
BRANCH  19  24
ATOM     23  C   UNL     1       5.052   3.705  12.546  0.00  0.00    +0.000 C 
ATOM     24  C   UNL     1       6.546   3.882  12.282  0.00  0.00    +0.000 C 
BRANCH  24  25
ATOM     25  O   UNL     1       7.090   2.615  11.870  0.00  0.00    +0.000 OA
ATOM     26  H   UNL     1       6.353   1.982  11.814  0.00  0.00    +0.000 HD
ENDBRANCH  24  25
ENDBRANCH  19  24
ENDBRANCH   1  19
TORSDOF 6
ENDMDL
MODEL 9
REMARK VINA RESULT:      -6.9      3.212      8.811
REMARK  Name = 
REMARK  7 active torsions:
REMARK  status: ('A' for Active; 'I' for Inactive)
REMARK    1  A    between atoms: C_1  and  C_2
REMARK    2  A    between atoms: C_2  and  O_3
REMARK    3  A    between atoms: C_2  and  C_4
REMARK    4  A    between atoms: C_4  and  N_5
REMARK    5  A    between atoms: C_4  and  C_6
REMARK    6  A    between atoms: C_10  and  C_11
REMARK    7  A    between atoms: C_14  and  C_15
REMARK                            x       y       z     vdW  Elec       q    Type
REMARK                         _______ _______ _______ _____ _____    ______ ____
ROOT
ATOM      1  C   UNL     1       0.436   9.685  20.764  0.00  0.00    +0.000 A 
ATOM      2  N   UNL     1       1.044   9.660  19.594  0.00  0.00    +0.000 NA
ATOM      3  C   UNL     1       1.624   8.423  19.511  0.00  0.00    +0.000 A 
ATOM      4  C   UNL     1       2.406   7.877  18.484  0.00  0.00    +0.000 A 
ATOM      5  C   UNL     1       2.916   6.568  18.603  0.00  0.00    +0.000 A 
ATOM      6  C   UNL     1       2.623   5.850  19.781  0.00  0.00    +0.000 A 
ATOM      7  C   UNL     1       1.832   6.372  20.819  0.00  0.00    +0.000 A 
ATOM      8  C   UNL     1       1.352   7.665  20.639  0.00  0.00    +0.000 A 
ATOM      9  N   UNL     1       0.562   8.478  21.409  0.00  0.00    +0.000 N 
ATOM     10  H   UNL     1       0.148   8.243  22.299  0.00  0.00    +0.000 HD
ENDROOT
BRANCH   5  11
ATOM     11  C   UNL     1       3.703   5.965  17.501  0.00  0.00    +0.000 A 
ATOM     12  C   UNL     1       3.763   4.570  17.315  0.00  0.00    +0.000 A 
ATOM     13  C   UNL     1       4.558   3.998  16.315  0.00  0.00    +0.000 A 
ATOM     14  C   UNL     1       5.302   4.814  15.462  0.00  0.00    +0.000 A 
ATOM     15  C   UNL     1       5.241   6.199  15.609  0.00  0.00    +0.000 A 
ATOM     16  C   UNL     1       4.456   6.763  16.620  0.00  0.00    +0.000 A 
BRANCH  14  17
ATOM     17  C   UNL     1       6.133   4.233  14.452  0.00  0.00    +0.000 C 
ATOM     18  N   UNL     1       6.805   3.760  13.630  0.00  0.00    +0.000 NA
ENDBRANCH  14  17
ENDBRANCH   5  11
BRANCH   1  19
ATOM     19  C   UNL     1      -0.285  10.844  21.371  0.00  0.00    +0.000 C 
BRANCH  19  20
ATOM     20  N   UNL     1       0.653  11.966  21.557  0.00  0.00    +0.000 NA
ATOM     21  H   UNL     1       0.149  12.690  22.078  0.00  0.00    +0.000 HD
ATOM     22  H   UNL     1       0.795  12.389  20.635  0.00  0.00    +0.000 HD
ENDBRANCH  19  20
BRANCH  19  24
ATOM     23  C   UNL     1      -1.750  11.609  23.337  0.00  0.00    +0.000 C 
ATOM     24  C   UNL     1      -0.962  10.457  22.717  0.00  0.00    +0.000 C 
BRANCH  24  25
ATOM     25  O   UNL     1       0.048  10.039  23.653  0.00  0.00    +0.000 OA
ATOM     26  H   UNL     1      -0.389   9.877  24.507  0.00  0.00    +0.000 HD
ENDBRANCH  24  25
ENDBRANCH  19  24
ENDBRANCH   1  19
TORSDOF 6
ENDMDL
