MODEL 1
REMARK VINA RESULT:      -8.8      0.000      0.000
REMARK  Name = 
REMARK  5 active torsions:
REMARK  status: ('A' for Active; 'I' for Inactive)
REMARK    1  A    between atoms: C_4  and  C_5
REMARK    2  A    between atoms: C_9  and  N_10
REMARK    3  A    between atoms: C_20  and  O_21
REMARK    4  A    between atoms: O_21  and  C_22
REMARK    5  A    between atoms: C_22  and  C_23
REMARK                            x       y       z     vdW  Elec       q    Type
REMARK                         _______ _______ _______ _____ _____    ______ ____
ROOT
ATOM      1  O   UNL     1       0.854   3.954  20.057  0.00  0.00    +0.000 OA
ATOM      2  C   UNL     1       1.796   4.543  19.530  0.00  0.00    +0.000 C 
ATOM      3  C   UNL     1       2.565   5.613  20.243  0.00  0.00    +0.000 C 
ATOM      4  C   UNL     1       2.387   6.916  19.527  0.00  0.00    +0.000 C 
ATOM      5  N   UNL     1       2.911   7.140  18.357  0.00  0.00    +0.000 NA
ATOM      6  C   UNL     1       3.653   6.155  17.684  0.00  0.00    +0.000 A 
ATOM      7  C   UNL     1       4.765   6.618  16.973  0.00  0.00    +0.000 A 
ATOM      8  C   UNL     1       5.539   5.751  16.205  0.00  0.00    +0.000 A 
ATOM      9  C   UNL     1       5.182   4.409  16.090  0.00  0.00    +0.000 A 
ATOM     10  C   UNL     1       4.059   3.929  16.764  0.00  0.00    +0.000 A 
ATOM     11  C   UNL     1       3.309   4.786  17.582  0.00  0.00    +0.000 A 
ATOM     12  N   UNL     1       2.242   4.187  18.287  0.00  0.00    +0.000 N 
ATOM     13  H   UNL     1       1.840   3.327  17.939  0.00  0.00    +0.000 HD
ENDROOT
BRANCH   4  14
ATOM     14  C   UNL     1       1.579   7.989  20.169  0.00  0.00    +0.000 A 
ATOM     15  C   UNL     1       0.956   7.807  21.407  0.00  0.00    +0.000 A 
ATOM     16  C   UNL     1       0.202   8.839  21.964  0.00  0.00    +0.000 A 
ATOM     17  C   UNL     1       0.055  10.048  21.281  0.00  0.00    +0.000 A 
ATOM     18  C   UNL     1       0.656  10.229  20.029  0.00  0.00    +0.000 A 
ATOM     19  C   UNL     1       1.423   9.196  19.478  0.00  0.00    +0.000 A 
BRANCH  18  20
ATOM     20  N   UNL     1       0.487  11.446  19.323  0.00  0.00    +0.000 N 
ATOM     21  C   UNL     1      -0.684  12.065  18.942  0.00  0.00    +0.000 A 
ATOM     22  C   UNL     1      -0.282  13.197  18.281  0.00  0.00    +0.000 A 
ATOM     23  N   UNL     1       1.076  13.258  18.272  0.00  0.00    +0.000 NA
ATOM     24  N   UNL     1       1.540  12.192  18.910  0.00  0.00    +0.000 NA
ENDBRANCH  18  20
ENDBRANCH   4  14
BRANCH   9  25
ATOM     25  O   UNL     1       6.032   3.660  15.333  0.00  0.00    +0.000 OA
BRANCH  25  26
ATOM     26  C   UNL     1       6.642   4.310  14.212  0.00  0.00    +0.000 C 
BRANCH  26  27
ATOM     27  C   UNL     1       6.108   3.730  12.906  0.00  0.00    +0.000 C 
ATOM     28  F   UNL     1       6.702   4.257  11.813  0.00  0.00    +0.000 F 
ATOM     29  F   UNL     1       6.292   2.391  12.861  0.00  0.00    +0.000 F 
ATOM     30  F   UNL     1       4.778   3.957  12.792  0.00  0.00    +0.000 F 
ENDBRANCH  26  27
ENDBRANCH  25  26
ENDBRANCH   9  25
TORSDOF 5
ENDMDL
MODEL 2
REMARK VINA RESULT:      -8.7      4.689      8.562
REMARK  Name = 
REMARK  5 active torsions:
REMARK  status: ('A' for Active; 'I' for Inactive)
REMARK    1  A    between atoms: C_4  and  C_5
REMARK    2  A    between atoms: C_9  and  N_10
REMARK    3  A    between atoms: C_20  and  O_21
REMARK    4  A    between atoms: O_21  and  C_22
REMARK    5  A    between atoms: C_22  and  C_23
REMARK                            x       y       z     vdW  Elec       q    Type
REMARK                         _______ _______ _______ _____ _____    ______ ____
ROOT
ATOM      1  O   UNL     1       2.766   4.570  20.787  0.00  0.00    +0.000 OA
ATOM      2  C   UNL     1       2.573   5.497  20.003  0.00  0.00    +0.000 C 
ATOM      3  C   UNL     1       2.765   5.344  18.525  0.00  0.00    +0.000 C 
ATOM      4  C   UNL     1       3.872   6.244  18.069  0.00  0.00    +0.000 C 
ATOM      5  N   UNL     1       3.747   7.539  18.049  0.00  0.00    +0.000 NA
ATOM      6  C   UNL     1       2.568   8.170  18.483  0.00  0.00    +0.000 A 
ATOM      7  C   UNL     1       2.179   9.293  17.745  0.00  0.00    +0.000 A 
ATOM      8  C   UNL     1       1.070  10.048  18.118  0.00  0.00    +0.000 A 
ATOM      9  C   UNL     1       0.359   9.726  19.272  0.00  0.00    +0.000 A 
ATOM     10  C   UNL     1       0.746   8.630  20.043  0.00  0.00    +0.000 A 
ATOM     11  C   UNL     1       1.828   7.833  19.641  0.00  0.00    +0.000 A 
ATOM     12  N   UNL     1       2.089   6.700  20.441  0.00  0.00    +0.000 N 
ATOM     13  H   UNL     1       1.771   6.686  21.401  0.00  0.00    +0.000 HD
ENDROOT
BRANCH   4  14
ATOM     14  C   UNL     1       5.160   5.640  17.634  0.00  0.00    +0.000 A 
ATOM     15  C   UNL     1       6.170   5.311  18.544  0.00  0.00    +0.000 A 
ATOM     16  C   UNL     1       7.363   4.754  18.086  0.00  0.00    +0.000 A 
ATOM     17  C   UNL     1       7.559   4.538  16.720  0.00  0.00    +0.000 A 
ATOM     18  C   UNL     1       6.562   4.887  15.801  0.00  0.00    +0.000 A 
ATOM     19  C   UNL     1       5.360   5.435  16.264  0.00  0.00    +0.000 A 
BRANCH  18  20
ATOM     20  N   UNL     1       6.769   4.693  14.413  0.00  0.00    +0.000 N 
ATOM     21  C   UNL     1       6.121   3.829  13.557  0.00  0.00    +0.000 A 
ATOM     22  C   UNL     1       6.713   4.034  12.338  0.00  0.00    +0.000 A 
ATOM     23  N   UNL     1       7.674   4.988  12.456  0.00  0.00    +0.000 NA
ATOM     24  N   UNL     1       7.702   5.389  13.719  0.00  0.00    +0.000 NA
ENDBRANCH  18  20
ENDBRANCH   4  14
BRANCH   9  25
ATOM     25  O   UNL     1      -0.718  10.524  19.516  0.00  0.00    +0.000 OA
BRANCH  25  26
ATOM     26  C   UNL     1      -1.046  11.490  18.511  0.00  0.00    +0.000 C 
BRANCH  26  27
ATOM     27  C   UNL     1      -2.341  11.101  17.803  0.00  0.00    +0.000 C 
ATOM     28  F   UNL     1      -2.373  11.492  16.510  0.00  0.00    +0.000 F 
ATOM     29  F   UNL     1      -2.521   9.761  17.826  0.00  0.00    +0.000 F 
ATOM     30  F   UNL     1      -3.409  11.661  18.420  0.00  0.00    +0.000 F 
ENDBRANCH  26  27
ENDBRANCH  25  26
ENDBRANCH   9  25
TORSDOF 5
ENDMDL
MODEL 3
REMARK VINA RESULT:      -8.6      0.678      1.028
REMARK  Name = 
REMARK  5 active torsions:
REMARK  status: ('A' for Active; 'I' for Inactive)
REMARK    1  A    between atoms: C_4  and  C_5
REMARK    2  A    between atoms: C_9  and  N_10
REMARK    3  A    between atoms: C_20  and  O_21
REMARK    4  A    between atoms: O_21  and  C_22
REMARK    5  A    between atoms: C_22  and  C_23
REMARK                            x       y       z     vdW  Elec       q    Type
REMARK                         _______ _______ _______ _____ _____    ______ ____
ROOT
ATOM      1  O   UNL     1       1.251   3.694  20.008  0.00  0.00    +0.000 OA
ATOM      2  C   UNL     1       2.130   4.324  19.423  0.00  0.00    +0.000 C 
ATOM      3  C   UNL     1       2.870   5.452  20.075  0.00  0.00    +0.000 C 
ATOM      4  C   UNL     1       2.582   6.727  19.345  0.00  0.00    +0.000 C 
ATOM      5  N   UNL     1       3.032   6.955  18.146  0.00  0.00    +0.000 NA
ATOM      6  C   UNL     1       3.795   5.999  17.454  0.00  0.00    +0.000 A 
ATOM      7  C   UNL     1       4.841   6.509  16.678  0.00  0.00    +0.000 A 
ATOM      8  C   UNL     1       5.625   5.671  15.888  0.00  0.00    +0.000 A 
ATOM      9  C   UNL     1       5.341   4.309  15.816  0.00  0.00    +0.000 A 
ATOM     10  C   UNL     1       4.283   3.781  16.556  0.00  0.00    +0.000 A 
ATOM     11  C   UNL     1       3.526   4.611  17.395  0.00  0.00    +0.000 A 
ATOM     12  N   UNL     1       2.533   3.968  18.165  0.00  0.00    +0.000 N 
ATOM     13  H   UNL     1       2.164   3.078  17.855  0.00  0.00    +0.000 HD
ENDROOT
BRANCH   4  14
ATOM     14  C   UNL     1       1.745   7.765  20.007  0.00  0.00    +0.000 A 
ATOM     15  C   UNL     1       1.068   7.518  21.205  0.00  0.00    +0.000 A 
ATOM     16  C   UNL     1       0.290   8.520  21.783  0.00  0.00    +0.000 A 
ATOM     17  C   UNL     1       0.173   9.765  21.160  0.00  0.00    +0.000 A 
ATOM     18  C   UNL     1       0.830  10.012  19.948  0.00  0.00    +0.000 A 
ATOM     19  C   UNL     1       1.620   9.008  19.377  0.00  0.00    +0.000 A 
BRANCH  18  20
ATOM     20  N   UNL     1       0.692  11.266  19.302  0.00  0.00    +0.000 N 
ATOM     21  C   UNL     1       1.679  12.128  18.875  0.00  0.00    +0.000 A 
ATOM     22  C   UNL     1       1.004  13.191  18.333  0.00  0.00    +0.000 A 
ATOM     23  N   UNL     1      -0.335  12.972  18.426  0.00  0.00    +0.000 NA
ATOM     24  N   UNL     1      -0.520  11.798  19.012  0.00  0.00    +0.000 NA
ENDBRANCH  18  20
ENDBRANCH   4  14
BRANCH   9  25
ATOM     25  O   UNL     1       6.194   3.594  15.030  0.00  0.00    +0.000 OA
BRANCH  25  26
ATOM     26  C   UNL     1       6.771   4.278  13.914  0.00  0.00    +0.000 C 
BRANCH  26  27
ATOM     27  C   UNL     1       6.247   3.696  12.605  0.00  0.00    +0.000 C 
ATOM     28  F   UNL     1       6.472   2.369  12.491  0.00  0.00    +0.000 F 
ATOM     29  F   UNL     1       4.914   3.893  12.488  0.00  0.00    +0.000 F 
ATOM     30  F   UNL     1       6.838   4.298  11.545  0.00  0.00    +0.000 F 
ENDBRANCH  26  27
ENDBRANCH  25  26
ENDBRANCH   9  25
TORSDOF 5
ENDMDL
MODEL 4
REMARK VINA RESULT:      -8.6      1.043      1.282
REMARK  Name = 
REMARK  5 active torsions:
REMARK  status: ('A' for Active; 'I' for Inactive)
REMARK    1  A    between atoms: C_4  and  C_5
REMARK    2  A    between atoms: C_9  and  N_10
REMARK    3  A    between atoms: C_20  and  O_21
REMARK    4  A    between atoms: O_21  and  C_22
REMARK    5  A    between atoms: C_22  and  C_23
REMARK                            x       y       z     vdW  Elec       q    Type
REMARK                         _______ _______ _______ _____ _____    ______ ____
ROOT
ATOM      1  O   UNL     1       0.875   3.953  20.126  0.00  0.00    +0.000 OA
ATOM      2  C   UNL     1       1.811   4.536  19.583  0.00  0.00    +0.000 C 
ATOM      3  C   UNL     1       2.605   5.595  20.285  0.00  0.00    +0.000 C 
ATOM      4  C   UNL     1       2.425   6.904  19.580  0.00  0.00    +0.000 C 
ATOM      5  N   UNL     1       2.925   7.130  18.401  0.00  0.00    +0.000 NA
ATOM      6  C   UNL     1       3.643   6.141  17.706  0.00  0.00    +0.000 A 
ATOM      7  C   UNL     1       4.743   6.598  16.973  0.00  0.00    +0.000 A 
ATOM      8  C   UNL     1       5.493   5.728  16.184  0.00  0.00    +0.000 A 
ATOM      9  C   UNL     1       5.120   4.391  16.069  0.00  0.00    +0.000 A 
ATOM     10  C   UNL     1       4.008   3.917  16.764  0.00  0.00    +0.000 A 
ATOM     11  C   UNL     1       3.283   4.776  17.604  0.00  0.00    +0.000 A 
ATOM     12  N   UNL     1       2.227   4.183  18.328  0.00  0.00    +0.000 N 
ATOM     13  H   UNL     1       1.808   3.329  17.984  0.00  0.00    +0.000 HD
ENDROOT
BRANCH   4  14
ATOM     14  C   UNL     1       1.640   7.980  20.245  0.00  0.00    +0.000 A 
ATOM     15  C   UNL     1       1.662   8.164  21.631  0.00  0.00    +0.000 A 
ATOM     16  C   UNL     1       0.903   9.182  22.208  0.00  0.00    +0.000 A 
ATOM     17  C   UNL     1       0.111  10.007  21.408  0.00  0.00    +0.000 A 
ATOM     18  C   UNL     1       0.066   9.813  20.022  0.00  0.00    +0.000 A 
ATOM     19  C   UNL     1       0.838   8.799  19.443  0.00  0.00    +0.000 A 
BRANCH  18  20
ATOM     20  N   UNL     1      -0.757  10.633  19.211  0.00  0.00    +0.000 N 
ATOM     21  C   UNL     1      -1.190  10.412  17.921  0.00  0.00    +0.000 A 
ATOM     22  C   UNL     1      -1.943  11.515  17.611  0.00  0.00    +0.000 A 
ATOM     23  N   UNL     1      -1.966  12.362  18.675  0.00  0.00    +0.000 NA
ATOM     24  N   UNL     1      -1.247  11.819  19.647  0.00  0.00    +0.000 NA
ENDBRANCH  18  20
ENDBRANCH   4  14
BRANCH   9  25
ATOM     25  O   UNL     1       5.946   3.638  15.289  0.00  0.00    +0.000 OA
BRANCH  25  26
ATOM     26  C   UNL     1       6.551   4.293  14.169  0.00  0.00    +0.000 C 
BRANCH  26  27
ATOM     27  C   UNL     1       6.032   3.699  12.863  0.00  0.00    +0.000 C 
ATOM     28  F   UNL     1       6.219   2.364  12.779  0.00  0.00    +0.000 F 
ATOM     29  F   UNL     1       4.708   3.933  12.719  0.00  0.00    +0.000 F 
ATOM     30  F   UNL     1       6.658   4.262  11.802  0.00  0.00    +0.000 F 
ENDBRANCH  26  27
ENDBRANCH  25  26
ENDBRANCH   9  25
TORSDOF 5
ENDMDL
MODEL 5
REMARK VINA RESULT:      -8.3      5.025      9.185
REMARK  Name = 
REMARK  5 active torsions:
REMARK  status: ('A' for Active; 'I' for Inactive)
REMARK    1  A    between atoms: C_4  and  C_5
REMARK    2  A    between atoms: C_9  and  N_10
REMARK    3  A    between atoms: C_20  and  O_21
REMARK    4  A    between atoms: O_21  and  C_22
REMARK    5  A    between atoms: C_22  and  C_23
REMARK                            x       y       z     vdW  Elec       q    Type
REMARK                         _______ _______ _______ _____ _____    ______ ____
ROOT
ATOM      1  O   UNL     1       3.867   3.771  19.831  0.00  0.00    +0.000 OA
ATOM      2  C   UNL     1       3.427   4.781  19.285  0.00  0.00    +0.000 C 
ATOM      3  C   UNL     1       3.184   4.847  17.808  0.00  0.00    +0.000 C 
ATOM      4  C   UNL     1       4.084   5.877  17.199  0.00  0.00    +0.000 C 
ATOM      5  N   UNL     1       3.922   7.150  17.412  0.00  0.00    +0.000 NA
ATOM      6  C   UNL     1       2.904   7.630  18.254  0.00  0.00    +0.000 A 
ATOM      7  C   UNL     1       2.286   8.814  17.838  0.00  0.00    +0.000 A 
ATOM      8  C   UNL     1       1.313   9.430  18.621  0.00  0.00    +0.000 A 
ATOM      9  C   UNL     1       0.979   8.903  19.867  0.00  0.00    +0.000 A 
ATOM     10  C   UNL     1       1.605   7.741  20.319  0.00  0.00    +0.000 A 
ATOM     11  C   UNL     1       2.545   7.086  19.510  0.00  0.00    +0.000 A 
ATOM     12  N   UNL     1       3.059   5.875  20.020  0.00  0.00    +0.000 N 
ATOM     13  H   UNL     1       3.036   5.707  21.018  0.00  0.00    +0.000 HD
ENDROOT
BRANCH   4  14
ATOM     14  C   UNL     1       5.205   5.431  16.328  0.00  0.00    +0.000 A 
ATOM     15  C   UNL     1       6.540   5.715  16.635  0.00  0.00    +0.000 A 
ATOM     16  C   UNL     1       7.555   5.282  15.784  0.00  0.00    +0.000 A 
ATOM     17  C   UNL     1       7.243   4.580  14.617  0.00  0.00    +0.000 A 
ATOM     18  C   UNL     1       5.907   4.313  14.291  0.00  0.00    +0.000 A 
ATOM     19  C   UNL     1       4.890   4.738  15.154  0.00  0.00    +0.000 A 
BRANCH  18  20
ATOM     20  N   UNL     1       5.586   3.624  13.096  0.00  0.00    +0.000 N 
ATOM     21  C   UNL     1       6.388   2.801  12.334  0.00  0.00    +0.000 A 
ATOM     22  C   UNL     1       5.593   2.410  11.288  0.00  0.00    +0.000 A 
ATOM     23  N   UNL     1       4.362   2.971  11.420  0.00  0.00    +0.000 NA
ATOM     24  N   UNL     1       4.361   3.706  12.523  0.00  0.00    +0.000 NA
ENDBRANCH  18  20
ENDBRANCH   4  14
BRANCH   9  25
ATOM     25  O   UNL     1      -0.002   9.582  20.525  0.00  0.00    +0.000 OA
BRANCH  25  26
ATOM     26  C   UNL     1       0.382  10.279  21.715  0.00  0.00    +0.000 C 
BRANCH  26  27
ATOM     27  C   UNL     1      -0.327   9.688  22.930  0.00  0.00    +0.000 C 
ATOM     28  F   UNL     1       0.519   9.386  23.939  0.00  0.00    +0.000 F 
ATOM     29  F   UNL     1      -1.248  10.551  23.417  0.00  0.00    +0.000 F 
ATOM     30  F   UNL     1      -0.979   8.550  22.594  0.00  0.00    +0.000 F 
ENDBRANCH  26  27
ENDBRANCH  25  26
ENDBRANCH   9  25
TORSDOF 5
ENDMDL
MODEL 6
REMARK VINA RESULT:      -8.2      6.338     10.134
REMARK  Name = 
REMARK  5 active torsions:
REMARK  status: ('A' for Active; 'I' for Inactive)
REMARK    1  A    between atoms: C_4  and  C_5
REMARK    2  A    between atoms: C_9  and  N_10
REMARK    3  A    between atoms: C_20  and  O_21
REMARK    4  A    between atoms: O_21  and  C_22
REMARK    5  A    between atoms: C_22  and  C_23
REMARK                            x       y       z     vdW  Elec       q    Type
REMARK                         _______ _______ _______ _____ _____    ______ ____
ROOT
ATOM      1  O   UNL     1       1.412   9.218  17.367  0.00  0.00    +0.000 OA
ATOM      2  C   UNL     1       1.207   9.282  18.578  0.00  0.00    +0.000 C 
ATOM      3  C   UNL     1       2.203   8.785  19.581  0.00  0.00    +0.000 C 
ATOM      4  C   UNL     1       1.612   7.644  20.349  0.00  0.00    +0.000 C 
ATOM      5  N   UNL     1       0.643   7.811  21.201  0.00  0.00    +0.000 NA
ATOM      6  C   UNL     1       0.075   9.076  21.429  0.00  0.00    +0.000 A 
ATOM      7  C   UNL     1      -0.278   9.348  22.755  0.00  0.00    +0.000 A 
ATOM      8  C   UNL     1      -0.916  10.538  23.099  0.00  0.00    +0.000 A 
ATOM      9  C   UNL     1      -1.263  11.457  22.111  0.00  0.00    +0.000 A 
ATOM     10  C   UNL     1      -0.950  11.195  20.778  0.00  0.00    +0.000 A 
ATOM     11  C   UNL     1      -0.259  10.024  20.433  0.00  0.00    +0.000 A 
ATOM     12  N   UNL     1       0.085   9.890  19.071  0.00  0.00    +0.000 N 
ATOM     13  H   UNL     1      -0.444  10.397  18.374  0.00  0.00    +0.000 HD
ENDROOT
BRANCH   4  14
ATOM     14  C   UNL     1       2.142   6.271  20.124  0.00  0.00    +0.000 A 
ATOM     15  C   UNL     1       1.482   5.134  20.600  0.00  0.00    +0.000 A 
ATOM     16  C   UNL     1       2.023   3.870  20.371  0.00  0.00    +0.000 A 
ATOM     17  C   UNL     1       3.230   3.737  19.681  0.00  0.00    +0.000 A 
ATOM     18  C   UNL     1       3.908   4.873  19.221  0.00  0.00    +0.000 A 
ATOM     19  C   UNL     1       3.357   6.140  19.442  0.00  0.00    +0.000 A 
BRANCH  18  20
ATOM     20  N   UNL     1       5.145   4.742  18.543  0.00  0.00    +0.000 N 
ATOM     21  C   UNL     1       5.380   4.649  17.188  0.00  0.00    +0.000 A 
ATOM     22  C   UNL     1       6.741   4.527  17.077  0.00  0.00    +0.000 A 
ATOM     23  N   UNL     1       7.301   4.551  18.315  0.00  0.00    +0.000 NA
ATOM     24  N   UNL     1       6.327   4.686  19.204  0.00  0.00    +0.000 NA
ENDBRANCH  18  20
ENDBRANCH   4  14
BRANCH   9  25
ATOM     25  O   UNL     1      -1.859  12.591  22.577  0.00  0.00    +0.000 OA
BRANCH  25  26
ATOM     26  C   UNL     1      -3.290  12.624  22.553  0.00  0.00    +0.000 C 
BRANCH  26  27
ATOM     27  C   UNL     1      -3.835  13.016  23.924  0.00  0.00    +0.000 C 
ATOM     28  F   UNL     1      -4.981  13.727  23.852  0.00  0.00    +0.000 F 
ATOM     29  F   UNL     1      -4.085  11.919  24.675  0.00  0.00    +0.000 F 
ATOM     30  F   UNL     1      -2.934  13.769  24.598  0.00  0.00    +0.000 F 
ENDBRANCH  26  27
ENDBRANCH  25  26
ENDBRANCH   9  25
TORSDOF 5
ENDMDL
MODEL 7
REMARK VINA RESULT:      -8.1      4.955      8.825
REMARK  Name = 
REMARK  5 active torsions:
REMARK  status: ('A' for Active; 'I' for Inactive)
REMARK    1  A    between atoms: C_4  and  C_5
REMARK    2  A    between atoms: C_9  and  N_10
REMARK    3  A    between atoms: C_20  and  O_21
REMARK    4  A    between atoms: O_21  and  C_22
REMARK    5  A    between atoms: C_22  and  C_23
REMARK                            x       y       z     vdW  Elec       q    Type
REMARK                         _______ _______ _______ _____ _____    ______ ____
ROOT
ATOM      1  O   UNL     1       2.797   4.482  20.665  0.00  0.00    +0.000 OA
ATOM      2  C   UNL     1       2.622   5.436  19.909  0.00  0.00    +0.000 C 
ATOM      3  C   UNL     1       2.804   5.321  18.426  0.00  0.00    +0.000 C 
ATOM      4  C   UNL     1       3.929   6.207  17.991  0.00  0.00    +0.000 C 
ATOM      5  N   UNL     1       3.835   7.505  18.008  0.00  0.00    +0.000 NA
ATOM      6  C   UNL     1       2.673   8.151  18.467  0.00  0.00    +0.000 A 
ATOM      7  C   UNL     1       2.308   9.303  17.764  0.00  0.00    +0.000 A 
ATOM      8  C   UNL     1       1.219  10.074  18.164  0.00  0.00    +0.000 A 
ATOM      9  C   UNL     1       0.506   9.735  19.312  0.00  0.00    +0.000 A 
ATOM     10  C   UNL     1       0.870   8.608  20.048  0.00  0.00    +0.000 A 
ATOM     11  C   UNL     1       1.931   7.798  19.619  0.00  0.00    +0.000 A 
ATOM     12  N   UNL     1       2.169   6.636  20.384  0.00  0.00    +0.000 N 
ATOM     13  H   UNL     1       1.855   6.603  21.345  0.00  0.00    +0.000 HD
ENDROOT
BRANCH   4  14
ATOM     14  C   UNL     1       5.202   5.586  17.532  0.00  0.00    +0.000 A 
ATOM     15  C   UNL     1       6.223   5.242  18.423  0.00  0.00    +0.000 A 
ATOM     16  C   UNL     1       7.400   4.669  17.943  0.00  0.00    +0.000 A 
ATOM     17  C   UNL     1       7.568   4.452  16.574  0.00  0.00    +0.000 A 
ATOM     18  C   UNL     1       6.559   4.815  15.673  0.00  0.00    +0.000 A 
ATOM     19  C   UNL     1       5.373   5.379  16.159  0.00  0.00    +0.000 A 
BRANCH  18  20
ATOM     20  N   UNL     1       6.738   4.619  14.282  0.00  0.00    +0.000 N 
ATOM     21  C   UNL     1       6.127   3.700  13.455  0.00  0.00    +0.000 A 
ATOM     22  C   UNL     1       6.666   3.931  12.217  0.00  0.00    +0.000 A 
ATOM     23  N   UNL     1       7.561   4.952  12.295  0.00  0.00    +0.000 NA
ATOM     24  N   UNL     1       7.598   5.370  13.552  0.00  0.00    +0.000 NA
ENDBRANCH  18  20
ENDBRANCH   4  14
BRANCH   9  25
ATOM     25  O   UNL     1      -0.552  10.551  19.583  0.00  0.00    +0.000 OA
BRANCH  25  26
ATOM     26  C   UNL     1      -0.278  11.953  19.676  0.00  0.00    +0.000 C 
BRANCH  26  27
ATOM     27  C   UNL     1      -1.259  12.744  18.816  0.00  0.00    +0.000 C 
ATOM     28  F   UNL     1      -2.468  12.895  19.399  0.00  0.00    +0.000 F 
ATOM     29  F   UNL     1      -0.779  13.981  18.551  0.00  0.00    +0.000 F 
ATOM     30  F   UNL     1      -1.458  12.125  17.628  0.00  0.00    +0.000 F 
ENDBRANCH  26  27
ENDBRANCH  25  26
ENDBRANCH   9  25
TORSDOF 5
ENDMDL
MODEL 8
REMARK VINA RESULT:      -8.1      5.060      9.122
REMARK  Name = 
REMARK  5 active torsions:
REMARK  status: ('A' for Active; 'I' for Inactive)
REMARK    1  A    between atoms: C_4  and  C_5
REMARK    2  A    between atoms: C_9  and  N_10
REMARK    3  A    between atoms: C_20  and  O_21
REMARK    4  A    between atoms: O_21  and  C_22
REMARK    5  A    between atoms: C_22  and  C_23
REMARK                            x       y       z     vdW  Elec       q    Type
REMARK                         _______ _______ _______ _____ _____    ______ ____
ROOT
ATOM      1  O   UNL     1       3.604   3.856  20.058  0.00  0.00    +0.000 OA
ATOM      2  C   UNL     1       3.215   4.866  19.475  0.00  0.00    +0.000 C 
ATOM      3  C   UNL     1       3.037   4.909  17.988  0.00  0.00    +0.000 C 
ATOM      4  C   UNL     1       3.989   5.905  17.401  0.00  0.00    +0.000 C 
ATOM      5  N   UNL     1       3.850   7.186  17.583  0.00  0.00    +0.000 NA
ATOM      6  C   UNL     1       2.810   7.707  18.371  0.00  0.00    +0.000 A 
ATOM      7  C   UNL     1       2.240   8.897  17.907  0.00  0.00    +0.000 A 
ATOM      8  C   UNL     1       1.250   9.553  18.636  0.00  0.00    +0.000 A 
ATOM      9  C   UNL     1       0.850   9.057  19.874  0.00  0.00    +0.000 A 
ATOM     10  C   UNL     1       1.425   7.890  20.375  0.00  0.00    +0.000 A 
ATOM     11  C   UNL     1       2.382   7.196  19.620  0.00  0.00    +0.000 A 
ATOM     12  N   UNL     1       2.843   5.983  20.174  0.00  0.00    +0.000 N 
ATOM     13  H   UNL     1       2.772   5.835  21.172  0.00  0.00    +0.000 HD
ENDROOT
BRANCH   4  14
ATOM     14  C   UNL     1       5.136   5.416  16.588  0.00  0.00    +0.000 A 
ATOM     15  C   UNL     1       6.461   5.580  17.002  0.00  0.00    +0.000 A 
ATOM     16  C   UNL     1       7.502   5.111  16.202  0.00  0.00    +0.000 A 
ATOM     17  C   UNL     1       7.225   4.491  14.982  0.00  0.00    +0.000 A 
ATOM     18  C   UNL     1       5.901   4.343  14.550  0.00  0.00    +0.000 A 
ATOM     19  C   UNL     1       4.857   4.804  15.361  0.00  0.00    +0.000 A 
BRANCH  18  20
ATOM     20  N   UNL     1       5.619   3.737  13.300  0.00  0.00    +0.000 N 
ATOM     21  C   UNL     1       4.412   3.640  12.642  0.00  0.00    +0.000 A 
ATOM     22  C   UNL     1       4.696   2.953  11.491  0.00  0.00    +0.000 A 
ATOM     23  N   UNL     1       6.022   2.654  11.456  0.00  0.00    +0.000 NA
ATOM     24  N   UNL     1       6.581   3.137  12.557  0.00  0.00    +0.000 NA
ENDBRANCH  18  20
ENDBRANCH   4  14
BRANCH   9  25
ATOM     25  O   UNL     1      -0.142   9.773  20.477  0.00  0.00    +0.000 OA
BRANCH  25  26
ATOM     26  C   UNL     1       0.190  10.428  21.705  0.00  0.00    +0.000 C 
BRANCH  26  27
ATOM     27  C   UNL     1      -0.460   9.709  22.884  0.00  0.00    +0.000 C 
ATOM     28  F   UNL     1      -1.447  10.429  23.460  0.00  0.00    +0.000 F 
ATOM     29  F   UNL     1      -0.993   8.529  22.495  0.00  0.00    +0.000 F 
ATOM     30  F   UNL     1       0.457   9.441  23.843  0.00  0.00    +0.000 F 
ENDBRANCH  26  27
ENDBRANCH  25  26
ENDBRANCH   9  25
TORSDOF 5
ENDMDL
MODEL 9
REMARK VINA RESULT:      -8.1      5.035      8.840
REMARK  Name = 
REMARK  5 active torsions:
REMARK  status: ('A' for Active; 'I' for Inactive)
REMARK    1  A    between atoms: C_4  and  C_5
REMARK    2  A    between atoms: C_9  and  N_10
REMARK    3  A    between atoms: C_20  and  O_21
REMARK    4  A    between atoms: O_21  and  C_22
REMARK    5  A    between atoms: C_22  and  C_23
REMARK                            x       y       z     vdW  Elec       q    Type
REMARK                         _______ _______ _______ _____ _____    ______ ____
ROOT
ATOM      1  O   UNL     1       2.757   4.627  20.835  0.00  0.00    +0.000 OA
ATOM      2  C   UNL     1       2.557   5.549  20.047  0.00  0.00    +0.000 C 
ATOM      3  C   UNL     1       2.744   5.388  18.569  0.00  0.00    +0.000 C 
ATOM      4  C   UNL     1       3.846   6.289  18.104  0.00  0.00    +0.000 C 
ATOM      5  N   UNL     1       3.717   7.583  18.076  0.00  0.00    +0.000 NA
ATOM      6  C   UNL     1       2.538   8.213  18.511  0.00  0.00    +0.000 A 
ATOM      7  C   UNL     1       2.143   9.330  17.769  0.00  0.00    +0.000 A 
ATOM      8  C   UNL     1       1.033  10.085  18.142  0.00  0.00    +0.000 A 
ATOM      9  C   UNL     1       0.328   9.767  19.301  0.00  0.00    +0.000 A 
ATOM     10  C   UNL     1       0.721   8.676  20.076  0.00  0.00    +0.000 A 
ATOM     11  C   UNL     1       1.804   7.881  19.675  0.00  0.00    +0.000 A 
ATOM     12  N   UNL     1       2.072   6.753  20.480  0.00  0.00    +0.000 N 
ATOM     13  H   UNL     1       1.758   6.744  21.442  0.00  0.00    +0.000 HD
ENDROOT
BRANCH   4  14
ATOM     14  C   UNL     1       5.135   5.686  17.667  0.00  0.00    +0.000 A 
ATOM     15  C   UNL     1       6.155   5.380  18.572  0.00  0.00    +0.000 A 
ATOM     16  C   UNL     1       7.348   4.824  18.113  0.00  0.00    +0.000 A 
ATOM     17  C   UNL     1       7.532   4.585  16.749  0.00  0.00    +0.000 A 
ATOM     18  C   UNL     1       6.524   4.910  15.834  0.00  0.00    +0.000 A 
ATOM     19  C   UNL     1       5.322   5.458  16.299  0.00  0.00    +0.000 A 
BRANCH  18  20
ATOM     20  N   UNL     1       6.719   4.693  14.447  0.00  0.00    +0.000 N 
ATOM     21  C   UNL     1       6.059   3.818  13.611  0.00  0.00    +0.000 A 
ATOM     22  C   UNL     1       6.642   4.000  12.384  0.00  0.00    +0.000 A 
ATOM     23  N   UNL     1       7.610   4.951  12.479  0.00  0.00    +0.000 NA
ATOM     24  N   UNL     1       7.650   5.372  13.735  0.00  0.00    +0.000 NA
ENDBRANCH  18  20
ENDBRANCH   4  14
BRANCH   9  25
ATOM     25  O   UNL     1      -0.751  10.563  19.544  0.00  0.00    +0.000 OA
BRANCH  25  26
ATOM     26  C   UNL     1      -0.672  11.428  20.682  0.00  0.00    +0.000 C 
BRANCH  26  27
ATOM     27  C   UNL     1      -0.112  12.789  20.277  0.00  0.00    +0.000 C 
ATOM     28  F   UNL     1      -0.432  13.135  19.011  0.00  0.00    +0.000 F 
ATOM     29  F   UNL     1      -0.573  13.763  21.093  0.00  0.00    +0.000 F 
ATOM     30  F   UNL     1       1.240  12.794  20.367  0.00  0.00    +0.000 F 
ENDBRANCH  26  27
ENDBRANCH  25  26
ENDBRANCH   9  25
TORSDOF 5
ENDMDL
