MODEL 1
REMARK VINA RESULT:      -7.7      0.000      0.000
REMARK  Name = 
REMARK  10 active torsions:
REMARK  status: ('A' for Active; 'I' for Inactive)
REMARK    1  A    between atoms: C_4  and  C_5
REMARK    2  A    between atoms: N_7  and  C_8
REMARK    3  A    between atoms: C_8  and  C_9
REMARK    4  A    between atoms: C_8  and  C_15
REMARK    5  A    between atoms: C_9  and  C_10
REMARK    6  A    between atoms: C_10  and  C_11
REMARK    7  A    between atoms: C_11  and  C_12
REMARK    8  A    between atoms: C_12  and  C_13
REMARK    9  A    between atoms: C_13  and  S_14
REMARK   10  A    between atoms: N_17  and  C_18
REMARK                            x       y       z     vdW  Elec       q    Type
REMARK                         _______ _______ _______ _____ _____    ______ ____
ROOT
ATOM      1  C   UNL     1       6.448   5.206  18.229  0.00  0.00    +0.000 C 
ENDROOT
BRANCH   1   4
ATOM      2  C   UNL     1       4.423   3.744  18.469  0.00  0.00    +0.000 C 
ATOM      3  O   UNL     1       3.746   4.472  17.743  0.00  0.00    +0.000 OA
ATOM      4  N   UNL     1       5.734   4.033  18.751  0.00  0.00    +0.000 N 
ATOM      5  H   UNL     1       6.311   3.335  19.211  0.00  0.00    +0.000 HD
BRANCH   2   9
ATOM      6  O   UNL     1       2.601   2.981  22.088  0.00  0.00    +0.000 OA
ATOM      7  C   UNL     1       2.997   2.597  21.015  0.00  0.00    +0.000 C 
ATOM      8  C   UNL     1       2.436   2.379  19.605  0.00  0.00    +0.000 C 
ATOM      9  C   UNL     1       3.917   2.428  19.164  0.00  0.00    +0.000 C 
ATOM     10  N   UNL     1       4.261   2.295  20.607  0.00  0.00    +0.000 N 
ATOM     11  H   UNL     1       5.005   2.755  21.114  0.00  0.00    +0.000 HD
ENDBRANCH   2   9
ENDBRANCH   1   4
BRANCH   1  12
ATOM     12  C   UNL     1       7.031   4.762  16.865  0.00  0.00    +0.000 C 
ATOM     13  O   UNL     1       8.121   4.184  16.834  0.00  0.00    +0.000 OA
ATOM     14  N   UNL     1       6.271   5.098  15.757  0.00  0.00    +0.000 N 
ATOM     15  H   UNL     1       5.491   5.729  15.889  0.00  0.00    +0.000 HD
BRANCH  14  16
ATOM     16  C   UNL     1       6.596   4.783  14.418  0.00  0.00    +0.000 A 
ATOM     17  C   UNL     1       7.603   5.440  13.704  0.00  0.00    +0.000 A 
ATOM     18  C   UNL     1       7.870   5.108  12.374  0.00  0.00    +0.000 A 
ATOM     19  C   UNL     1       7.132   4.113  11.743  0.00  0.00    +0.000 A 
ATOM     20  C   UNL     1       6.138   3.437  12.448  0.00  0.00    +0.000 A 
ATOM     21  C   UNL     1       5.879   3.761  13.785  0.00  0.00    +0.000 A 
ENDBRANCH  14  16
ENDBRANCH   1  12
BRANCH   1  22
ATOM     22  C   UNL     1       7.517   5.675  19.228  0.00  0.00    +0.000 C 
BRANCH  22  23
ATOM     23  C   UNL     1       8.281   6.900  18.714  0.00  0.00    +0.000 C 
BRANCH  23  24
ATOM     24  C   UNL     1       7.517   7.687  17.652  0.00  0.00    +0.000 C 
BRANCH  24  25
ATOM     25  C   UNL     1       7.813   9.180  17.827  0.00  0.00    +0.000 C 
BRANCH  25  26
ATOM     26  C   UNL     1       8.944   9.427  18.816  0.00  0.00    +0.000 C 
BRANCH  26  27
ATOM     27  S   UNL     1       9.532  11.140  18.672  0.00  0.00    +0.000 S 
ATOM     28  H   UNL     1       8.803  11.464  17.592  0.00  0.00    +0.000 HD
ENDBRANCH  26  27
ENDBRANCH  25  26
ENDBRANCH  24  25
ENDBRANCH  23  24
ENDBRANCH  22  23
ENDBRANCH   1  22
TORSDOF 10
ENDMDL
MODEL 2
REMARK VINA RESULT:      -7.4      1.346      1.673
REMARK  Name = 
REMARK  10 active torsions:
REMARK  status: ('A' for Active; 'I' for Inactive)
REMARK    1  A    between atoms: C_4  and  C_5
REMARK    2  A    between atoms: N_7  and  C_8
REMARK    3  A    between atoms: C_8  and  C_9
REMARK    4  A    between atoms: C_8  and  C_15
REMARK    5  A    between atoms: C_9  and  C_10
REMARK    6  A    between atoms: C_10  and  C_11
REMARK    7  A    between atoms: C_11  and  C_12
REMARK    8  A    between atoms: C_12  and  C_13
REMARK    9  A    between atoms: C_13  and  S_14
REMARK   10  A    between atoms: N_17  and  C_18
REMARK                            x       y       z     vdW  Elec       q    Type
REMARK                         _______ _______ _______ _____ _____    ______ ____
ROOT
ATOM      1  C   UNL     1       6.638   6.395  17.624  0.00  0.00    +0.000 C 
ENDROOT
BRANCH   1   4
ATOM      2  C   UNL     1       4.606   5.221  18.511  0.00  0.00    +0.000 C 
ATOM      3  O   UNL     1       3.910   5.604  17.572  0.00  0.00    +0.000 OA
ATOM      4  N   UNL     1       5.931   5.564  18.607  0.00  0.00    +0.000 N 
ATOM      5  H   UNL     1       6.517   5.102  19.295  0.00  0.00    +0.000 HD
BRANCH   2   9
ATOM      6  O   UNL     1       2.160   1.909  18.735  0.00  0.00    +0.000 OA
ATOM      7  C   UNL     1       2.901   2.699  19.265  0.00  0.00    +0.000 C 
ATOM      8  C   UNL     1       4.389   2.807  19.618  0.00  0.00    +0.000 C 
ATOM      9  C   UNL     1       4.112   4.325  19.704  0.00  0.00    +0.000 C 
ATOM     10  N   UNL     1       2.664   3.975  19.683  0.00  0.00    +0.000 N 
ATOM     11  H   UNL     1       1.914   4.458  19.208  0.00  0.00    +0.000 HD
ENDBRANCH   2   9
ENDBRANCH   1   4
BRANCH   1  12
ATOM     12  C   UNL     1       6.990   5.445  16.454  0.00  0.00    +0.000 C 
ATOM     13  O   UNL     1       7.866   4.591  16.612  0.00  0.00    +0.000 OA
ATOM     14  N   UNL     1       6.293   5.669  15.278  0.00  0.00    +0.000 N 
ATOM     15  H   UNL     1       5.734   6.510  15.208  0.00  0.00    +0.000 HD
BRANCH  14  16
ATOM     16  C   UNL     1       6.436   4.918  14.089  0.00  0.00    +0.000 A 
ATOM     17  C   UNL     1       7.499   5.097  13.198  0.00  0.00    +0.000 A 
ATOM     18  C   UNL     1       7.582   4.346  12.024  0.00  0.00    +0.000 A 
ATOM     19  C   UNL     1       6.601   3.406  11.727  0.00  0.00    +0.000 A 
ATOM     20  C   UNL     1       5.546   3.204  12.614  0.00  0.00    +0.000 A 
ATOM     21  C   UNL     1       5.469   3.948  13.798  0.00  0.00    +0.000 A 
ENDBRANCH  14  16
ENDBRANCH   1  12
BRANCH   1  22
ATOM     22  C   UNL     1       7.868   7.059  18.264  0.00  0.00    +0.000 C 
BRANCH  22  23
ATOM     23  C   UNL     1       8.099   8.474  17.725  0.00  0.00    +0.000 C 
BRANCH  23  24
ATOM     24  C   UNL     1       8.810   9.390  18.718  0.00  0.00    +0.000 C 
BRANCH  24  25
ATOM     25  C   UNL     1       8.856  10.811  18.144  0.00  0.00    +0.000 C 
BRANCH  25  26
ATOM     26  C   UNL     1      10.280  11.335  18.028  0.00  0.00    +0.000 C 
BRANCH  26  27
ATOM     27  S   UNL     1      10.935  11.722  19.677  0.00  0.00    +0.000 S 
ATOM     28  H   UNL     1      11.926  10.817  19.669  0.00  0.00    +0.000 HD
ENDBRANCH  26  27
ENDBRANCH  25  26
ENDBRANCH  24  25
ENDBRANCH  23  24
ENDBRANCH  22  23
ENDBRANCH   1  22
TORSDOF 10
ENDMDL
MODEL 3
REMARK VINA RESULT:      -7.4      0.569      1.134
REMARK  Name = 
REMARK  10 active torsions:
REMARK  status: ('A' for Active; 'I' for Inactive)
REMARK    1  A    between atoms: C_4  and  C_5
REMARK    2  A    between atoms: N_7  and  C_8
REMARK    3  A    between atoms: C_8  and  C_9
REMARK    4  A    between atoms: C_8  and  C_15
REMARK    5  A    between atoms: C_9  and  C_10
REMARK    6  A    between atoms: C_10  and  C_11
REMARK    7  A    between atoms: C_11  and  C_12
REMARK    8  A    between atoms: C_12  and  C_13
REMARK    9  A    between atoms: C_13  and  S_14
REMARK   10  A    between atoms: N_17  and  C_18
REMARK                            x       y       z     vdW  Elec       q    Type
REMARK                         _______ _______ _______ _____ _____    ______ ____
ROOT
ATOM      1  C   UNL     1       6.452   5.146  18.127  0.00  0.00    +0.000 C 
ENDROOT
BRANCH   1   4
ATOM      2  C   UNL     1       4.498   4.121  19.322  0.00  0.00    +0.000 C 
ATOM      3  O   UNL     1       4.050   5.221  19.642  0.00  0.00    +0.000 OA
ATOM      4  N   UNL     1       5.655   4.004  18.593  0.00  0.00    +0.000 N 
ATOM      5  H   UNL     1       5.909   3.102  18.203  0.00  0.00    +0.000 HD
BRANCH   2   9
ATOM      6  O   UNL     1       1.769   2.934  22.176  0.00  0.00    +0.000 OA
ATOM      7  C   UNL     1       2.456   2.682  21.217  0.00  0.00    +0.000 C 
ATOM      8  C   UNL     1       2.311   2.644  19.691  0.00  0.00    +0.000 C 
ATOM      9  C   UNL     1       3.854   2.735  19.686  0.00  0.00    +0.000 C 
ATOM     10  N   UNL     1       3.791   2.422  21.141  0.00  0.00    +0.000 N 
ATOM     11  H   UNL     1       4.354   2.810  21.886  0.00  0.00    +0.000 HD
ENDBRANCH   2   9
ENDBRANCH   1   4
BRANCH   1  12
ATOM     12  C   UNL     1       7.006   4.729  16.743  0.00  0.00    +0.000 C 
ATOM     13  O   UNL     1       8.148   4.270  16.664  0.00  0.00    +0.000 OA
ATOM     14  N   UNL     1       6.155   4.951  15.673  0.00  0.00    +0.000 N 
ATOM     15  H   UNL     1       5.320   5.499  15.834  0.00  0.00    +0.000 HD
BRANCH  14  16
ATOM     16  C   UNL     1       6.440   4.635  14.325  0.00  0.00    +0.000 A 
ATOM     17  C   UNL     1       5.725   3.676  13.600  0.00  0.00    +0.000 A 
ATOM     18  C   UNL     1       6.061   3.382  12.277  0.00  0.00    +0.000 A 
ATOM     19  C   UNL     1       7.117   4.046  11.662  0.00  0.00    +0.000 A 
ATOM     20  C   UNL     1       7.827   5.017  12.367  0.00  0.00    +0.000 A 
ATOM     21  C   UNL     1       7.482   5.320  13.689  0.00  0.00    +0.000 A 
ENDBRANCH  14  16
ENDBRANCH   1  12
BRANCH   1  22
ATOM     22  C   UNL     1       7.549   5.489  19.147  0.00  0.00    +0.000 C 
BRANCH  22  23
ATOM     23  C   UNL     1       8.213   6.836  18.841  0.00  0.00    +0.000 C 
BRANCH  23  24
ATOM     24  C   UNL     1       7.514   7.616  17.731  0.00  0.00    +0.000 C 
BRANCH  24  25
ATOM     25  C   UNL     1       8.029   9.060  17.734  0.00  0.00    +0.000 C 
BRANCH  25  26
ATOM     26  C   UNL     1       8.876   9.363  18.962  0.00  0.00    +0.000 C 
BRANCH  26  27
ATOM     27  S   UNL     1       9.455  11.083  18.908  0.00  0.00    +0.000 S 
ATOM     28  H   UNL     1       8.253  11.646  18.707  0.00  0.00    +0.000 HD
ENDBRANCH  26  27
ENDBRANCH  25  26
ENDBRANCH  24  25
ENDBRANCH  23  24
ENDBRANCH  22  23
ENDBRANCH   1  22
TORSDOF 10
ENDMDL
MODEL 4
REMARK VINA RESULT:      -7.3      1.515      1.660
REMARK  Name = 
REMARK  10 active torsions:
REMARK  status: ('A' for Active; 'I' for Inactive)
REMARK    1  A    between atoms: C_4  and  C_5
REMARK    2  A    between atoms: N_7  and  C_8
REMARK    3  A    between atoms: C_8  and  C_9
REMARK    4  A    between atoms: C_8  and  C_15
REMARK    5  A    between atoms: C_9  and  C_10
REMARK    6  A    between atoms: C_10  and  C_11
REMARK    7  A    between atoms: C_11  and  C_12
REMARK    8  A    between atoms: C_12  and  C_13
REMARK    9  A    between atoms: C_13  and  S_14
REMARK   10  A    between atoms: N_17  and  C_18
REMARK                            x       y       z     vdW  Elec       q    Type
REMARK                         _______ _______ _______ _____ _____    ______ ____
ROOT
ATOM      1  C   UNL     1       5.987   6.219  17.737  0.00  0.00    +0.000 C 
ENDROOT
BRANCH   1   4
ATOM      2  C   UNL     1       4.400   4.730  18.985  0.00  0.00    +0.000 C 
ATOM      3  O   UNL     1       3.593   5.644  19.155  0.00  0.00    +0.000 OA
ATOM      4  N   UNL     1       5.579   4.931  18.313  0.00  0.00    +0.000 N 
ATOM      5  H   UNL     1       6.142   4.130  18.044  0.00  0.00    +0.000 HD
BRANCH   2   9
ATOM      6  O   UNL     1       1.213   2.112  19.014  0.00  0.00    +0.000 OA
ATOM      7  C   UNL     1       2.380   2.342  19.219  0.00  0.00    +0.000 C 
ATOM      8  C   UNL     1       3.716   2.205  18.479  0.00  0.00    +0.000 C 
ATOM      9  C   UNL     1       4.222   3.254  19.495  0.00  0.00    +0.000 C 
ATOM     10  N   UNL     1       2.973   2.988  20.261  0.00  0.00    +0.000 N 
ATOM     11  H   UNL     1       2.391   3.654  20.751  0.00  0.00    +0.000 HD
ENDBRANCH   2   9
ENDBRANCH   1   4
BRANCH   1  12
ATOM     12  C   UNL     1       5.902   6.033  16.202  0.00  0.00    +0.000 C 
ATOM     13  O   UNL     1       5.150   6.760  15.547  0.00  0.00    +0.000 OA
ATOM     14  N   UNL     1       6.676   5.007  15.685  0.00  0.00    +0.000 N 
ATOM     15  H   UNL     1       7.109   4.364  16.335  0.00  0.00    +0.000 HD
BRANCH  14  16
ATOM     16  C   UNL     1       6.770   4.666  14.317  0.00  0.00    +0.000 A 
ATOM     17  C   UNL     1       7.675   5.272  13.441  0.00  0.00    +0.000 A 
ATOM     18  C   UNL     1       7.712   4.916  12.091  0.00  0.00    +0.000 A 
ATOM     19  C   UNL     1       6.843   3.947  11.602  0.00  0.00    +0.000 A 
ATOM     20  C   UNL     1       5.948   3.321  12.467  0.00  0.00    +0.000 A 
ATOM     21  C   UNL     1       5.919   3.669  13.823  0.00  0.00    +0.000 A 
ENDBRANCH  14  16
ENDBRANCH   1  12
BRANCH   1  22
ATOM     22  C   UNL     1       7.390   6.608  18.229  0.00  0.00    +0.000 C 
BRANCH  22  23
ATOM     23  C   UNL     1       7.855   7.941  17.633  0.00  0.00    +0.000 C 
BRANCH  23  24
ATOM     24  C   UNL     1       8.633   8.806  18.622  0.00  0.00    +0.000 C 
BRANCH  24  25
ATOM     25  C   UNL     1       8.694  10.242  18.090  0.00  0.00    +0.000 C 
BRANCH  25  26
ATOM     26  C   UNL     1       9.788  11.057  18.767  0.00  0.00    +0.000 C 
BRANCH  26  27
ATOM     27  S   UNL     1       9.615  12.811  18.330  0.00  0.00    +0.000 S 
ATOM     28  H   UNL     1      10.356  13.297  19.339  0.00  0.00    +0.000 HD
ENDBRANCH  26  27
ENDBRANCH  25  26
ENDBRANCH  24  25
ENDBRANCH  23  24
ENDBRANCH  22  23
ENDBRANCH   1  22
TORSDOF 10
ENDMDL
MODEL 5
REMARK VINA RESULT:      -7.3      1.466      1.542
REMARK  Name = 
REMARK  10 active torsions:
REMARK  status: ('A' for Active; 'I' for Inactive)
REMARK    1  A    between atoms: C_4  and  C_5
REMARK    2  A    between atoms: N_7  and  C_8
REMARK    3  A    between atoms: C_8  and  C_9
REMARK    4  A    between atoms: C_8  and  C_15
REMARK    5  A    between atoms: C_9  and  C_10
REMARK    6  A    between atoms: C_10  and  C_11
REMARK    7  A    between atoms: C_11  and  C_12
REMARK    8  A    between atoms: C_12  and  C_13
REMARK    9  A    between atoms: C_13  and  S_14
REMARK   10  A    between atoms: N_17  and  C_18
REMARK                            x       y       z     vdW  Elec       q    Type
REMARK                         _______ _______ _______ _____ _____    ______ ____
ROOT
ATOM      1  C   UNL     1       5.090   6.112  17.534  0.00  0.00    +0.000 C 
ENDROOT
BRANCH   1   4
ATOM      2  C   UNL     1       3.301   4.936  18.842  0.00  0.00    +0.000 C 
ATOM      3  O   UNL     1       3.011   5.956  19.464  0.00  0.00    +0.000 OA
ATOM      4  N   UNL     1       4.295   4.931  17.896  0.00  0.00    +0.000 N 
ATOM      5  H   UNL     1       4.399   4.127  17.285  0.00  0.00    +0.000 HD
BRANCH   2   9
ATOM      6  O   UNL     1       2.075   2.800  22.149  0.00  0.00    +0.000 OA
ATOM      7  C   UNL     1       2.145   2.924  20.951  0.00  0.00    +0.000 C 
ATOM      8  C   UNL     1       1.287   3.485  19.812  0.00  0.00    +0.000 C 
ATOM      9  C   UNL     1       2.617   3.532  19.026  0.00  0.00    +0.000 C 
ATOM     10  N   UNL     1       3.187   2.681  20.107  0.00  0.00    +0.000 N 
ATOM     11  H   UNL     1       4.107   2.735  20.522  0.00  0.00    +0.000 HD
ENDBRANCH   2   9
ENDBRANCH   1   4
BRANCH   1  12
ATOM     12  C   UNL     1       5.347   5.989  16.013  0.00  0.00    +0.000 C 
ATOM     13  O   UNL     1       5.001   6.909  15.266  0.00  0.00    +0.000 OA
ATOM     14  N   UNL     1       5.929   4.801  15.604  0.00  0.00    +0.000 N 
ATOM     15  H   UNL     1       6.001   4.049  16.278  0.00  0.00    +0.000 HD
BRANCH  14  16
ATOM     16  C   UNL     1       6.271   4.475  14.272  0.00  0.00    +0.000 A 
ATOM     17  C   UNL     1       7.375   5.024  13.612  0.00  0.00    +0.000 A 
ATOM     18  C   UNL     1       7.656   4.688  12.286  0.00  0.00    +0.000 A 
ATOM     19  C   UNL     1       6.835   3.797  11.604  0.00  0.00    +0.000 A 
ATOM     20  C   UNL     1       5.742   3.228  12.254  0.00  0.00    +0.000 A 
ATOM     21  C   UNL     1       5.467   3.555  13.587  0.00  0.00    +0.000 A 
ENDBRANCH  14  16
ENDBRANCH   1  12
BRANCH   1  22
ATOM     22  C   UNL     1       6.378   6.171  18.370  0.00  0.00    +0.000 C 
BRANCH  22  23
ATOM     23  C   UNL     1       7.487   6.952  17.656  0.00  0.00    +0.000 C 
BRANCH  23  24
ATOM     24  C   UNL     1       8.338   7.795  18.603  0.00  0.00    +0.000 C 
BRANCH  24  25
ATOM     25  C   UNL     1       8.336   9.248  18.117  0.00  0.00    +0.000 C 
BRANCH  25  26
ATOM     26  C   UNL     1       9.156  10.156  19.024  0.00  0.00    +0.000 C 
BRANCH  26  27
ATOM     27  S   UNL     1       9.334  11.795  18.264  0.00  0.00    +0.000 S 
ATOM     28  H   UNL     1       8.096  12.233  18.544  0.00  0.00    +0.000 HD
ENDBRANCH  26  27
ENDBRANCH  25  26
ENDBRANCH  24  25
ENDBRANCH  23  24
ENDBRANCH  22  23
ENDBRANCH   1  22
TORSDOF 10
ENDMDL
MODEL 6
REMARK VINA RESULT:      -7.1      5.185      8.577
REMARK  Name = 
REMARK  10 active torsions:
REMARK  status: ('A' for Active; 'I' for Inactive)
REMARK    1  A    between atoms: C_4  and  C_5
REMARK    2  A    between atoms: N_7  and  C_8
REMARK    3  A    between atoms: C_8  and  C_9
REMARK    4  A    between atoms: C_8  and  C_15
REMARK    5  A    between atoms: C_9  and  C_10
REMARK    6  A    between atoms: C_10  and  C_11
REMARK    7  A    between atoms: C_11  and  C_12
REMARK    8  A    between atoms: C_12  and  C_13
REMARK    9  A    between atoms: C_13  and  S_14
REMARK   10  A    between atoms: N_17  and  C_18
REMARK                            x       y       z     vdW  Elec       q    Type
REMARK                         _______ _______ _______ _____ _____    ______ ____
ROOT
ATOM      1  C   UNL     1       2.176   5.929  19.603  0.00  0.00    +0.000 C 
ENDROOT
BRANCH   1   4
ATOM      2  C   UNL     1       4.460   5.524  18.649  0.00  0.00    +0.000 C 
ATOM      3  O   UNL     1       4.009   5.292  17.528  0.00  0.00    +0.000 OA
ATOM      4  N   UNL     1       3.638   5.836  19.702  0.00  0.00    +0.000 N 
ATOM      5  H   UNL     1       4.044   6.183  20.566  0.00  0.00    +0.000 HD
BRANCH   2   9
ATOM      6  O   UNL     1       7.878   4.400  16.633  0.00  0.00    +0.000 OA
ATOM      7  C   UNL     1       7.346   4.875  17.607  0.00  0.00    +0.000 C 
ATOM      8  C   UNL     1       6.968   6.264  18.135  0.00  0.00    +0.000 C 
ATOM      9  C   UNL     1       5.982   5.493  19.042  0.00  0.00    +0.000 C 
ATOM     10  N   UNL     1       6.718   4.260  18.648  0.00  0.00    +0.000 N 
ATOM     11  H   UNL     1       6.338   3.344  18.449  0.00  0.00    +0.000 HD
ENDBRANCH   2   9
ENDBRANCH   1   4
BRANCH   1  12
ATOM     12  C   UNL     1       1.840   7.426  19.815  0.00  0.00    +0.000 C 
ATOM     13  O   UNL     1       2.323   8.267  19.051  0.00  0.00    +0.000 OA
ATOM     14  N   UNL     1       1.028   7.703  20.902  0.00  0.00    +0.000 N 
ATOM     15  H   UNL     1       0.843   6.958  21.560  0.00  0.00    +0.000 HD
BRANCH  14  16
ATOM     16  C   UNL     1       0.580   8.990  21.278  0.00  0.00    +0.000 A 
ATOM     17  C   UNL     1       0.775  10.126  20.487  0.00  0.00    +0.000 A 
ATOM     18  C   UNL     1       0.334  11.380  20.915  0.00  0.00    +0.000 A 
ATOM     19  C   UNL     1      -0.310  11.512  22.140  0.00  0.00    +0.000 A 
ATOM     20  C   UNL     1      -0.528  10.385  22.931  0.00  0.00    +0.000 A 
ATOM     21  C   UNL     1      -0.097   9.126  22.497  0.00  0.00    +0.000 A 
ENDBRANCH  14  16
ENDBRANCH   1  12
BRANCH   1  22
ATOM     22  C   UNL     1       1.506   5.002  20.629  0.00  0.00    +0.000 C 
BRANCH  22  23
ATOM     23  C   UNL     1       2.440   3.871  21.072  0.00  0.00    +0.000 C 
BRANCH  23  24
ATOM     24  C   UNL     1       1.978   2.490  20.612  0.00  0.00    +0.000 C 
BRANCH  24  25
ATOM     25  C   UNL     1       1.132   2.643  19.343  0.00  0.00    +0.000 C 
BRANCH  25  26
ATOM     26  C   UNL     1       1.962   2.470  18.078  0.00  0.00    +0.000 C 
BRANCH  26  27
ATOM     27  S   UNL     1       3.533   1.650  18.473  0.00  0.00    +0.000 S 
ATOM     28  H   UNL     1       3.107   1.020  19.579  0.00  0.00    +0.000 HD
ENDBRANCH  26  27
ENDBRANCH  25  26
ENDBRANCH  24  25
ENDBRANCH  23  24
ENDBRANCH  22  23
ENDBRANCH   1  22
TORSDOF 10
ENDMDL
MODEL 7
REMARK VINA RESULT:      -7.1      1.508      1.983
REMARK  Name = 
REMARK  10 active torsions:
REMARK  status: ('A' for Active; 'I' for Inactive)
REMARK    1  A    between atoms: C_4  and  C_5
REMARK    2  A    between atoms: N_7  and  C_8
REMARK    3  A    between atoms: C_8  and  C_9
REMARK    4  A    between atoms: C_8  and  C_15
REMARK    5  A    between atoms: C_9  and  C_10
REMARK    6  A    between atoms: C_10  and  C_11
REMARK    7  A    between atoms: C_11  and  C_12
REMARK    8  A    between atoms: C_12  and  C_13
REMARK    9  A    between atoms: C_13  and  S_14
REMARK   10  A    between atoms: N_17  and  C_18
REMARK                            x       y       z     vdW  Elec       q    Type
REMARK                         _______ _______ _______ _____ _____    ______ ____
ROOT
ATOM      1  C   UNL     1       6.624   6.487  17.589  0.00  0.00    +0.000 C 
ENDROOT
BRANCH   1   4
ATOM      2  C   UNL     1       4.589   5.255  18.385  0.00  0.00    +0.000 C 
ATOM      3  O   UNL     1       3.957   5.533  17.367  0.00  0.00    +0.000 OA
ATOM      4  N   UNL     1       5.880   5.681  18.566  0.00  0.00    +0.000 N 
ATOM      5  H   UNL     1       6.429   5.301  19.331  0.00  0.00    +0.000 HD
BRANCH   2   9
ATOM      6  O   UNL     1       0.924   5.055  20.266  0.00  0.00    +0.000 OA
ATOM      7  C   UNL     1       2.053   4.650  20.128  0.00  0.00    +0.000 C 
ATOM      8  C   UNL     1       2.782   3.550  19.349  0.00  0.00    +0.000 C 
ATOM      9  C   UNL     1       4.042   4.410  19.593  0.00  0.00    +0.000 C 
ATOM     10  N   UNL     1       3.228   5.167  20.585  0.00  0.00    +0.000 N 
ATOM     11  H   UNL     1       3.229   6.163  20.760  0.00  0.00    +0.000 HD
ENDBRANCH   2   9
ENDBRANCH   1   4
BRANCH   1  12
ATOM     12  C   UNL     1       6.967   5.521  16.429  0.00  0.00    +0.000 C 
ATOM     13  O   UNL     1       7.863   4.687  16.584  0.00  0.00    +0.000 OA
ATOM     14  N   UNL     1       6.239   5.709  15.266  0.00  0.00    +0.000 N 
ATOM     15  H   UNL     1       5.662   6.537  15.194  0.00  0.00    +0.000 HD
BRANCH  14  16
ATOM     16  C   UNL     1       6.368   4.937  14.089  0.00  0.00    +0.000 A 
ATOM     17  C   UNL     1       5.489   3.902  13.756  0.00  0.00    +0.000 A 
ATOM     18  C   UNL     1       5.674   3.153  12.592  0.00  0.00    +0.000 A 
ATOM     19  C   UNL     1       6.742   3.431  11.746  0.00  0.00    +0.000 A 
ATOM     20  C   UNL     1       7.615   4.472  12.056  0.00  0.00    +0.000 A 
ATOM     21  C   UNL     1       7.423   5.232  13.216  0.00  0.00    +0.000 A 
ENDBRANCH  14  16
ENDBRANCH   1  12
BRANCH   1  22
ATOM     22  C   UNL     1       7.862   7.121  18.244  0.00  0.00    +0.000 C 
BRANCH  22  23
ATOM     23  C   UNL     1       8.039   8.586  17.833  0.00  0.00    +0.000 C 
BRANCH  23  24
ATOM     24  C   UNL     1       8.833   9.406  18.847  0.00  0.00    +0.000 C 
BRANCH  24  25
ATOM     25  C   UNL     1       9.376  10.663  18.158  0.00  0.00    +0.000 C 
BRANCH  25  26
ATOM     26  C   UNL     1       9.235  11.901  19.033  0.00  0.00    +0.000 C 
BRANCH  26  27
ATOM     27  S   UNL     1      10.461  11.859  20.372  0.00  0.00    +0.000 S 
ATOM     28  H   UNL     1       9.587  11.709  21.380  0.00  0.00    +0.000 HD
ENDBRANCH  26  27
ENDBRANCH  25  26
ENDBRANCH  24  25
ENDBRANCH  23  24
ENDBRANCH  22  23
ENDBRANCH   1  22
TORSDOF 10
ENDMDL
MODEL 8
REMARK VINA RESULT:      -7.1      5.043      8.570
REMARK  Name = 
REMARK  10 active torsions:
REMARK  status: ('A' for Active; 'I' for Inactive)
REMARK    1  A    between atoms: C_4  and  C_5
REMARK    2  A    between atoms: N_7  and  C_8
REMARK    3  A    between atoms: C_8  and  C_9
REMARK    4  A    between atoms: C_8  and  C_15
REMARK    5  A    between atoms: C_9  and  C_10
REMARK    6  A    between atoms: C_10  and  C_11
REMARK    7  A    between atoms: C_11  and  C_12
REMARK    8  A    between atoms: C_12  and  C_13
REMARK    9  A    between atoms: C_13  and  S_14
REMARK   10  A    between atoms: N_17  and  C_18
REMARK                            x       y       z     vdW  Elec       q    Type
REMARK                         _______ _______ _______ _____ _____    ______ ____
ROOT
ATOM      1  C   UNL     1       2.439   5.784  19.733  0.00  0.00    +0.000 C 
ENDROOT
BRANCH   1   4
ATOM      2  C   UNL     1       4.534   5.414  18.403  0.00  0.00    +0.000 C 
ATOM      3  O   UNL     1       3.907   4.989  17.434  0.00  0.00    +0.000 OA
ATOM      4  N   UNL     1       3.896   5.815  19.550  0.00  0.00    +0.000 N 
ATOM      5  H   UNL     1       4.419   6.313  20.264  0.00  0.00    +0.000 HD
BRANCH   2   9
ATOM      6  O   UNL     1       7.525   5.429  15.564  0.00  0.00    +0.000 OA
ATOM      7  C   UNL     1       7.171   5.552  16.711  0.00  0.00    +0.000 C 
ATOM      8  C   UNL     1       6.758   6.682  17.661  0.00  0.00    +0.000 C 
ATOM      9  C   UNL     1       6.098   5.554  18.486  0.00  0.00    +0.000 C 
ATOM     10  N   UNL     1       6.869   4.601  17.639  0.00  0.00    +0.000 N 
ATOM     11  H   UNL     1       6.566   3.711  17.270  0.00  0.00    +0.000 HD
ENDBRANCH   2   9
ENDBRANCH   1   4
BRANCH   1  12
ATOM     12  C   UNL     1       2.009   7.263  19.892  0.00  0.00    +0.000 C 
ATOM     13  O   UNL     1       2.390   8.095  19.065  0.00  0.00    +0.000 OA
ATOM     14  N   UNL     1       1.239   7.539  21.010  0.00  0.00    +0.000 N 
ATOM     15  H   UNL     1       1.142   6.817  21.712  0.00  0.00    +0.000 HD
BRANCH  14  16
ATOM     16  C   UNL     1       0.721   8.809  21.350  0.00  0.00    +0.000 A 
ATOM     17  C   UNL     1       0.176   9.098  22.605  0.00  0.00    +0.000 A 
ATOM     18  C   UNL     1      -0.345  10.363  22.885  0.00  0.00    +0.000 A 
ATOM     19  C   UNL     1      -0.328  11.355  21.911  0.00  0.00    +0.000 A 
ATOM     20  C   UNL     1       0.228  11.087  20.661  0.00  0.00    +0.000 A 
ATOM     21  C   UNL     1       0.763   9.823  20.385  0.00  0.00    +0.000 A 
ENDBRANCH  14  16
ENDBRANCH   1  12
BRANCH   1  22
ATOM     22  C   UNL     1       2.065   4.905  20.937  0.00  0.00    +0.000 C 
BRANCH  22  23
ATOM     23  C   UNL     1       1.044   3.826  20.562  0.00  0.00    +0.000 C 
BRANCH  23  24
ATOM     24  C   UNL     1       1.664   2.443  20.383  0.00  0.00    +0.000 C 
BRANCH  24  25
ATOM     25  C   UNL     1       1.860   2.172  18.888  0.00  0.00    +0.000 C 
BRANCH  25  26
ATOM     26  C   UNL     1       3.276   1.713  18.570  0.00  0.00    +0.000 C 
BRANCH  26  27
ATOM     27  S   UNL     1       4.372   2.064  19.975  0.00  0.00    +0.000 S 
ATOM     28  H   UNL     1       4.725   0.793  20.220  0.00  0.00    +0.000 HD
ENDBRANCH  26  27
ENDBRANCH  25  26
ENDBRANCH  24  25
ENDBRANCH  23  24
ENDBRANCH  22  23
ENDBRANCH   1  22
TORSDOF 10
ENDMDL
MODEL 9
REMARK VINA RESULT:      -7.0      1.330      1.711
REMARK  Name = 
REMARK  10 active torsions:
REMARK  status: ('A' for Active; 'I' for Inactive)
REMARK    1  A    between atoms: C_4  and  C_5
REMARK    2  A    between atoms: N_7  and  C_8
REMARK    3  A    between atoms: C_8  and  C_9
REMARK    4  A    between atoms: C_8  and  C_15
REMARK    5  A    between atoms: C_9  and  C_10
REMARK    6  A    between atoms: C_10  and  C_11
REMARK    7  A    between atoms: C_11  and  C_12
REMARK    8  A    between atoms: C_12  and  C_13
REMARK    9  A    between atoms: C_13  and  S_14
REMARK   10  A    between atoms: N_17  and  C_18
REMARK                            x       y       z     vdW  Elec       q    Type
REMARK                         _______ _______ _______ _____ _____    ______ ____
ROOT
ATOM      1  C   UNL     1       6.101   5.642  17.704  0.00  0.00    +0.000 C 
ENDROOT
BRANCH   1   4
ATOM      2  C   UNL     1       4.023   4.540  18.576  0.00  0.00    +0.000 C 
ATOM      3  O   UNL     1       3.409   5.606  18.610  0.00  0.00    +0.000 OA
ATOM      4  N   UNL     1       5.327   4.477  18.153  0.00  0.00    +0.000 N 
ATOM      5  H   UNL     1       5.751   3.572  17.976  0.00  0.00    +0.000 HD
BRANCH   2   9
ATOM      6  O   UNL     1       5.297   1.630  21.205  0.00  0.00    +0.000 OA
ATOM      7  C   UNL     1       4.467   2.059  20.441  0.00  0.00    +0.000 C 
ATOM      8  C   UNL     1       3.188   2.902  20.505  0.00  0.00    +0.000 C 
ATOM      9  C   UNL     1       3.443   3.142  18.999  0.00  0.00    +0.000 C 
ATOM     10  N   UNL     1       4.437   2.036  19.079  0.00  0.00    +0.000 N 
ATOM     11  H   UNL     1       5.337   1.974  18.624  0.00  0.00    +0.000 HD
ENDBRANCH   2   9
ENDBRANCH   1   4
BRANCH   1  12
ATOM     12  C   UNL     1       5.989   5.646  16.160  0.00  0.00    +0.000 C 
ATOM     13  O   UNL     1       5.397   6.573  15.600  0.00  0.00    +0.000 OA
ATOM     14  N   UNL     1       6.548   4.551  15.521  0.00  0.00    +0.000 N 
ATOM     15  H   UNL     1       6.843   3.768  16.090  0.00  0.00    +0.000 HD
BRANCH  14  16
ATOM     16  C   UNL     1       6.579   4.350  14.123  0.00  0.00    +0.000 A 
ATOM     17  C   UNL     1       5.693   3.498  13.456  0.00  0.00    +0.000 A 
ATOM     18  C   UNL     1       5.780   3.315  12.075  0.00  0.00    +0.000 A 
ATOM     19  C   UNL     1       6.755   3.983  11.343  0.00  0.00    +0.000 A 
ATOM     20  C   UNL     1       7.633   4.849  11.991  0.00  0.00    +0.000 A 
ATOM     21  C   UNL     1       7.538   5.043  13.374  0.00  0.00    +0.000 A 
ENDBRANCH  14  16
ENDBRANCH   1  12
BRANCH   1  22
ATOM     22  C   UNL     1       7.550   5.553  18.211  0.00  0.00    +0.000 C 
BRANCH  22  23
ATOM     23  C   UNL     1       7.992   6.844  18.906  0.00  0.00    +0.000 C 
BRANCH  23  24
ATOM     24  C   UNL     1       8.033   8.051  17.972  0.00  0.00    +0.000 C 
BRANCH  24  25
ATOM     25  C   UNL     1       8.740   9.210  18.682  0.00  0.00    +0.000 C 
BRANCH  25  26
ATOM     26  C   UNL     1       8.636  10.511  17.898  0.00  0.00    +0.000 C 
BRANCH  26  27
ATOM     27  S   UNL     1      10.180  11.454  18.052  0.00  0.00    +0.000 S 
ATOM     28  H   UNL     1      10.965  10.415  18.381  0.00  0.00    +0.000 HD
ENDBRANCH  26  27
ENDBRANCH  25  26
ENDBRANCH  24  25
ENDBRANCH  23  24
ENDBRANCH  22  23
ENDBRANCH   1  22
TORSDOF 10
ENDMDL
