MODEL 1
REMARK VINA RESULT:      -7.4      0.000      0.000
REMARK  Name = 
REMARK  7 active torsions:
REMARK  status: ('A' for Active; 'I' for Inactive)
REMARK    1  A    between atoms: C_1  and  C_2
REMARK    2  A    between atoms: C_2  and  C_3
REMARK    3  A    between atoms: C_9  and  C_10
REMARK    4  A    between atoms: C_10  and  N_11
REMARK    5  A    between atoms: N_11  and  C_12
REMARK    6  A    between atoms: C_12  and  C_13
REMARK    7  A    between atoms: C_21  and  O_22
REMARK                            x       y       z     vdW  Elec       q    Type
REMARK                         _______ _______ _______ _____ _____    ______ ____
ROOT
ATOM      1  C   UNL     1       1.670   7.418  20.216  0.00  0.00    +0.000 A 
ATOM      2  C   UNL     1       1.907   8.280  19.215  0.00  0.00    +0.000 A 
ATOM      3  C   UNL     1       2.556   7.919  17.948  0.00  0.00    +0.000 A 
ATOM      4  O   UNL     1       2.780   8.767  17.093  0.00  0.00    +0.000 OA
ATOM      5  O   UNL     1       2.891   6.589  17.781  0.00  0.00    +0.000 OA
ATOM      6  C   UNL     1       2.685   5.627  18.799  0.00  0.00    +0.000 A 
ATOM      7  C   UNL     1       3.107   4.304  18.521  0.00  0.00    +0.000 A 
ATOM      8  C   UNL     1       2.948   3.373  19.556  0.00  0.00    +0.000 A 
ATOM      9  C   UNL     1       2.372   3.730  20.774  0.00  0.00    +0.000 A 
ATOM     10  C   UNL     1       1.973   5.046  21.014  0.00  0.00    +0.000 A 
ATOM     11  C   UNL     1       2.107   6.020  20.025  0.00  0.00    +0.000 A 
ENDROOT
BRANCH   1  13
ATOM     12  C   UNL     1       0.131   9.145  21.417  0.00  0.00    +0.000 C 
ATOM     13  C   UNL     1       1.048   7.925  21.506  0.00  0.00    +0.000 C 
ENDBRANCH   1  13
BRANCH   8  14
ATOM     14  O   UNL     1       3.367   2.074  19.463  0.00  0.00    +0.000 OA
ATOM     15  H   UNL     1       4.235   2.059  19.024  0.00  0.00    +0.000 HD
ENDBRANCH   8  14
BRANCH   7  16
ATOM     16  C   UNL     1       3.724   3.921  17.184  0.00  0.00    +0.000 C 
BRANCH  16  17
ATOM     17  N   UNL     1       5.099   3.413  17.356  0.00  0.00    +0.000 NA
ATOM     18  H   UNL     1       5.079   2.420  17.107  0.00  0.00    +0.000 HD
BRANCH  17  19
ATOM     19  C   UNL     1       6.056   4.067  16.450  0.00  0.00    +0.000 C 
BRANCH  19  20
ATOM     20  C   UNL     1       6.582   5.373  16.995  0.00  0.00    +0.000 A 
ATOM     21  C   UNL     1       7.561   5.327  18.006  0.00  0.00    +0.000 A 
ATOM     22  F   UNL     1       7.983   4.146  18.461  0.00  0.00    +0.000 F 
ATOM     23  C   UNL     1       8.126   6.478  18.550  0.00  0.00    +0.000 A 
ATOM     24  C   UNL     1       7.729   7.734  18.101  0.00  0.00    +0.000 A 
ATOM     25  C   UNL     1       6.753   7.811  17.106  0.00  0.00    +0.000 A 
ATOM     26  C   UNL     1       6.169   6.643  16.568  0.00  0.00    +0.000 A 
ATOM     27 CL   UNL     1       4.972   6.862  15.346  0.00  0.00    +0.000 Cl
ENDBRANCH  19  20
ENDBRANCH  17  19
ENDBRANCH  16  17
ENDBRANCH   7  16
TORSDOF 6
ENDMDL
MODEL 2
REMARK VINA RESULT:      -7.3      3.082      5.979
REMARK  Name = 
REMARK  7 active torsions:
REMARK  status: ('A' for Active; 'I' for Inactive)
REMARK    1  A    between atoms: C_1  and  C_2
REMARK    2  A    between atoms: C_2  and  C_3
REMARK    3  A    between atoms: C_9  and  C_10
REMARK    4  A    between atoms: C_10  and  N_11
REMARK    5  A    between atoms: N_11  and  C_12
REMARK    6  A    between atoms: C_12  and  C_13
REMARK    7  A    between atoms: C_21  and  O_22
REMARK                            x       y       z     vdW  Elec       q    Type
REMARK                         _______ _______ _______ _____ _____    ______ ____
ROOT
ATOM      1  C   UNL     1       5.635   4.137  17.020  0.00  0.00    +0.000 A 
ATOM      2  C   UNL     1       6.537   4.757  17.796  0.00  0.00    +0.000 A 
ATOM      3  C   UNL     1       6.260   5.258  19.149  0.00  0.00    +0.000 A 
ATOM      4  O   UNL     1       7.120   5.854  19.786  0.00  0.00    +0.000 OA
ATOM      5  O   UNL     1       4.995   5.021  19.650  0.00  0.00    +0.000 OA
ATOM      6  C   UNL     1       3.988   4.386  18.883  0.00  0.00    +0.000 A 
ATOM      7  C   UNL     1       2.720   4.236  19.495  0.00  0.00    +0.000 A 
ATOM      8  C   UNL     1       1.717   3.657  18.707  0.00  0.00    +0.000 A 
ATOM      9  C   UNL     1       1.972   3.222  17.408  0.00  0.00    +0.000 A 
ATOM     10  C   UNL     1       3.233   3.392  16.835  0.00  0.00    +0.000 A 
ATOM     11  C   UNL     1       4.274   3.964  17.567  0.00  0.00    +0.000 A 
ENDROOT
BRANCH   1  13
ATOM     12  C   UNL     1       5.945   4.778  14.513  0.00  0.00    +0.000 C 
ATOM     13  C   UNL     1       6.024   3.719  15.612  0.00  0.00    +0.000 C 
ENDBRANCH   1  13
BRANCH   8  14
ATOM     14  O   UNL     1       0.426   3.504  19.135  0.00  0.00    +0.000 OA
ATOM     15  H   UNL     1       0.279   2.566  19.346  0.00  0.00    +0.000 HD
ENDBRANCH   8  14
BRANCH   7  16
ATOM     16  C   UNL     1       2.453   4.703  20.919  0.00  0.00    +0.000 C 
BRANCH  16  17
ATOM     17  N   UNL     1       1.512   5.839  20.942  0.00  0.00    +0.000 NA
ATOM     18  H   UNL     1       0.950   5.739  21.792  0.00  0.00    +0.000 HD
BRANCH  17  19
ATOM     19  C   UNL     1       2.202   7.137  21.029  0.00  0.00    +0.000 C 
BRANCH  19  20
ATOM     20  C   UNL     1       1.574   8.195  20.154  0.00  0.00    +0.000 A 
ATOM     21  C   UNL     1       2.010   8.302  18.820  0.00  0.00    +0.000 A 
ATOM     22  F   UNL     1       2.967   7.487  18.372  0.00  0.00    +0.000 F 
ATOM     23  C   UNL     1       1.470   9.228  17.930  0.00  0.00    +0.000 A 
ATOM     24  C   UNL     1       0.462  10.093  18.345  0.00  0.00    +0.000 A 
ATOM     25  C   UNL     1       0.015  10.017  19.665  0.00  0.00    +0.000 A 
ATOM     26  C   UNL     1       0.577   9.089  20.570  0.00  0.00    +0.000 A 
ATOM     27 CL   UNL     1      -0.053   9.088  22.175  0.00  0.00    +0.000 Cl
ENDBRANCH  19  20
ENDBRANCH  17  19
ENDBRANCH  16  17
ENDBRANCH   7  16
TORSDOF 6
ENDMDL
MODEL 3
REMARK VINA RESULT:      -7.2      1.246      1.349
REMARK  Name = 
REMARK  7 active torsions:
REMARK  status: ('A' for Active; 'I' for Inactive)
REMARK    1  A    between atoms: C_1  and  C_2
REMARK    2  A    between atoms: C_2  and  C_3
REMARK    3  A    between atoms: C_9  and  C_10
REMARK    4  A    between atoms: C_10  and  N_11
REMARK    5  A    between atoms: N_11  and  C_12
REMARK    6  A    between atoms: C_12  and  C_13
REMARK    7  A    between atoms: C_21  and  O_22
REMARK                            x       y       z     vdW  Elec       q    Type
REMARK                         _______ _______ _______ _____ _____    ______ ____
ROOT
ATOM      1  C   UNL     1       1.850   7.218  20.284  0.00  0.00    +0.000 A 
ATOM      2  C   UNL     1       2.138   8.018  19.245  0.00  0.00    +0.000 A 
ATOM      3  C   UNL     1       2.458   7.536  17.895  0.00  0.00    +0.000 A 
ATOM      4  O   UNL     1       2.754   8.321  17.002  0.00  0.00    +0.000 OA
ATOM      5  O   UNL     1       2.405   6.171  17.695  0.00  0.00    +0.000 OA
ATOM      6  C   UNL     1       2.123   5.267  18.747  0.00  0.00    +0.000 A 
ATOM      7  C   UNL     1       2.137   3.887  18.424  0.00  0.00    +0.000 A 
ATOM      8  C   UNL     1       1.911   3.000  19.484  0.00  0.00    +0.000 A 
ATOM      9  C   UNL     1       1.651   3.460  20.774  0.00  0.00    +0.000 A 
ATOM     10  C   UNL     1       1.651   4.826  21.057  0.00  0.00    +0.000 A 
ATOM     11  C   UNL     1       1.872   5.761  20.045  0.00  0.00    +0.000 A 
ENDROOT
BRANCH   1  13
ATOM     12  C   UNL     1       0.526   8.918  21.750  0.00  0.00    +0.000 C 
ATOM     13  C   UNL     1       1.596   7.832  21.650  0.00  0.00    +0.000 C 
ENDBRANCH   1  13
BRANCH   8  14
ATOM     14  O   UNL     1       1.957   1.641  19.343  0.00  0.00    +0.000 OA
ATOM     15  H   UNL     1       2.103   1.243  20.219  0.00  0.00    +0.000 HD
ENDBRANCH   8  14
BRANCH   7  16
ATOM     16  C   UNL     1       2.410   3.395  17.010  0.00  0.00    +0.000 C 
BRANCH  16  17
ATOM     17  N   UNL     1       3.624   4.022  16.451  0.00  0.00    +0.000 NA
ATOM     18  H   UNL     1       3.598   5.009  16.723  0.00  0.00    +0.000 HD
BRANCH  17  19
ATOM     19  C   UNL     1       4.859   3.451  17.013  0.00  0.00    +0.000 C 
BRANCH  19  20
ATOM     20  C   UNL     1       5.835   4.505  17.477  0.00  0.00    +0.000 A 
ATOM     21  C   UNL     1       5.959   4.735  18.861  0.00  0.00    +0.000 A 
ATOM     22  F   UNL     1       5.210   4.035  19.714  0.00  0.00    +0.000 F 
ATOM     23  C   UNL     1       6.853   5.666  19.385  0.00  0.00    +0.000 A 
ATOM     24  C   UNL     1       7.665   6.413  18.537  0.00  0.00    +0.000 A 
ATOM     25  C   UNL     1       7.558   6.214  17.160  0.00  0.00    +0.000 A 
ATOM     26  C   UNL     1       6.638   5.282  16.630  0.00  0.00    +0.000 A 
ATOM     27 CL   UNL     1       6.592   5.123  14.913  0.00  0.00    +0.000 Cl
ENDBRANCH  19  20
ENDBRANCH  17  19
ENDBRANCH  16  17
ENDBRANCH   7  16
TORSDOF 6
ENDMDL
MODEL 4
REMARK VINA RESULT:      -7.2      2.623      4.869
REMARK  Name = 
REMARK  7 active torsions:
REMARK  status: ('A' for Active; 'I' for Inactive)
REMARK    1  A    between atoms: C_1  and  C_2
REMARK    2  A    between atoms: C_2  and  C_3
REMARK    3  A    between atoms: C_9  and  C_10
REMARK    4  A    between atoms: C_10  and  N_11
REMARK    5  A    between atoms: N_11  and  C_12
REMARK    6  A    between atoms: C_12  and  C_13
REMARK    7  A    between atoms: C_21  and  O_22
REMARK                            x       y       z     vdW  Elec       q    Type
REMARK                         _______ _______ _______ _____ _____    ______ ____
ROOT
ATOM      1  C   UNL     1       2.635   3.526  20.148  0.00  0.00    +0.000 A 
ATOM      2  C   UNL     1       3.363   2.478  20.565  0.00  0.00    +0.000 A 
ATOM      3  C   UNL     1       4.795   2.304  20.290  0.00  0.00    +0.000 A 
ATOM      4  O   UNL     1       5.388   1.300  20.665  0.00  0.00    +0.000 OA
ATOM      5  O   UNL     1       5.420   3.321  19.598  0.00  0.00    +0.000 OA
ATOM      6  C   UNL     1       4.714   4.448  19.114  0.00  0.00    +0.000 A 
ATOM      7  C   UNL     1       5.461   5.404  18.383  0.00  0.00    +0.000 A 
ATOM      8  C   UNL     1       4.741   6.488  17.863  0.00  0.00    +0.000 A 
ATOM      9  C   UNL     1       3.373   6.627  18.089  0.00  0.00    +0.000 A 
ATOM     10  C   UNL     1       2.668   5.662  18.809  0.00  0.00    +0.000 A 
ATOM     11  C   UNL     1       3.327   4.558  19.351  0.00  0.00    +0.000 A 
ENDROOT
BRANCH   1  13
ATOM     12  C   UNL     1       0.204   2.943  19.409  0.00  0.00    +0.000 C 
ATOM     13  C   UNL     1       1.145   3.563  20.442  0.00  0.00    +0.000 C 
ENDBRANCH   1  13
BRANCH   8  14
ATOM     14  O   UNL     1       5.309   7.457  17.083  0.00  0.00    +0.000 OA
ATOM     15  H   UNL     1       6.094   7.804  17.543  0.00  0.00    +0.000 HD
ENDBRANCH   8  14
BRANCH   7  16
ATOM     16  C   UNL     1       6.958   5.250  18.152  0.00  0.00    +0.000 C 
BRANCH  16  17
ATOM     17  N   UNL     1       7.232   4.487  16.918  0.00  0.00    +0.000 NA
ATOM     18  H   UNL     1       6.404   3.912  16.738  0.00  0.00    +0.000 HD
BRANCH  17  19
ATOM     19  C   UNL     1       7.416   5.360  15.749  0.00  0.00    +0.000 C 
BRANCH  19  20
ATOM     20  C   UNL     1       6.904   4.744  14.469  0.00  0.00    +0.000 A 
ATOM     21  C   UNL     1       7.651   4.937  13.291  0.00  0.00    +0.000 A 
ATOM     22  F   UNL     1       8.769   5.664  13.331  0.00  0.00    +0.000 F 
ATOM     23  C   UNL     1       7.274   4.384  12.069  0.00  0.00    +0.000 A 
ATOM     24  C   UNL     1       6.122   3.608  11.977  0.00  0.00    +0.000 A 
ATOM     25  C   UNL     1       5.357   3.406  13.126  0.00  0.00    +0.000 A 
ATOM     26  C   UNL     1       5.732   3.983  14.360  0.00  0.00    +0.000 A 
ATOM     27 CL   UNL     1       4.708   3.667  15.711  0.00  0.00    +0.000 Cl
ENDBRANCH  19  20
ENDBRANCH  17  19
ENDBRANCH  16  17
ENDBRANCH   7  16
TORSDOF 6
ENDMDL
MODEL 5
REMARK VINA RESULT:      -7.1      2.649      4.900
REMARK  Name = 
REMARK  7 active torsions:
REMARK  status: ('A' for Active; 'I' for Inactive)
REMARK    1  A    between atoms: C_1  and  C_2
REMARK    2  A    between atoms: C_2  and  C_3
REMARK    3  A    between atoms: C_9  and  C_10
REMARK    4  A    between atoms: C_10  and  N_11
REMARK    5  A    between atoms: N_11  and  C_12
REMARK    6  A    between atoms: C_12  and  C_13
REMARK    7  A    between atoms: C_21  and  O_22
REMARK                            x       y       z     vdW  Elec       q    Type
REMARK                         _______ _______ _______ _____ _____    ______ ____
ROOT
ATOM      1  C   UNL     1       2.714   3.873  19.872  0.00  0.00    +0.000 A 
ATOM      2  C   UNL     1       3.339   2.794  20.370  0.00  0.00    +0.000 A 
ATOM      3  C   UNL     1       4.766   2.504  20.181  0.00  0.00    +0.000 A 
ATOM      4  O   UNL     1       5.262   1.477  20.627  0.00  0.00    +0.000 OA
ATOM      5  O   UNL     1       5.501   3.442  19.484  0.00  0.00    +0.000 OA
ATOM      6  C   UNL     1       4.908   4.596  18.918  0.00  0.00    +0.000 A 
ATOM      7  C   UNL     1       5.762   5.462  18.192  0.00  0.00    +0.000 A 
ATOM      8  C   UNL     1       5.152   6.571  17.590  0.00  0.00    +0.000 A 
ATOM      9  C   UNL     1       3.789   6.820  17.735  0.00  0.00    +0.000 A 
ATOM     10  C   UNL     1       2.977   5.941  18.454  0.00  0.00    +0.000 A 
ATOM     11  C   UNL     1       3.522   4.817  19.074  0.00  0.00    +0.000 A 
ENDROOT
BRANCH   1  13
ATOM     12  C   UNL     1       0.302   2.969  19.477  0.00  0.00    +0.000 C 
ATOM     13  C   UNL     1       1.218   4.032  20.082  0.00  0.00    +0.000 C 
ENDBRANCH   1  13
BRANCH   8  14
ATOM     14  O   UNL     1       5.832   7.461  16.805  0.00  0.00    +0.000 OA
ATOM     15  H   UNL     1       6.225   6.978  16.057  0.00  0.00    +0.000 HD
ENDBRANCH   8  14
BRANCH   7  16
ATOM     16  C   UNL     1       7.252   5.189  18.049  0.00  0.00    +0.000 C 
BRANCH  16  17
ATOM     17  N   UNL     1       7.568   4.631  16.720  0.00  0.00    +0.000 NA
ATOM     18  H   UNL     1       6.990   3.793  16.608  0.00  0.00    +0.000 HD
BRANCH  17  19
ATOM     19  C   UNL     1       7.215   5.550  15.627  0.00  0.00    +0.000 C 
BRANCH  19  20
ATOM     20  C   UNL     1       6.831   4.831  14.356  0.00  0.00    +0.000 A 
ATOM     21  C   UNL     1       5.671   4.032  14.367  0.00  0.00    +0.000 A 
ATOM     22  F   UNL     1       4.960   3.919  15.489  0.00  0.00    +0.000 F 
ATOM     23  C   UNL     1       5.222   3.354  13.236  0.00  0.00    +0.000 A 
ATOM     24  C   UNL     1       5.923   3.449  12.037  0.00  0.00    +0.000 A 
ATOM     25  C   UNL     1       7.081   4.226  11.998  0.00  0.00    +0.000 A 
ATOM     26  C   UNL     1       7.544   4.898  13.151  0.00  0.00    +0.000 A 
ATOM     27 CL   UNL     1       8.988   5.827  12.984  0.00  0.00    +0.000 Cl
ENDBRANCH  19  20
ENDBRANCH  17  19
ENDBRANCH  16  17
ENDBRANCH   7  16
TORSDOF 6
ENDMDL
MODEL 6
REMARK VINA RESULT:      -7.0      3.067      6.063
REMARK  Name = 
REMARK  7 active torsions:
REMARK  status: ('A' for Active; 'I' for Inactive)
REMARK    1  A    between atoms: C_1  and  C_2
REMARK    2  A    between atoms: C_2  and  C_3
REMARK    3  A    between atoms: C_9  and  C_10
REMARK    4  A    between atoms: C_10  and  N_11
REMARK    5  A    between atoms: N_11  and  C_12
REMARK    6  A    between atoms: C_12  and  C_13
REMARK    7  A    between atoms: C_21  and  O_22
REMARK                            x       y       z     vdW  Elec       q    Type
REMARK                         _______ _______ _______ _____ _____    ______ ____
ROOT
ATOM      1  C   UNL     1       4.955   6.071  17.058  0.00  0.00    +0.000 A 
ATOM      2  C   UNL     1       5.501   5.105  17.814  0.00  0.00    +0.000 A 
ATOM      3  C   UNL     1       5.094   4.804  19.192  0.00  0.00    +0.000 A 
ATOM      4  O   UNL     1       5.665   3.935  19.840  0.00  0.00    +0.000 OA
ATOM      5  O   UNL     1       4.046   5.544  19.704  0.00  0.00    +0.000 OA
ATOM      6  C   UNL     1       3.432   6.587  18.971  0.00  0.00    +0.000 A 
ATOM      7  C   UNL     1       2.395   7.299  19.622  0.00  0.00    +0.000 A 
ATOM      8  C   UNL     1       1.832   8.365  18.907  0.00  0.00    +0.000 A 
ATOM      9  C   UNL     1       2.252   8.677  17.615  0.00  0.00    +0.000 A 
ATOM     10  C   UNL     1       3.282   7.957  17.008  0.00  0.00    +0.000 A 
ATOM     11  C   UNL     1       3.884   6.886  17.668  0.00  0.00    +0.000 A 
ENDROOT
BRANCH   1  13
ATOM     12  C   UNL     1       5.717   5.122  14.753  0.00  0.00    +0.000 C 
ATOM     13  C   UNL     1       5.505   6.330  15.666  0.00  0.00    +0.000 C 
ENDBRANCH   1  13
BRANCH   8  14
ATOM     14  O   UNL     1       0.868   9.185  19.425  0.00  0.00    +0.000 OA
ATOM     15  H   UNL     1       0.973   9.216  20.392  0.00  0.00    +0.000 HD
ENDBRANCH   8  14
BRANCH   7  16
ATOM     16  C   UNL     1       1.935   6.944  21.028  0.00  0.00    +0.000 C 
BRANCH  16  17
ATOM     17  N   UNL     1       1.907   5.482  21.228  0.00  0.00    +0.000 NA
ATOM     18  H   UNL     1       1.569   5.322  22.182  0.00  0.00    +0.000 HD
BRANCH  17  19
ATOM     19  C   UNL     1       0.968   4.809  20.317  0.00  0.00    +0.000 C 
BRANCH  19  20
ATOM     20  C   UNL     1       1.626   3.737  19.482  0.00  0.00    +0.000 A 
ATOM     21  C   UNL     1       1.649   3.902  18.084  0.00  0.00    +0.000 A 
ATOM     22  F   UNL     1       1.082   4.980  17.538  0.00  0.00    +0.000 F 
ATOM     23  C   UNL     1       2.258   2.982  17.234  0.00  0.00    +0.000 A 
ATOM     24  C   UNL     1       2.873   1.847  17.755  0.00  0.00    +0.000 A 
ATOM     25  C   UNL     1       2.858   1.652  19.136  0.00  0.00    +0.000 A 
ATOM     26  C   UNL     1       2.225   2.578  19.994  0.00  0.00    +0.000 A 
ATOM     27 CL   UNL     1       2.268   2.231  21.683  0.00  0.00    +0.000 Cl
ENDBRANCH  19  20
ENDBRANCH  17  19
ENDBRANCH  16  17
ENDBRANCH   7  16
TORSDOF 6
ENDMDL
MODEL 7
REMARK VINA RESULT:      -7.0      3.727      5.520
REMARK  Name = 
REMARK  7 active torsions:
REMARK  status: ('A' for Active; 'I' for Inactive)
REMARK    1  A    between atoms: C_1  and  C_2
REMARK    2  A    between atoms: C_2  and  C_3
REMARK    3  A    between atoms: C_9  and  C_10
REMARK    4  A    between atoms: C_10  and  N_11
REMARK    5  A    between atoms: N_11  and  C_12
REMARK    6  A    between atoms: C_12  and  C_13
REMARK    7  A    between atoms: C_21  and  O_22
REMARK                            x       y       z     vdW  Elec       q    Type
REMARK                         _______ _______ _______ _____ _____    ______ ____
ROOT
ATOM      1  C   UNL     1       0.049  10.566  20.066  0.00  0.00    +0.000 A 
ATOM      2  C   UNL     1      -0.297  10.330  21.342  0.00  0.00    +0.000 A 
ATOM      3  C   UNL     1       0.139   9.160  22.114  0.00  0.00    +0.000 A 
ATOM      4  O   UNL     1      -0.250   8.985  23.263  0.00  0.00    +0.000 OA
ATOM      5  O   UNL     1       0.999   8.285  21.480  0.00  0.00    +0.000 OA
ATOM      6  C   UNL     1       1.394   8.461  20.133  0.00  0.00    +0.000 A 
ATOM      7  C   UNL     1       2.247   7.473  19.584  0.00  0.00    +0.000 A 
ATOM      8  C   UNL     1       2.587   7.629  18.233  0.00  0.00    +0.000 A 
ATOM      9  C   UNL     1       2.136   8.718  17.490  0.00  0.00    +0.000 A 
ATOM     10  C   UNL     1       1.291   9.669  18.063  0.00  0.00    +0.000 A 
ATOM     11  C   UNL     1       0.914   9.570  19.403  0.00  0.00    +0.000 A 
ENDROOT
BRANCH   1  13
ATOM     12  C   UNL     1      -0.108  13.160  19.869  0.00  0.00    +0.000 C 
ATOM     13  C   UNL     1      -0.518  11.781  19.352  0.00  0.00    +0.000 C 
ENDBRANCH   1  13
BRANCH   8  14
ATOM     14  O   UNL     1       3.349   6.724  17.546  0.00  0.00    +0.000 OA
ATOM     15  H   UNL     1       3.707   7.160  16.753  0.00  0.00    +0.000 HD
ENDBRANCH   8  14
BRANCH   7  16
ATOM     16  C   UNL     1       2.746   6.293  20.406  0.00  0.00    +0.000 C 
BRANCH  16  17
ATOM     17  N   UNL     1       1.627   5.590  21.064  0.00  0.00    +0.000 NA
ATOM     18  H   UNL     1       0.974   6.312  21.384  0.00  0.00    +0.000 HD
BRANCH  17  19
ATOM     19  C   UNL     1       0.889   4.719  20.137  0.00  0.00    +0.000 C 
BRANCH  19  20
ATOM     20  C   UNL     1       1.784   3.748  19.406  0.00  0.00    +0.000 A 
ATOM     21  C   UNL     1       1.824   3.809  17.999  0.00  0.00    +0.000 A 
ATOM     22  F   UNL     1       1.069   4.701  17.357  0.00  0.00    +0.000 F 
ATOM     23  C   UNL     1       2.641   2.974  17.239  0.00  0.00    +0.000 A 
ATOM     24  C   UNL     1       3.457   2.035  17.863  0.00  0.00    +0.000 A 
ATOM     25  C   UNL     1       3.431   1.945  19.255  0.00  0.00    +0.000 A 
ATOM     26  C   UNL     1       2.589   2.780  20.022  0.00  0.00    +0.000 A 
ATOM     27 CL   UNL     1       2.640   2.577  21.734  0.00  0.00    +0.000 Cl
ENDBRANCH  19  20
ENDBRANCH  17  19
ENDBRANCH  16  17
ENDBRANCH   7  16
TORSDOF 6
ENDMDL
MODEL 8
REMARK VINA RESULT:      -7.0      1.735      1.921
REMARK  Name = 
REMARK  7 active torsions:
REMARK  status: ('A' for Active; 'I' for Inactive)
REMARK    1  A    between atoms: C_1  and  C_2
REMARK    2  A    between atoms: C_2  and  C_3
REMARK    3  A    between atoms: C_9  and  C_10
REMARK    4  A    between atoms: C_10  and  N_11
REMARK    5  A    between atoms: N_11  and  C_12
REMARK    6  A    between atoms: C_12  and  C_13
REMARK    7  A    between atoms: C_21  and  O_22
REMARK                            x       y       z     vdW  Elec       q    Type
REMARK                         _______ _______ _______ _____ _____    ______ ____
ROOT
ATOM      1  C   UNL     1       1.715   6.838  20.124  0.00  0.00    +0.000 A 
ATOM      2  C   UNL     1       2.404   7.618  19.276  0.00  0.00    +0.000 A 
ATOM      3  C   UNL     1       3.086   7.128  18.071  0.00  0.00    +0.000 A 
ATOM      4  O   UNL     1       3.734   7.889  17.363  0.00  0.00    +0.000 OA
ATOM      5  O   UNL     1       2.954   5.783  17.788  0.00  0.00    +0.000 OA
ATOM      6  C   UNL     1       2.255   4.898  18.644  0.00  0.00    +0.000 A 
ATOM      7  C   UNL     1       2.224   3.534  18.264  0.00  0.00    +0.000 A 
ATOM      8  C   UNL     1       1.577   2.660  19.147  0.00  0.00    +0.000 A 
ATOM      9  C   UNL     1       0.968   3.121  20.313  0.00  0.00    +0.000 A 
ATOM     10  C   UNL     1       1.024   4.472  20.658  0.00  0.00    +0.000 A 
ATOM     11  C   UNL     1       1.656   5.393  19.822  0.00  0.00    +0.000 A 
ENDROOT
BRANCH   1  13
ATOM     12  C   UNL     1       1.177   8.970  21.522  0.00  0.00    +0.000 C 
ATOM     13  C   UNL     1       1.105   7.451  21.373  0.00  0.00    +0.000 C 
ENDBRANCH   1  13
BRANCH   8  14
ATOM     14  O   UNL     1       1.520   1.307  18.951  0.00  0.00    +0.000 OA
ATOM     15  H   UNL     1       1.568   1.130  17.995  0.00  0.00    +0.000 HD
ENDBRANCH   8  14
BRANCH   7  16
ATOM     16  C   UNL     1       2.881   3.041  16.983  0.00  0.00    +0.000 C 
BRANCH  16  17
ATOM     17  N   UNL     1       4.324   2.802  17.180  0.00  0.00    +0.000 NA
ATOM     18  H   UNL     1       4.502   1.831  16.908  0.00  0.00    +0.000 HD
BRANCH  17  19
ATOM     19  C   UNL     1       5.156   3.654  16.315  0.00  0.00    +0.000 C 
BRANCH  19  20
ATOM     20  C   UNL     1       5.995   4.638  17.094  0.00  0.00    +0.000 A 
ATOM     21  C   UNL     1       6.703   5.624  16.377  0.00  0.00    +0.000 A 
ATOM     22  F   UNL     1       6.626   5.652  15.046  0.00  0.00    +0.000 F 
ATOM     23  C   UNL     1       7.479   6.592  17.010  0.00  0.00    +0.000 A 
ATOM     24  C   UNL     1       7.582   6.612  18.397  0.00  0.00    +0.000 A 
ATOM     25  C   UNL     1       6.900   5.643  19.133  0.00  0.00    +0.000 A 
ATOM     26  C   UNL     1       6.127   4.651  18.489  0.00  0.00    +0.000 A 
ATOM     27 CL   UNL     1       5.332   3.504  19.502  0.00  0.00    +0.000 Cl
ENDBRANCH  19  20
ENDBRANCH  17  19
ENDBRANCH  16  17
ENDBRANCH   7  16
TORSDOF 6
ENDMDL
MODEL 9
REMARK VINA RESULT:      -6.8      2.944      5.915
REMARK  Name = 
REMARK  7 active torsions:
REMARK  status: ('A' for Active; 'I' for Inactive)
REMARK    1  A    between atoms: C_1  and  C_2
REMARK    2  A    between atoms: C_2  and  C_3
REMARK    3  A    between atoms: C_9  and  C_10
REMARK    4  A    between atoms: C_10  and  N_11
REMARK    5  A    between atoms: N_11  and  C_12
REMARK    6  A    between atoms: C_12  and  C_13
REMARK    7  A    between atoms: C_21  and  O_22
REMARK                            x       y       z     vdW  Elec       q    Type
REMARK                         _______ _______ _______ _____ _____    ______ ____
ROOT
ATOM      1  C   UNL     1       5.727   4.099  16.812  0.00  0.00    +0.000 A 
ATOM      2  C   UNL     1       6.646   4.778  17.516  0.00  0.00    +0.000 A 
ATOM      3  C   UNL     1       6.428   5.304  18.870  0.00  0.00    +0.000 A 
ATOM      4  O   UNL     1       7.297   5.953  19.439  0.00  0.00    +0.000 OA
ATOM      5  O   UNL     1       5.207   5.028  19.452  0.00  0.00    +0.000 OA
ATOM      6  C   UNL     1       4.185   4.331  18.765  0.00  0.00    +0.000 A 
ATOM      7  C   UNL     1       2.962   4.145  19.456  0.00  0.00    +0.000 A 
ATOM      8  C   UNL     1       1.940   3.503  18.745  0.00  0.00    +0.000 A 
ATOM      9  C   UNL     1       2.136   3.043  17.444  0.00  0.00    +0.000 A 
ATOM     10  C   UNL     1       3.353   3.250  16.792  0.00  0.00    +0.000 A 
ATOM     11  C   UNL     1       4.410   3.885  17.444  0.00  0.00    +0.000 A 
ENDROOT
BRANCH   1  13
ATOM     12  C   UNL     1       5.780   4.655  14.266  0.00  0.00    +0.000 C 
ATOM     13  C   UNL     1       6.049   3.659  15.394  0.00  0.00    +0.000 C 
ENDBRANCH   1  13
BRANCH   8  14
ATOM     14  O   UNL     1       0.686   3.308  19.253  0.00  0.00    +0.000 OA
ATOM     15  H   UNL     1       0.513   3.993  19.923  0.00  0.00    +0.000 HD
ENDBRANCH   8  14
BRANCH   7  16
ATOM     16  C   UNL     1       2.761   4.639  20.881  0.00  0.00    +0.000 C 
BRANCH  16  17
ATOM     17  N   UNL     1       2.650   6.111  20.926  0.00  0.00    +0.000 NA
ATOM     18  H   UNL     1       3.313   6.477  20.237  0.00  0.00    +0.000 HD
BRANCH  17  19
ATOM     19  C   UNL     1       1.313   6.584  20.534  0.00  0.00    +0.000 C 
BRANCH  19  20
ATOM     20  C   UNL     1       1.326   7.988  19.979  0.00  0.00    +0.000 A 
ATOM     21  C   UNL     1       0.756   9.016  20.754  0.00  0.00    +0.000 A 
ATOM     22  F   UNL     1       0.212   8.725  21.937  0.00  0.00    +0.000 F 
ATOM     23  C   UNL     1       0.747  10.346  20.339  0.00  0.00    +0.000 A 
ATOM     24  C   UNL     1       1.312  10.703  19.119  0.00  0.00    +0.000 A 
ATOM     25  C   UNL     1       1.876   9.704  18.324  0.00  0.00    +0.000 A 
ATOM     26  C   UNL     1       1.868   8.354  18.739  0.00  0.00    +0.000 A 
ATOM     27 CL   UNL     1       2.592   7.207  17.674  0.00  0.00    +0.000 Cl
ENDBRANCH  19  20
ENDBRANCH  17  19
ENDBRANCH  16  17
ENDBRANCH   7  16
TORSDOF 6
ENDMDL
