MODEL 1
REMARK VINA RESULT:      -7.6      0.000      0.000
REMARK  Name = 
REMARK  10 active torsions:
REMARK  status: ('A' for Active; 'I' for Inactive)
REMARK    1  A    between atoms: C_2  and  O_3
REMARK    2  A    between atoms: O_3  and  C_4
REMARK    3  A    between atoms: C_4  and  C_6
REMARK    4  A    between atoms: C_6  and  C_7
REMARK    5  A    between atoms: C_6  and  N_15
REMARK    6  A    between atoms: C_7  and  C_8
REMARK    7  A    between atoms: C_11  and  O_12
REMARK    8  A    between atoms: N_15  and  S_16
REMARK    9  A    between atoms: S_16  and  C_19
REMARK   10  A    between atoms: C_22  and  C_23
REMARK                            x       y       z     vdW  Elec       q    Type
REMARK                         _______ _______ _______ _____ _____    ______ ____
ROOT
ATOM      1  C   UNL     1       3.140   4.593  18.777  0.00  0.00    +0.000 C 
ENDROOT
BRANCH   1   2
ATOM      2  C   UNL     1       1.661   4.301  18.553  0.00  0.00    +0.000 C 
ATOM      3  O   UNL     1       1.115   4.205  17.463  0.00  0.00    +0.000 OA
BRANCH   2   4
ATOM      4  O   UNL     1       1.028   4.179  19.774  0.00  0.00    +0.000 OA
BRANCH   4   6
ATOM      5  C   UNL     1       1.609   2.677  21.530  0.00  0.00    +0.000 C 
ATOM      6  C   UNL     1       1.036   2.906  20.348  0.00  0.00    +0.000 C 
ENDBRANCH   4   6
ENDBRANCH   2   4
ENDBRANCH   1   2
BRANCH   1   7
ATOM      7  N   UNL     1       3.965   4.821  17.559  0.00  0.00    +0.000 NA
ATOM      8  H   UNL     1       3.898   5.746  17.136  0.00  0.00    +0.000 HD
BRANCH   7   9
ATOM      9  S   UNL     1       5.569   4.324  17.559  0.00  0.00    +0.000 S 
ATOM     10  O   UNL     1       5.728   3.584  18.791  0.00  0.00    +0.000 OA
ATOM     11  O   UNL     1       5.824   3.706  16.274  0.00  0.00    +0.000 OA
BRANCH   9  12
ATOM     12  C   UNL     1       6.525   5.802  17.717  0.00  0.00    +0.000 A 
ATOM     13  C   UNL     1       6.193   6.932  16.967  0.00  0.00    +0.000 A 
ATOM     14  C   UNL     1       6.910   8.117  17.155  0.00  0.00    +0.000 A 
ATOM     15  C   UNL     1       7.953   8.176  18.091  0.00  0.00    +0.000 A 
ATOM     16  C   UNL     1       8.706   9.451  18.335  0.00  0.00    +0.000 C 
ATOM     17  C   UNL     1       8.289   7.027  18.818  0.00  0.00    +0.000 A 
ATOM     18  C   UNL     1       7.576   5.841  18.636  0.00  0.00    +0.000 A 
ENDBRANCH   9  12
ENDBRANCH   7   9
ENDBRANCH   1   7
BRANCH   1  19
ATOM     19  C   UNL     1       3.311   5.795  19.734  0.00  0.00    +0.000 C 
BRANCH  19  20
ATOM     20  C   UNL     1       2.596   7.063  19.323  0.00  0.00    +0.000 A 
ATOM     21  C   UNL     1       1.753   7.738  20.220  0.00  0.00    +0.000 A 
ATOM     22  C   UNL     1       1.124   8.928  19.844  0.00  0.00    +0.000 A 
ATOM     23  C   UNL     1       1.334   9.443  18.569  0.00  0.00    +0.000 A 
ATOM     24  C   UNL     1       2.148   8.779  17.660  0.00  0.00    +0.000 A 
ATOM     25  C   UNL     1       2.778   7.593  18.036  0.00  0.00    +0.000 A 
BRANCH  23  26
ATOM     26  O   UNL     1       0.761  10.612  18.169  0.00  0.00    +0.000 OA
ATOM     27  H   UNL     1       0.082  10.412  17.504  0.00  0.00    +0.000 HD
ENDBRANCH  23  26
ENDBRANCH  19  20
ENDBRANCH   1  19
TORSDOF 9
ENDMDL
MODEL 2
REMARK VINA RESULT:      -7.2      2.445      5.735
REMARK  Name = 
REMARK  10 active torsions:
REMARK  status: ('A' for Active; 'I' for Inactive)
REMARK    1  A    between atoms: C_2  and  O_3
REMARK    2  A    between atoms: O_3  and  C_4
REMARK    3  A    between atoms: C_4  and  C_6
REMARK    4  A    between atoms: C_6  and  C_7
REMARK    5  A    between atoms: C_6  and  N_15
REMARK    6  A    between atoms: C_7  and  C_8
REMARK    7  A    between atoms: C_11  and  O_12
REMARK    8  A    between atoms: N_15  and  S_16
REMARK    9  A    between atoms: S_16  and  C_19
REMARK   10  A    between atoms: C_22  and  C_23
REMARK                            x       y       z     vdW  Elec       q    Type
REMARK                         _______ _______ _______ _____ _____    ______ ____
ROOT
ATOM      1  C   UNL     1       3.417   4.354  19.517  0.00  0.00    +0.000 C 
ENDROOT
BRANCH   1   2
ATOM      2  C   UNL     1       2.683   3.584  20.608  0.00  0.00    +0.000 C 
ATOM      3  O   UNL     1       2.293   4.055  21.668  0.00  0.00    +0.000 OA
BRANCH   2   4
ATOM      4  O   UNL     1       2.542   2.266  20.224  0.00  0.00    +0.000 OA
BRANCH   4   6
ATOM      5  C   UNL     1       0.588   2.493  18.881  0.00  0.00    +0.000 C 
ATOM      6  C   UNL     1       1.831   2.040  19.044  0.00  0.00    +0.000 C 
ENDBRANCH   4   6
ENDBRANCH   2   4
ENDBRANCH   1   2
BRANCH   1   7
ATOM      7  N   UNL     1       3.457   5.835  19.660  0.00  0.00    +0.000 NA
ATOM      8  H   UNL     1       4.350   6.237  19.943  0.00  0.00    +0.000 HD
BRANCH   7   9
ATOM      9  S   UNL     1       2.776   6.787  18.456  0.00  0.00    +0.000 S 
ATOM     10  O   UNL     1       3.900   7.428  17.810  0.00  0.00    +0.000 OA
ATOM     11  O   UNL     1       1.862   5.946  17.712  0.00  0.00    +0.000 OA
BRANCH   9  12
ATOM     12  C   UNL     1       1.877   8.052  19.301  0.00  0.00    +0.000 A 
ATOM     13  C   UNL     1       1.589   7.914  20.661  0.00  0.00    +0.000 A 
ATOM     14  C   UNL     1       0.942   8.954  21.336  0.00  0.00    +0.000 A 
ATOM     15  C   UNL     1       0.588  10.130  20.658  0.00  0.00    +0.000 A 
ATOM     16  C   UNL     1      -0.069  11.272  21.376  0.00  0.00    +0.000 C 
ATOM     17  C   UNL     1       0.863  10.242  19.288  0.00  0.00    +0.000 A 
ATOM     18  C   UNL     1       1.509   9.208  18.610  0.00  0.00    +0.000 A 
ENDBRANCH   9  12
ENDBRANCH   7   9
ENDBRANCH   1   7
BRANCH   1  19
ATOM     19  C   UNL     1       4.860   3.824  19.363  0.00  0.00    +0.000 C 
BRANCH  19  20
ATOM     20  C   UNL     1       5.557   4.193  18.072  0.00  0.00    +0.000 A 
ATOM     21  C   UNL     1       4.935   3.984  16.832  0.00  0.00    +0.000 A 
ATOM     22  C   UNL     1       5.572   4.360  15.647  0.00  0.00    +0.000 A 
ATOM     23  C   UNL     1       6.835   4.942  15.700  0.00  0.00    +0.000 A 
ATOM     24  C   UNL     1       7.475   5.139  16.916  0.00  0.00    +0.000 A 
ATOM     25  C   UNL     1       6.838   4.766  18.100  0.00  0.00    +0.000 A 
BRANCH  23  26
ATOM     26  O   UNL     1       7.481   5.347  14.571  0.00  0.00    +0.000 OA
ATOM     27  H   UNL     1       8.331   4.880  14.517  0.00  0.00    +0.000 HD
ENDBRANCH  23  26
ENDBRANCH  19  20
ENDBRANCH   1  19
TORSDOF 9
ENDMDL
MODEL 3
REMARK VINA RESULT:      -7.0      2.418      5.646
REMARK  Name = 
REMARK  10 active torsions:
REMARK  status: ('A' for Active; 'I' for Inactive)
REMARK    1  A    between atoms: C_2  and  O_3
REMARK    2  A    between atoms: O_3  and  C_4
REMARK    3  A    between atoms: C_4  and  C_6
REMARK    4  A    between atoms: C_6  and  C_7
REMARK    5  A    between atoms: C_6  and  N_15
REMARK    6  A    between atoms: C_7  and  C_8
REMARK    7  A    between atoms: C_11  and  O_12
REMARK    8  A    between atoms: N_15  and  S_16
REMARK    9  A    between atoms: S_16  and  C_19
REMARK   10  A    between atoms: C_22  and  C_23
REMARK                            x       y       z     vdW  Elec       q    Type
REMARK                         _______ _______ _______ _____ _____    ______ ____
ROOT
ATOM      1  C   UNL     1       3.306   4.373  19.634  0.00  0.00    +0.000 C 
ENDROOT
BRANCH   1   2
ATOM      2  C   UNL     1       2.588   3.772  20.837  0.00  0.00    +0.000 C 
ATOM      3  O   UNL     1       2.565   4.253  21.962  0.00  0.00    +0.000 OA
BRANCH   2   4
ATOM      4  O   UNL     1       1.981   2.589  20.464  0.00  0.00    +0.000 OA
BRANCH   4   6
ATOM      5  C   UNL     1       0.677   2.209  18.507  0.00  0.00    +0.000 C 
ATOM      6  C   UNL     1       0.795   2.707  19.739  0.00  0.00    +0.000 C 
ENDBRANCH   4   6
ENDBRANCH   2   4
ENDBRANCH   1   2
BRANCH   1   7
ATOM      7  N   UNL     1       3.505   5.848  19.648  0.00  0.00    +0.000 NA
ATOM      8  H   UNL     1       4.449   6.174  19.857  0.00  0.00    +0.000 HD
BRANCH   7   9
ATOM      9  S   UNL     1       2.865   6.768  18.397  0.00  0.00    +0.000 S 
ATOM     10  O   UNL     1       4.012   7.372  17.756  0.00  0.00    +0.000 OA
ATOM     11  O   UNL     1       1.957   5.913  17.661  0.00  0.00    +0.000 OA
BRANCH   9  12
ATOM     12  C   UNL     1       1.965   8.072  19.179  0.00  0.00    +0.000 A 
ATOM     13  C   UNL     1       1.555   9.182  18.435  0.00  0.00    +0.000 A 
ATOM     14  C   UNL     1       0.781  10.172  19.048  0.00  0.00    +0.000 A 
ATOM     15  C   UNL     1       0.413  10.054  20.396  0.00  0.00    +0.000 A 
ATOM     16  C   UNL     1      -0.451  11.087  21.057  0.00  0.00    +0.000 C 
ATOM     17  C   UNL     1       0.853   8.948  21.134  0.00  0.00    +0.000 A 
ATOM     18  C   UNL     1       1.625   7.955  20.528  0.00  0.00    +0.000 A 
ENDBRANCH   9  12
ENDBRANCH   7   9
ENDBRANCH   1   7
BRANCH   1  19
ATOM     19  C   UNL     1       4.671   3.682  19.422  0.00  0.00    +0.000 C 
BRANCH  19  20
ATOM     20  C   UNL     1       5.433   4.106  18.186  0.00  0.00    +0.000 A 
ATOM     21  C   UNL     1       4.911   3.878  16.904  0.00  0.00    +0.000 A 
ATOM     22  C   UNL     1       5.606   4.305  15.769  0.00  0.00    +0.000 A 
ATOM     23  C   UNL     1       6.826   4.957  15.915  0.00  0.00    +0.000 A 
ATOM     24  C   UNL     1       7.368   5.174  17.174  0.00  0.00    +0.000 A 
ATOM     25  C   UNL     1       6.674   4.751  18.308  0.00  0.00    +0.000 A 
BRANCH  23  26
ATOM     26  O   UNL     1       7.524   5.412  14.837  0.00  0.00    +0.000 OA
ATOM     27  H   UNL     1       8.252   4.794  14.658  0.00  0.00    +0.000 HD
ENDBRANCH  23  26
ENDBRANCH  19  20
ENDBRANCH   1  19
TORSDOF 9
ENDMDL
MODEL 4
REMARK VINA RESULT:      -7.0      2.752      5.855
REMARK  Name = 
REMARK  10 active torsions:
REMARK  status: ('A' for Active; 'I' for Inactive)
REMARK    1  A    between atoms: C_2  and  O_3
REMARK    2  A    between atoms: O_3  and  C_4
REMARK    3  A    between atoms: C_4  and  C_6
REMARK    4  A    between atoms: C_6  and  C_7
REMARK    5  A    between atoms: C_6  and  N_15
REMARK    6  A    between atoms: C_7  and  C_8
REMARK    7  A    between atoms: C_11  and  O_12
REMARK    8  A    between atoms: N_15  and  S_16
REMARK    9  A    between atoms: S_16  and  C_19
REMARK   10  A    between atoms: C_22  and  C_23
REMARK                            x       y       z     vdW  Elec       q    Type
REMARK                         _______ _______ _______ _____ _____    ______ ____
ROOT
ATOM      1  C   UNL     1       5.761   4.107  17.262  0.00  0.00    +0.000 C 
ENDROOT
BRANCH   1   2
ATOM      2  C   UNL     1       6.701   4.164  16.064  0.00  0.00    +0.000 C 
ATOM      3  O   UNL     1       7.806   4.689  16.053  0.00  0.00    +0.000 OA
BRANCH   2   4
ATOM      4  O   UNL     1       6.105   3.544  14.983  0.00  0.00    +0.000 OA
BRANCH   4   6
ATOM      5  C   UNL     1       6.051   3.464  12.603  0.00  0.00    +0.000 C 
ATOM      6  C   UNL     1       6.372   4.099  13.731  0.00  0.00    +0.000 C 
ENDBRANCH   4   6
ENDBRANCH   2   4
ENDBRANCH   1   2
BRANCH   1   7
ATOM      7  N   UNL     1       5.551   5.382  18.002  0.00  0.00    +0.000 NA
ATOM      8  H   UNL     1       6.276   5.639  18.671  0.00  0.00    +0.000 HD
BRANCH   7   9
ATOM      9  S   UNL     1       5.069   6.747  17.152  0.00  0.00    +0.000 S 
ATOM     10  O   UNL     1       6.143   7.698  17.338  0.00  0.00    +0.000 OA
ATOM     11  O   UNL     1       4.674   6.309  15.830  0.00  0.00    +0.000 OA
BRANCH   9  12
ATOM     12  C   UNL     1       3.666   7.377  18.022  0.00  0.00    +0.000 A 
ATOM     13  C   UNL     1       3.244   6.765  19.205  0.00  0.00    +0.000 A 
ATOM     14  C   UNL     1       2.179   7.317  19.922  0.00  0.00    +0.000 A 
ATOM     15  C   UNL     1       1.538   8.478  19.465  0.00  0.00    +0.000 A 
ATOM     16  C   UNL     1       0.421   9.106  20.244  0.00  0.00    +0.000 C 
ATOM     17  C   UNL     1       1.957   9.065  18.263  0.00  0.00    +0.000 A 
ATOM     18  C   UNL     1       3.021   8.520  17.543  0.00  0.00    +0.000 A 
ENDBRANCH   9  12
ENDBRANCH   7   9
ENDBRANCH   1   7
BRANCH   1  19
ATOM     19  C   UNL     1       4.388   3.538  16.841  0.00  0.00    +0.000 C 
BRANCH  19  20
ATOM     20  C   UNL     1       3.404   3.307  17.967  0.00  0.00    +0.000 A 
ATOM     21  C   UNL     1       3.833   2.814  19.208  0.00  0.00    +0.000 A 
ATOM     22  C   UNL     1       2.922   2.637  20.254  0.00  0.00    +0.000 A 
ATOM     23  C   UNL     1       1.581   2.948  20.057  0.00  0.00    +0.000 A 
ATOM     24  C   UNL     1       1.134   3.418  18.830  0.00  0.00    +0.000 A 
ATOM     25  C   UNL     1       2.043   3.598  17.786  0.00  0.00    +0.000 A 
BRANCH  23  26
ATOM     26  O   UNL     1       0.664   2.815  21.056  0.00  0.00    +0.000 OA
ATOM     27  H   UNL     1       0.988   3.291  21.838  0.00  0.00    +0.000 HD
ENDBRANCH  23  26
ENDBRANCH  19  20
ENDBRANCH   1  19
TORSDOF 9
ENDMDL
MODEL 5
REMARK VINA RESULT:      -7.0      2.013      2.925
REMARK  Name = 
REMARK  10 active torsions:
REMARK  status: ('A' for Active; 'I' for Inactive)
REMARK    1  A    between atoms: C_2  and  O_3
REMARK    2  A    between atoms: O_3  and  C_4
REMARK    3  A    between atoms: C_4  and  C_6
REMARK    4  A    between atoms: C_6  and  C_7
REMARK    5  A    between atoms: C_6  and  N_15
REMARK    6  A    between atoms: C_7  and  C_8
REMARK    7  A    between atoms: C_11  and  O_12
REMARK    8  A    between atoms: N_15  and  S_16
REMARK    9  A    between atoms: S_16  and  C_19
REMARK   10  A    between atoms: C_22  and  C_23
REMARK                            x       y       z     vdW  Elec       q    Type
REMARK                         _______ _______ _______ _____ _____    ______ ____
ROOT
ATOM      1  C   UNL     1       2.892   4.913  19.859  0.00  0.00    +0.000 C 
ENDROOT
BRANCH   1   2
ATOM      2  C   UNL     1       2.067   4.062  18.902  0.00  0.00    +0.000 C 
ATOM      3  O   UNL     1       1.548   4.458  17.867  0.00  0.00    +0.000 OA
BRANCH   2   4
ATOM      4  O   UNL     1       1.981   2.774  19.392  0.00  0.00    +0.000 OA
BRANCH   4   6
ATOM      5  C   UNL     1       1.561   2.479  21.719  0.00  0.00    +0.000 C 
ATOM      6  C   UNL     1       1.112   2.581  20.468  0.00  0.00    +0.000 C 
ENDBRANCH   4   6
ENDBRANCH   2   4
ENDBRANCH   1   2
BRANCH   1   7
ATOM      7  N   UNL     1       4.118   5.545  19.299  0.00  0.00    +0.000 NA
ATOM      8  H   UNL     1       4.371   6.456  19.682  0.00  0.00    +0.000 HD
BRANCH   7   9
ATOM      9  S   UNL     1       5.503   4.614  19.117  0.00  0.00    +0.000 S 
ATOM     10  O   UNL     1       6.560   5.400  19.713  0.00  0.00    +0.000 OA
ATOM     11  O   UNL     1       5.190   3.285  19.602  0.00  0.00    +0.000 OA
BRANCH   9  12
ATOM     12  C   UNL     1       5.816   4.563  17.379  0.00  0.00    +0.000 A 
ATOM     13  C   UNL     1       7.105   4.799  16.894  0.00  0.00    +0.000 A 
ATOM     14  C   UNL     1       7.355   4.683  15.523  0.00  0.00    +0.000 A 
ATOM     15  C   UNL     1       6.326   4.329  14.639  0.00  0.00    +0.000 A 
ATOM     16  C   UNL     1       6.587   4.161  13.171  0.00  0.00    +0.000 C 
ATOM     17  C   UNL     1       5.033   4.120  15.139  0.00  0.00    +0.000 A 
ATOM     18  C   UNL     1       4.777   4.232  16.506  0.00  0.00    +0.000 A 
ENDBRANCH   9  12
ENDBRANCH   7   9
ENDBRANCH   1   7
BRANCH   1  19
ATOM     19  C   UNL     1       2.009   6.007  20.501  0.00  0.00    +0.000 C 
BRANCH  19  20
ATOM     20  C   UNL     1       1.953   7.322  19.755  0.00  0.00    +0.000 A 
ATOM     21  C   UNL     1       2.467   7.435  18.454  0.00  0.00    +0.000 A 
ATOM     22  C   UNL     1       2.379   8.644  17.759  0.00  0.00    +0.000 A 
ATOM     23  C   UNL     1       1.781   9.744  18.366  0.00  0.00    +0.000 A 
ATOM     24  C   UNL     1       1.285   9.658  19.660  0.00  0.00    +0.000 A 
ATOM     25  C   UNL     1       1.370   8.450  20.353  0.00  0.00    +0.000 A 
BRANCH  23  26
ATOM     26  O   UNL     1       1.652  10.934  17.716  0.00  0.00    +0.000 OA
ATOM     27  H   UNL     1       0.772  11.297  17.909  0.00  0.00    +0.000 HD
ENDBRANCH  23  26
ENDBRANCH  19  20
ENDBRANCH   1  19
TORSDOF 9
ENDMDL
MODEL 6
REMARK VINA RESULT:      -6.9      2.526      5.786
REMARK  Name = 
REMARK  10 active torsions:
REMARK  status: ('A' for Active; 'I' for Inactive)
REMARK    1  A    between atoms: C_2  and  O_3
REMARK    2  A    between atoms: O_3  and  C_4
REMARK    3  A    between atoms: C_4  and  C_6
REMARK    4  A    between atoms: C_6  and  C_7
REMARK    5  A    between atoms: C_6  and  N_15
REMARK    6  A    between atoms: C_7  and  C_8
REMARK    7  A    between atoms: C_11  and  O_12
REMARK    8  A    between atoms: N_15  and  S_16
REMARK    9  A    between atoms: S_16  and  C_19
REMARK   10  A    between atoms: C_22  and  C_23
REMARK                            x       y       z     vdW  Elec       q    Type
REMARK                         _______ _______ _______ _____ _____    ______ ____
ROOT
ATOM      1  C   UNL     1       3.469   4.543  19.396  0.00  0.00    +0.000 C 
ENDROOT
BRANCH   1   2
ATOM      2  C   UNL     1       2.768   3.742  20.485  0.00  0.00    +0.000 C 
ATOM      3  O   UNL     1       2.351   4.195  21.543  0.00  0.00    +0.000 OA
BRANCH   2   4
ATOM      4  O   UNL     1       2.693   2.417  20.103  0.00  0.00    +0.000 OA
BRANCH   4   6
ATOM      5  C   UNL     1       0.800   2.476  18.657  0.00  0.00    +0.000 C 
ATOM      6  C   UNL     1       1.433   1.960  19.711  0.00  0.00    +0.000 C 
ENDBRANCH   4   6
ENDBRANCH   2   4
ENDBRANCH   1   2
BRANCH   1   7
ATOM      7  N   UNL     1       3.509   6.020  19.579  0.00  0.00    +0.000 NA
ATOM      8  H   UNL     1       4.425   6.428  19.761  0.00  0.00    +0.000 HD
BRANCH   7   9
ATOM      9  S   UNL     1       2.672   6.997  18.499  0.00  0.00    +0.000 S 
ATOM     10  O   UNL     1       3.697   7.724  17.784  0.00  0.00    +0.000 OA
ATOM     11  O   UNL     1       1.727   6.150  17.802  0.00  0.00    +0.000 OA
BRANCH   9  12
ATOM     12  C   UNL     1       1.806   8.173  19.495  0.00  0.00    +0.000 A 
ATOM     13  C   UNL     1       1.315   9.348  18.921  0.00  0.00    +0.000 A 
ATOM     14  C   UNL     1       0.568  10.235  19.702  0.00  0.00    +0.000 A 
ATOM     15  C   UNL     1       0.309   9.950  21.050  0.00  0.00    +0.000 A 
ATOM     16  C   UNL     1      -0.525  10.871  21.891  0.00  0.00    +0.000 C 
ATOM     17  C   UNL     1       0.829   8.779  21.617  0.00  0.00    +0.000 A 
ATOM     18  C   UNL     1       1.574   7.888  20.842  0.00  0.00    +0.000 A 
ENDBRANCH   9  12
ENDBRANCH   7   9
ENDBRANCH   1   7
BRANCH   1  19
ATOM     19  C   UNL     1       4.908   4.023  19.187  0.00  0.00    +0.000 C 
BRANCH  19  20
ATOM     20  C   UNL     1       5.538   4.360  17.853  0.00  0.00    +0.000 A 
ATOM     21  C   UNL     1       6.913   4.617  17.750  0.00  0.00    +0.000 A 
ATOM     22  C   UNL     1       7.492   4.893  16.509  0.00  0.00    +0.000 A 
ATOM     23  C   UNL     1       6.696   4.916  15.369  0.00  0.00    +0.000 A 
ATOM     24  C   UNL     1       5.330   4.684  15.453  0.00  0.00    +0.000 A 
ATOM     25  C   UNL     1       4.751   4.405  16.692  0.00  0.00    +0.000 A 
BRANCH  23  26
ATOM     26  O   UNL     1       7.223   5.156  14.135  0.00  0.00    +0.000 OA
ATOM     27  H   UNL     1       6.500   5.399  13.533  0.00  0.00    +0.000 HD
ENDBRANCH  23  26
ENDBRANCH  19  20
ENDBRANCH   1  19
TORSDOF 9
ENDMDL
MODEL 7
REMARK VINA RESULT:      -6.9      2.521      5.874
REMARK  Name = 
REMARK  10 active torsions:
REMARK  status: ('A' for Active; 'I' for Inactive)
REMARK    1  A    between atoms: C_2  and  O_3
REMARK    2  A    between atoms: O_3  and  C_4
REMARK    3  A    between atoms: C_4  and  C_6
REMARK    4  A    between atoms: C_6  and  C_7
REMARK    5  A    between atoms: C_6  and  N_15
REMARK    6  A    between atoms: C_7  and  C_8
REMARK    7  A    between atoms: C_11  and  O_12
REMARK    8  A    between atoms: N_15  and  S_16
REMARK    9  A    between atoms: S_16  and  C_19
REMARK   10  A    between atoms: C_22  and  C_23
REMARK                            x       y       z     vdW  Elec       q    Type
REMARK                         _______ _______ _______ _____ _____    ______ ____
ROOT
ATOM      1  C   UNL     1       4.297   4.326  18.805  0.00  0.00    +0.000 C 
ENDROOT
BRANCH   1   2
ATOM      2  C   UNL     1       4.120   3.141  19.746  0.00  0.00    +0.000 C 
ATOM      3  O   UNL     1       5.020   2.425  20.163  0.00  0.00    +0.000 OA
BRANCH   2   4
ATOM      4  O   UNL     1       2.780   2.988  20.043  0.00  0.00    +0.000 OA
BRANCH   4   6
ATOM      5  C   UNL     1       1.285   2.570  21.850  0.00  0.00    +0.000 C 
ATOM      6  C   UNL     1       2.435   3.066  21.394  0.00  0.00    +0.000 C 
ENDBRANCH   4   6
ENDBRANCH   2   4
ENDBRANCH   1   2
BRANCH   1   7
ATOM      7  N   UNL     1       3.792   5.640  19.287  0.00  0.00    +0.000 NA
ATOM      8  H   UNL     1       4.471   6.241  19.754  0.00  0.00    +0.000 HD
BRANCH   7   9
ATOM      9  S   UNL     1       2.838   6.570  18.265  0.00  0.00    +0.000 S 
ATOM     10  O   UNL     1       3.777   7.296  17.440  0.00  0.00    +0.000 OA
ATOM     11  O   UNL     1       1.851   5.686  17.680  0.00  0.00    +0.000 OA
BRANCH   9  12
ATOM     12  C   UNL     1       2.042   7.756  19.306  0.00  0.00    +0.000 A 
ATOM     13  C   UNL     1       1.618   8.977  18.776  0.00  0.00    +0.000 A 
ATOM     14  C   UNL     1       0.924   9.876  19.592  0.00  0.00    +0.000 A 
ATOM     15  C   UNL     1       0.650   9.557  20.930  0.00  0.00    +0.000 A 
ATOM     16  C   UNL     1      -0.128  10.493  21.807  0.00  0.00    +0.000 C 
ATOM     17  C   UNL     1       1.105   8.339  21.452  0.00  0.00    +0.000 A 
ATOM     18  C   UNL     1       1.796   7.437  20.643  0.00  0.00    +0.000 A 
ENDBRANCH   9  12
ENDBRANCH   7   9
ENDBRANCH   1   7
BRANCH   1  19
ATOM     19  C   UNL     1       5.781   4.474  18.401  0.00  0.00    +0.000 C 
BRANCH  19  20
ATOM     20  C   UNL     1       6.055   4.489  16.913  0.00  0.00    +0.000 A 
ATOM     21  C   UNL     1       7.299   4.904  16.415  0.00  0.00    +0.000 A 
ATOM     22  C   UNL     1       7.556   4.881  15.041  0.00  0.00    +0.000 A 
ATOM     23  C   UNL     1       6.567   4.449  14.164  0.00  0.00    +0.000 A 
ATOM     24  C   UNL     1       5.322   4.055  14.636  0.00  0.00    +0.000 A 
ATOM     25  C   UNL     1       5.067   4.074  16.008  0.00  0.00    +0.000 A 
BRANCH  23  26
ATOM     26  O   UNL     1       6.782   4.388  12.820  0.00  0.00    +0.000 OA
ATOM     27  H   UNL     1       6.156   4.985  12.379  0.00  0.00    +0.000 HD
ENDBRANCH  23  26
ENDBRANCH  19  20
ENDBRANCH   1  19
TORSDOF 9
ENDMDL
MODEL 8
REMARK VINA RESULT:      -6.8      2.885      4.952
REMARK  Name = 
REMARK  10 active torsions:
REMARK  status: ('A' for Active; 'I' for Inactive)
REMARK    1  A    between atoms: C_2  and  O_3
REMARK    2  A    between atoms: O_3  and  C_4
REMARK    3  A    between atoms: C_4  and  C_6
REMARK    4  A    between atoms: C_6  and  C_7
REMARK    5  A    between atoms: C_6  and  N_15
REMARK    6  A    between atoms: C_7  and  C_8
REMARK    7  A    between atoms: C_11  and  O_12
REMARK    8  A    between atoms: N_15  and  S_16
REMARK    9  A    between atoms: S_16  and  C_19
REMARK   10  A    between atoms: C_22  and  C_23
REMARK                            x       y       z     vdW  Elec       q    Type
REMARK                         _______ _______ _______ _____ _____    ______ ____
ROOT
ATOM      1  C   UNL     1       5.797   4.216  16.372  0.00  0.00    +0.000 C 
ENDROOT
BRANCH   1   2
ATOM      2  C   UNL     1       6.324   4.652  15.011  0.00  0.00    +0.000 C 
ATOM      3  O   UNL     1       7.338   5.311  14.820  0.00  0.00    +0.000 OA
BRANCH   2   4
ATOM      4  O   UNL     1       5.471   4.202  14.023  0.00  0.00    +0.000 OA
BRANCH   4   6
ATOM      5  C   UNL     1       5.350   3.134  11.897  0.00  0.00    +0.000 C 
ATOM      6  C   UNL     1       6.072   3.605  12.914  0.00  0.00    +0.000 C 
ENDBRANCH   4   6
ENDBRANCH   2   4
ENDBRANCH   1   2
BRANCH   1   7
ATOM      7  N   UNL     1       5.802   5.245  17.448  0.00  0.00    +0.000 NA
ATOM      8  H   UNL     1       4.948   5.325  18.000  0.00  0.00    +0.000 HD
BRANCH   7   9
ATOM      9  S   UNL     1       7.134   5.354  18.464  0.00  0.00    +0.000 S 
ATOM     10  O   UNL     1       6.595   5.209  19.798  0.00  0.00    +0.000 OA
ATOM     11  O   UNL     1       8.135   4.439  17.955  0.00  0.00    +0.000 OA
BRANCH   9  12
ATOM     12  C   UNL     1       7.709   7.018  18.318  0.00  0.00    +0.000 A 
ATOM     13  C   UNL     1       7.199   7.849  17.317  0.00  0.00    +0.000 A 
ATOM     14  C   UNL     1       7.606   9.184  17.258  0.00  0.00    +0.000 A 
ATOM     15  C   UNL     1       8.518   9.692  18.196  0.00  0.00    +0.000 A 
ATOM     16  C   UNL     1       8.934  11.134  18.171  0.00  0.00    +0.000 C 
ATOM     17  C   UNL     1       9.039   8.840  19.178  0.00  0.00    +0.000 A 
ATOM     18  C   UNL     1       8.634   7.506  19.243  0.00  0.00    +0.000 A 
ENDBRANCH   9  12
ENDBRANCH   7   9
ENDBRANCH   1   7
BRANCH   1  19
ATOM     19  C   UNL     1       4.371   3.637  16.235  0.00  0.00    +0.000 C 
BRANCH  19  20
ATOM     20  C   UNL     1       3.561   3.587  17.513  0.00  0.00    +0.000 A 
ATOM     21  C   UNL     1       3.884   2.682  18.535  0.00  0.00    +0.000 A 
ATOM     22  C   UNL     1       3.153   2.666  19.726  0.00  0.00    +0.000 A 
ATOM     23  C   UNL     1       2.094   3.553  19.894  0.00  0.00    +0.000 A 
ATOM     24  C   UNL     1       1.746   4.442  18.886  0.00  0.00    +0.000 A 
ATOM     25  C   UNL     1       2.478   4.460  17.698  0.00  0.00    +0.000 A 
BRANCH  23  26
ATOM     26  O   UNL     1       1.370   3.589  21.047  0.00  0.00    +0.000 OA
ATOM     27  H   UNL     1       0.426   3.594  20.820  0.00  0.00    +0.000 HD
ENDBRANCH  23  26
ENDBRANCH  19  20
ENDBRANCH   1  19
TORSDOF 9
ENDMDL
MODEL 9
REMARK VINA RESULT:      -6.8      2.449      5.055
REMARK  Name = 
REMARK  10 active torsions:
REMARK  status: ('A' for Active; 'I' for Inactive)
REMARK    1  A    between atoms: C_2  and  O_3
REMARK    2  A    between atoms: O_3  and  C_4
REMARK    3  A    between atoms: C_4  and  C_6
REMARK    4  A    between atoms: C_6  and  C_7
REMARK    5  A    between atoms: C_6  and  N_15
REMARK    6  A    between atoms: C_7  and  C_8
REMARK    7  A    between atoms: C_11  and  O_12
REMARK    8  A    between atoms: N_15  and  S_16
REMARK    9  A    between atoms: S_16  and  C_19
REMARK   10  A    between atoms: C_22  and  C_23
REMARK                            x       y       z     vdW  Elec       q    Type
REMARK                         _______ _______ _______ _____ _____    ______ ____
ROOT
ATOM      1  C   UNL     1       3.513   6.032  17.932  0.00  0.00    +0.000 C 
ENDROOT
BRANCH   1   2
ATOM      2  C   UNL     1       3.564   7.474  17.442  0.00  0.00    +0.000 C 
ATOM      3  O   UNL     1       4.185   7.870  16.465  0.00  0.00    +0.000 OA
BRANCH   2   4
ATOM      4  O   UNL     1       2.813   8.271  18.283  0.00  0.00    +0.000 OA
BRANCH   4   6
ATOM      5  C   UNL     1       0.870   9.649  18.241  0.00  0.00    +0.000 C 
ATOM      6  C   UNL     1       1.992   9.217  17.666  0.00  0.00    +0.000 C 
ENDBRANCH   4   6
ENDBRANCH   2   4
ENDBRANCH   1   2
BRANCH   1   7
ATOM      7  N   UNL     1       4.371   5.697  19.101  0.00  0.00    +0.000 NA
ATOM      8  H   UNL     1       3.886   5.498  19.975  0.00  0.00    +0.000 HD
BRANCH   7   9
ATOM      9  S   UNL     1       5.627   4.600  18.901  0.00  0.00    +0.000 S 
ATOM     10  O   UNL     1       6.787   5.258  19.460  0.00  0.00    +0.000 OA
ATOM     11  O   UNL     1       5.167   3.326  19.411  0.00  0.00    +0.000 OA
BRANCH   9  12
ATOM     12  C   UNL     1       5.888   4.491  17.156  0.00  0.00    +0.000 A 
ATOM     13  C   UNL     1       6.988   5.125  16.573  0.00  0.00    +0.000 A 
ATOM     14  C   UNL     1       7.225   4.970  15.204  0.00  0.00    +0.000 A 
ATOM     15  C   UNL     1       6.369   4.183  14.419  0.00  0.00    +0.000 A 
ATOM     16  C   UNL     1       6.632   3.973  12.956  0.00  0.00    +0.000 C 
ATOM     17  C   UNL     1       5.256   3.575  15.014  0.00  0.00    +0.000 A 
ATOM     18  C   UNL     1       5.016   3.724  16.381  0.00  0.00    +0.000 A 
ENDBRANCH   9  12
ENDBRANCH   7   9
ENDBRANCH   1   7
BRANCH   1  19
ATOM     19  C   UNL     1       2.057   5.621  18.242  0.00  0.00    +0.000 C 
BRANCH  19  20
ATOM     20  C   UNL     1       1.888   4.589  19.336  0.00  0.00    +0.000 A 
ATOM     21  C   UNL     1       1.561   3.260  19.027  0.00  0.00    +0.000 A 
ATOM     22  C   UNL     1       1.442   2.305  20.040  0.00  0.00    +0.000 A 
ATOM     23  C   UNL     1       1.645   2.679  21.365  0.00  0.00    +0.000 A 
ATOM     24  C   UNL     1       1.949   3.993  21.692  0.00  0.00    +0.000 A 
ATOM     25  C   UNL     1       2.071   4.947  20.680  0.00  0.00    +0.000 A 
BRANCH  23  26
ATOM     26  O   UNL     1       1.563   1.776  22.381  0.00  0.00    +0.000 OA
ATOM     27  H   UNL     1       2.464   1.520  22.640  0.00  0.00    +0.000 HD
ENDBRANCH  23  26
ENDBRANCH  19  20
ENDBRANCH   1  19
TORSDOF 9
ENDMDL
