MODEL 1
REMARK VINA RESULT:      -8.7      0.000      0.000
REMARK  Name = 
REMARK  5 active torsions:
REMARK  status: ('A' for Active; 'I' for Inactive)
REMARK    1  A    between atoms: C_2  and  C_27
REMARK    2  A    between atoms: N_3  and  C_4
REMARK    3  A    between atoms: C_11  and  O_12
REMARK    4  A    between atoms: C_13  and  N_14
REMARK    5  A    between atoms: C_17  and  C_18
REMARK                            x       y       z     vdW  Elec       q    Type
REMARK                         _______ _______ _______ _____ _____    ______ ____
ROOT
ATOM      1  C   UNL     1       2.125   7.015  19.729  0.00  0.00    +0.000 A 
ATOM      2  C   UNL     1       2.649   7.108  18.433  0.00  0.00    +0.000 A 
ATOM      3  C   UNL     1       2.514   8.273  17.683  0.00  0.00    +0.000 A 
ATOM      4  C   UNL     1       1.844   9.360  18.217  0.00  0.00    +0.000 A 
ATOM      5  C   UNL     1       1.284   9.291  19.503  0.00  0.00    +0.000 A 
ATOM      6  C   UNL     1       1.425   8.119  20.274  0.00  0.00    +0.000 A 
ATOM      7  C   UNL     1       0.814   8.072  21.655  0.00  0.00    +0.000 C 
ATOM      8  C   UNL     1       0.556   9.437  22.302  0.00  0.00    +0.000 C 
ATOM      9  C   UNL     1      -0.194  10.387  21.329  0.00  0.00    +0.000 C 
ATOM     10  C   UNL     1       0.658  10.552  20.046  0.00  0.00    +0.000 C 
ENDROOT
BRANCH   9  11
ATOM     11  N   UNL     1      -0.610  11.689  21.955  0.00  0.00    +0.000 NA
ATOM     12  C   UNL     1      -0.868  12.744  20.960  0.00  0.00    +0.000 C 
ATOM     13  C   UNL     1      -1.534  14.008  21.508  0.00  0.00    +0.000 C 
ATOM     14  C   UNL     1      -2.811  13.689  22.308  0.00  0.00    +0.000 C 
ATOM     15  C   UNL     1      -2.335  12.778  23.457  0.00  0.00    +0.000 C 
ATOM     16  C   UNL     1      -1.687  11.492  22.936  0.00  0.00    +0.000 C 
BRANCH  14  17
ATOM     17  C   UNL     1      -3.992  13.152  21.488  0.00  0.00    +0.000 A 
ATOM     18  C   UNL     1      -3.854  12.819  20.127  0.00  0.00    +0.000 A 
ATOM     19  C   UNL     1      -4.931  12.336  19.377  0.00  0.00    +0.000 A 
ATOM     20  C   UNL     1      -6.169  12.140  19.977  0.00  0.00    +0.000 A 
ATOM     21  C   UNL     1      -6.320  12.408  21.333  0.00  0.00    +0.000 A 
ATOM     22  C   UNL     1      -5.241  12.896  22.080  0.00  0.00    +0.000 A 
ENDBRANCH  14  17
ENDBRANCH   9  11
BRANCH   1  25
ATOM     23  O   UNL     1       1.171   4.259  19.200  0.00  0.00    +0.000 OA
ATOM     24  C   UNL     1       1.818   4.564  20.206  0.00  0.00    +0.000 C 
ATOM     25  N   UNL     1       2.290   5.837  20.503  0.00  0.00    +0.000 N 
ATOM     26  H   UNL     1       2.910   5.897  21.307  0.00  0.00    +0.000 HD
BRANCH  24  27
ATOM     27  C   UNL     1       2.216   3.513  21.257  0.00  0.00    +0.000 C 
ATOM     28  F   UNL     1       1.201   2.629  21.496  0.00  0.00    +0.000 F 
ATOM     29  F   UNL     1       3.289   2.767  20.878  0.00  0.00    +0.000 F 
ATOM     30  F   UNL     1       2.524   4.068  22.460  0.00  0.00    +0.000 F 
ENDBRANCH  24  27
ENDBRANCH   1  25
BRANCH   8  31
ATOM     31  O   UNL     1      -0.179   9.201  23.509  0.00  0.00    +0.000 OA
ATOM     32  H   UNL     1      -0.965   8.677  23.280  0.00  0.00    +0.000 HD
ENDBRANCH   8  31
TORSDOF 5
ENDMDL
MODEL 2
REMARK VINA RESULT:      -8.6      0.177      1.151
REMARK  Name = 
REMARK  5 active torsions:
REMARK  status: ('A' for Active; 'I' for Inactive)
REMARK    1  A    between atoms: C_2  and  C_27
REMARK    2  A    between atoms: N_3  and  C_4
REMARK    3  A    between atoms: C_11  and  O_12
REMARK    4  A    between atoms: C_13  and  N_14
REMARK    5  A    between atoms: C_17  and  C_18
REMARK                            x       y       z     vdW  Elec       q    Type
REMARK                         _______ _______ _______ _____ _____    ______ ____
ROOT
ATOM      1  C   UNL     1       2.239   6.977  19.616  0.00  0.00    +0.000 A 
ATOM      2  C   UNL     1       2.739   7.086  18.311  0.00  0.00    +0.000 A 
ATOM      3  C   UNL     1       2.578   8.255  17.574  0.00  0.00    +0.000 A 
ATOM      4  C   UNL     1       1.907   9.330  18.128  0.00  0.00    +0.000 A 
ATOM      5  C   UNL     1       1.371   9.246  19.422  0.00  0.00    +0.000 A 
ATOM      6  C   UNL     1       1.538   8.070  20.182  0.00  0.00    +0.000 A 
ATOM      7  C   UNL     1       0.952   8.005  21.572  0.00  0.00    +0.000 C 
ATOM      8  C   UNL     1       0.691   9.363  22.235  0.00  0.00    +0.000 C 
ATOM      9  C   UNL     1      -0.086  10.312  21.283  0.00  0.00    +0.000 C 
ATOM     10  C   UNL     1       0.742  10.496  19.987  0.00  0.00    +0.000 C 
ENDROOT
BRANCH   9  11
ATOM     11  N   UNL     1      -0.504  11.604  21.927  0.00  0.00    +0.000 NA
ATOM     12  C   UNL     1      -0.762  12.674  20.947  0.00  0.00    +0.000 C 
ATOM     13  C   UNL     1      -1.430  13.929  21.511  0.00  0.00    +0.000 C 
ATOM     14  C   UNL     1      -2.708  13.597  22.304  0.00  0.00    +0.000 C 
ATOM     15  C   UNL     1      -2.233  12.670  23.441  0.00  0.00    +0.000 C 
ATOM     16  C   UNL     1      -1.583  11.393  22.903  0.00  0.00    +0.000 C 
BRANCH  14  17
ATOM     17  C   UNL     1      -3.887  13.070  21.475  0.00  0.00    +0.000 A 
ATOM     18  C   UNL     1      -5.153  12.852  22.048  0.00  0.00    +0.000 A 
ATOM     19  C   UNL     1      -6.227  12.366  21.294  0.00  0.00    +0.000 A 
ATOM     20  C   UNL     1      -6.071  12.116  19.936  0.00  0.00    +0.000 A 
ATOM     21  C   UNL     1      -4.847  12.376  19.331  0.00  0.00    +0.000 A 
ATOM     22  C   UNL     1      -3.773  12.858  20.090  0.00  0.00    +0.000 A 
ENDBRANCH  14  17
ENDBRANCH   9  11
BRANCH   1  25
ATOM     23  O   UNL     1       1.154   4.254  19.179  0.00  0.00    +0.000 OA
ATOM     24  C   UNL     1       1.894   4.538  20.126  0.00  0.00    +0.000 C 
ATOM     25  N   UNL     1       2.430   5.795  20.378  0.00  0.00    +0.000 N 
ATOM     26  H   UNL     1       3.117   5.836  21.126  0.00  0.00    +0.000 HD
BRANCH  24  27
ATOM     27  C   UNL     1       2.344   3.475  21.143  0.00  0.00    +0.000 C 
ATOM     28  F   UNL     1       3.587   2.990  20.850  0.00  0.00    +0.000 F 
ATOM     29  F   UNL     1       2.412   3.957  22.414  0.00  0.00    +0.000 F 
ATOM     30  F   UNL     1       1.515   2.397  21.173  0.00  0.00    +0.000 F 
ENDBRANCH  24  27
ENDBRANCH   1  25
BRANCH   8  31
ATOM     31  O   UNL     1      -0.021   9.110  23.453  0.00  0.00    +0.000 OA
ATOM     32  H   UNL     1       0.574   8.621  24.048  0.00  0.00    +0.000 HD
ENDBRANCH   8  31
TORSDOF 5
ENDMDL
MODEL 3
REMARK VINA RESULT:      -8.6      3.447      4.558
REMARK  Name = 
REMARK  5 active torsions:
REMARK  status: ('A' for Active; 'I' for Inactive)
REMARK    1  A    between atoms: C_2  and  C_27
REMARK    2  A    between atoms: N_3  and  C_4
REMARK    3  A    between atoms: C_11  and  O_12
REMARK    4  A    between atoms: C_13  and  N_14
REMARK    5  A    between atoms: C_17  and  C_18
REMARK                            x       y       z     vdW  Elec       q    Type
REMARK                         _______ _______ _______ _____ _____    ______ ____
ROOT
ATOM      1  C   UNL     1       3.084   5.774  18.488  0.00  0.00    +0.000 A 
ATOM      2  C   UNL     1       2.926   4.686  19.356  0.00  0.00    +0.000 A 
ATOM      3  C   UNL     1       2.238   4.816  20.558  0.00  0.00    +0.000 A 
ATOM      4  C   UNL     1       1.703   6.042  20.914  0.00  0.00    +0.000 A 
ATOM      5  C   UNL     1       1.865   7.159  20.080  0.00  0.00    +0.000 A 
ATOM      6  C   UNL     1       2.551   7.035  18.855  0.00  0.00    +0.000 A 
ATOM      7  C   UNL     1       2.711   8.252  17.976  0.00  0.00    +0.000 C 
ATOM      8  C   UNL     1       1.691   9.370  18.219  0.00  0.00    +0.000 C 
ATOM      9  C   UNL     1       1.581   9.712  19.730  0.00  0.00    +0.000 C 
ATOM     10  C   UNL     1       1.167   8.431  20.495  0.00  0.00    +0.000 C 
ENDROOT
BRANCH   9  11
ATOM     11  N   UNL     1       0.710  10.902  20.018  0.00  0.00    +0.000 NA
ATOM     12  C   UNL     1       0.661  11.860  18.900  0.00  0.00    +0.000 C 
ATOM     13  C   UNL     1      -0.397  12.958  19.026  0.00  0.00    +0.000 C 
ATOM     14  C   UNL     1      -1.797  12.382  19.312  0.00  0.00    +0.000 C 
ATOM     15  C   UNL     1      -1.641  11.615  20.641  0.00  0.00    +0.000 C 
ATOM     16  C   UNL     1      -0.605  10.493  20.534  0.00  0.00    +0.000 C 
BRANCH  14  17
ATOM     17  C   UNL     1      -2.435  11.587  18.165  0.00  0.00    +0.000 A 
ATOM     18  C   UNL     1      -1.701  10.642  17.424  0.00  0.00    +0.000 A 
ATOM     19  C   UNL     1      -2.281   9.921  16.374  0.00  0.00    +0.000 A 
ATOM     20  C   UNL     1      -3.621  10.103  16.058  0.00  0.00    +0.000 A 
ATOM     21  C   UNL     1      -4.385  10.989  16.808  0.00  0.00    +0.000 A 
ATOM     22  C   UNL     1      -3.801  11.713  17.856  0.00  0.00    +0.000 A 
ENDBRANCH  14  17
ENDBRANCH   9  11
BRANCH   1  25
ATOM     23  O   UNL     1       5.990   5.594  17.933  0.00  0.00    +0.000 OA
ATOM     24  C   UNL     1       5.133   5.552  17.045  0.00  0.00    +0.000 C 
ATOM     25  N   UNL     1       3.760   5.632  17.249  0.00  0.00    +0.000 N 
ATOM     26  H   UNL     1       3.186   5.459  16.428  0.00  0.00    +0.000 HD
BRANCH  24  27
ATOM     27  C   UNL     1       5.514   5.364  15.567  0.00  0.00    +0.000 C 
ATOM     28  F   UNL     1       6.869   5.316  15.397  0.00  0.00    +0.000 F 
ATOM     29  F   UNL     1       5.022   4.211  15.038  0.00  0.00    +0.000 F 
ATOM     30  F   UNL     1       5.071   6.381  14.780  0.00  0.00    +0.000 F 
ENDBRANCH  24  27
ENDBRANCH   1  25
BRANCH   8  31
ATOM     31  O   UNL     1       2.103  10.497  17.433  0.00  0.00    +0.000 OA
ATOM     32  H   UNL     1       2.982  10.298  17.068  0.00  0.00    +0.000 HD
ENDBRANCH   8  31
TORSDOF 5
ENDMDL
MODEL 4
REMARK VINA RESULT:      -8.6      1.944      3.664
REMARK  Name = 
REMARK  5 active torsions:
REMARK  status: ('A' for Active; 'I' for Inactive)
REMARK    1  A    between atoms: C_2  and  C_27
REMARK    2  A    between atoms: N_3  and  C_4
REMARK    3  A    between atoms: C_11  and  O_12
REMARK    4  A    between atoms: C_13  and  N_14
REMARK    5  A    between atoms: C_17  and  C_18
REMARK                            x       y       z     vdW  Elec       q    Type
REMARK                         _______ _______ _______ _____ _____    ______ ____
ROOT
ATOM      1  C   UNL     1       2.363   6.697  19.621  0.00  0.00    +0.000 A 
ATOM      2  C   UNL     1       3.138   6.755  18.456  0.00  0.00    +0.000 A 
ATOM      3  C   UNL     1       3.117   7.876  17.632  0.00  0.00    +0.000 A 
ATOM      4  C   UNL     1       2.312   8.953  17.958  0.00  0.00    +0.000 A 
ATOM      5  C   UNL     1       1.502   8.917  19.104  0.00  0.00    +0.000 A 
ATOM      6  C   UNL     1       1.525   7.790  19.951  0.00  0.00    +0.000 A 
ATOM      7  C   UNL     1       0.645   7.777  21.179  0.00  0.00    +0.000 C 
ATOM      8  C   UNL     1       0.209   9.157  21.684  0.00  0.00    +0.000 C 
ATOM      9  C   UNL     1      -0.360  10.024  20.528  0.00  0.00    +0.000 C 
ATOM     10  C   UNL     1       0.732  10.170  19.439  0.00  0.00    +0.000 C 
ENDROOT
BRANCH   9  11
ATOM     11  N   UNL     1      -0.944  11.332  20.983  0.00  0.00    +0.000 NA
ATOM     12  C   UNL     1      -0.142  11.980  22.036  0.00  0.00    +0.000 C 
ATOM     13  C   UNL     1      -0.538  13.421  22.364  0.00  0.00    +0.000 C 
ATOM     14  C   UNL     1      -0.599  14.305  21.103  0.00  0.00    +0.000 C 
ATOM     15  C   UNL     1      -1.660  13.635  20.207  0.00  0.00    +0.000 C 
ATOM     16  C   UNL     1      -1.276  12.199  19.843  0.00  0.00    +0.000 C 
BRANCH  14  17
ATOM     17  C   UNL     1       0.748  14.591  20.426  0.00  0.00    +0.000 A 
ATOM     18  C   UNL     1       0.823  15.191  19.155  0.00  0.00    +0.000 A 
ATOM     19  C   UNL     1       2.050  15.447  18.535  0.00  0.00    +0.000 A 
ATOM     20  C   UNL     1       3.239  15.139  19.185  0.00  0.00    +0.000 A 
ATOM     21  C   UNL     1       3.198  14.597  20.464  0.00  0.00    +0.000 A 
ATOM     22  C   UNL     1       1.966  14.338  21.081  0.00  0.00    +0.000 A 
ENDBRANCH  14  17
ENDBRANCH   9  11
BRANCH   1  25
ATOM     23  O   UNL     1       1.139   4.019  19.276  0.00  0.00    +0.000 OA
ATOM     24  C   UNL     1       1.812   4.327  20.264  0.00  0.00    +0.000 C 
ATOM     25  N   UNL     1       2.408   5.565  20.477  0.00  0.00    +0.000 N 
ATOM     26  H   UNL     1       3.030   5.619  21.279  0.00  0.00    +0.000 HD
BRANCH  24  27
ATOM     27  C   UNL     1       2.102   3.317  21.388  0.00  0.00    +0.000 C 
ATOM     28  F   UNL     1       0.990   2.594  21.716  0.00  0.00    +0.000 F 
ATOM     29  F   UNL     1       3.059   2.412  21.051  0.00  0.00    +0.000 F 
ATOM     30  F   UNL     1       2.513   3.919  22.537  0.00  0.00    +0.000 F 
ENDBRANCH  24  27
ENDBRANCH   1  25
BRANCH   8  31
ATOM     31  O   UNL     1      -0.750   8.942  22.727  0.00  0.00    +0.000 OA
ATOM     32  H   UNL     1      -0.438   9.412  23.518  0.00  0.00    +0.000 HD
ENDBRANCH   8  31
TORSDOF 5
ENDMDL
MODEL 5
REMARK VINA RESULT:      -8.6      1.957      3.777
REMARK  Name = 
REMARK  5 active torsions:
REMARK  status: ('A' for Active; 'I' for Inactive)
REMARK    1  A    between atoms: C_2  and  C_27
REMARK    2  A    between atoms: N_3  and  C_4
REMARK    3  A    between atoms: C_11  and  O_12
REMARK    4  A    between atoms: C_13  and  N_14
REMARK    5  A    between atoms: C_17  and  C_18
REMARK                            x       y       z     vdW  Elec       q    Type
REMARK                         _______ _______ _______ _____ _____    ______ ____
ROOT
ATOM      1  C   UNL     1       2.376   6.652  19.641  0.00  0.00    +0.000 A 
ATOM      2  C   UNL     1       3.151   6.700  18.475  0.00  0.00    +0.000 A 
ATOM      3  C   UNL     1       3.128   7.813  17.640  0.00  0.00    +0.000 A 
ATOM      4  C   UNL     1       2.321   8.892  17.956  0.00  0.00    +0.000 A 
ATOM      5  C   UNL     1       1.512   8.865  19.103  0.00  0.00    +0.000 A 
ATOM      6  C   UNL     1       1.537   7.747  19.961  0.00  0.00    +0.000 A 
ATOM      7  C   UNL     1       0.658   7.745  21.189  0.00  0.00    +0.000 C 
ATOM      8  C   UNL     1       0.220   9.128  21.681  0.00  0.00    +0.000 C 
ATOM      9  C   UNL     1      -0.351   9.984  20.517  0.00  0.00    +0.000 C 
ATOM     10  C   UNL     1       0.740  10.121  19.427  0.00  0.00    +0.000 C 
ENDROOT
BRANCH   9  11
ATOM     11  N   UNL     1      -0.936  11.295  20.961  0.00  0.00    +0.000 NA
ATOM     12  C   UNL     1      -0.147  11.943  22.023  0.00  0.00    +0.000 C 
ATOM     13  C   UNL     1      -0.542  13.387  22.341  0.00  0.00    +0.000 C 
ATOM     14  C   UNL     1      -0.583  14.266  21.077  0.00  0.00    +0.000 C 
ATOM     15  C   UNL     1      -1.634  13.598  20.168  0.00  0.00    +0.000 C 
ATOM     16  C   UNL     1      -1.249  12.159  19.813  0.00  0.00    +0.000 C 
BRANCH  14  17
ATOM     17  C   UNL     1       0.775  14.546  20.418  0.00  0.00    +0.000 A 
ATOM     18  C   UNL     1       1.985  14.193  21.043  0.00  0.00    +0.000 A 
ATOM     19  C   UNL     1       3.224  14.453  20.447  0.00  0.00    +0.000 A 
ATOM     20  C   UNL     1       3.284  15.045  19.191  0.00  0.00    +0.000 A 
ATOM     21  C   UNL     1       2.104  15.354  18.525  0.00  0.00    +0.000 A 
ATOM     22  C   UNL     1       0.865  15.096  19.127  0.00  0.00    +0.000 A 
ENDBRANCH  14  17
ENDBRANCH   9  11
BRANCH   1  25
ATOM     23  O   UNL     1       1.155   3.970  19.323  0.00  0.00    +0.000 OA
ATOM     24  C   UNL     1       1.829   4.288  20.307  0.00  0.00    +0.000 C 
ATOM     25  N   UNL     1       2.424   5.528  20.507  0.00  0.00    +0.000 N 
ATOM     26  H   UNL     1       3.047   5.590  21.308  0.00  0.00    +0.000 HD
BRANCH  24  27
ATOM     27  C   UNL     1       2.121   3.289  21.441  0.00  0.00    +0.000 C 
ATOM     28  F   UNL     1       2.548   3.922  22.574  0.00  0.00    +0.000 F 
ATOM     29  F   UNL     1       1.027   2.563  21.799  0.00  0.00    +0.000 F 
ATOM     30  F   UNL     1       3.097   2.399  21.114  0.00  0.00    +0.000 F 
ENDBRANCH  24  27
ENDBRANCH   1  25
BRANCH   8  31
ATOM     31  O   UNL     1      -0.738   8.922  22.727  0.00  0.00    +0.000 OA
ATOM     32  H   UNL     1      -0.345   9.242  23.557  0.00  0.00    +0.000 HD
ENDBRANCH   8  31
TORSDOF 5
ENDMDL
MODEL 6
REMARK VINA RESULT:      -8.4      3.855      5.640
REMARK  Name = 
REMARK  5 active torsions:
REMARK  status: ('A' for Active; 'I' for Inactive)
REMARK    1  A    between atoms: C_2  and  C_27
REMARK    2  A    between atoms: N_3  and  C_4
REMARK    3  A    between atoms: C_11  and  O_12
REMARK    4  A    between atoms: C_13  and  N_14
REMARK    5  A    between atoms: C_17  and  C_18
REMARK                            x       y       z     vdW  Elec       q    Type
REMARK                         _______ _______ _______ _____ _____    ______ ____
ROOT
ATOM      1  C   UNL     1       3.620   4.530  18.850  0.00  0.00    +0.000 A 
ATOM      2  C   UNL     1       3.473   3.360  19.608  0.00  0.00    +0.000 A 
ATOM      3  C   UNL     1       2.634   3.321  20.717  0.00  0.00    +0.000 A 
ATOM      4  C   UNL     1       1.935   4.456  21.089  0.00  0.00    +0.000 A 
ATOM      5  C   UNL     1       2.079   5.651  20.368  0.00  0.00    +0.000 A 
ATOM      6  C   UNL     1       2.918   5.698  19.236  0.00  0.00    +0.000 A 
ATOM      7  C   UNL     1       3.055   6.996  18.477  0.00  0.00    +0.000 C 
ATOM      8  C   UNL     1       1.902   7.988  18.667  0.00  0.00    +0.000 C 
ATOM      9  C   UNL     1       1.573   8.186  20.172  0.00  0.00    +0.000 C 
ATOM     10  C   UNL     1       1.206   6.811  20.781  0.00  0.00    +0.000 C 
ENDROOT
BRANCH   9  11
ATOM     11  N   UNL     1       0.554   9.259  20.432  0.00  0.00    +0.000 NA
ATOM     12  C   UNL     1       0.949  10.172  21.518  0.00  0.00    +0.000 C 
ATOM     13  C   UNL     1       0.086  11.426  21.665  0.00  0.00    +0.000 C 
ATOM     14  C   UNL     1      -0.054  12.190  20.335  0.00  0.00    +0.000 C 
ATOM     15  C   UNL     1      -0.710  11.182  19.370  0.00  0.00    +0.000 C 
ATOM     16  C   UNL     1       0.148   9.927  19.186  0.00  0.00    +0.000 C 
BRANCH  14  17
ATOM     17  C   UNL     1       1.226  12.860  19.816  0.00  0.00    +0.000 A 
ATOM     18  C   UNL     1       1.541  12.887  18.445  0.00  0.00    +0.000 A 
ATOM     19  C   UNL     1       2.711  13.491  17.971  0.00  0.00    +0.000 A 
ATOM     20  C   UNL     1       3.582  14.116  18.856  0.00  0.00    +0.000 A 
ATOM     21  C   UNL     1       3.269  14.153  20.210  0.00  0.00    +0.000 A 
ATOM     22  C   UNL     1       2.099  13.543  20.681  0.00  0.00    +0.000 A 
ENDBRANCH  14  17
ENDBRANCH   9  11
BRANCH   1  25
ATOM     23  O   UNL     1       6.577   4.459  18.661  0.00  0.00    +0.000 OA
ATOM     24  C   UNL     1       5.843   4.524  17.671  0.00  0.00    +0.000 C 
ATOM     25  N   UNL     1       4.454   4.559  17.702  0.00  0.00    +0.000 N 
ATOM     26  H   UNL     1       3.994   4.488  16.797  0.00  0.00    +0.000 HD
BRANCH  24  27
ATOM     27  C   UNL     1       6.416   4.535  16.243  0.00  0.00    +0.000 C 
ATOM     28  F   UNL     1       7.782   4.541  16.247  0.00  0.00    +0.000 F 
ATOM     29  F   UNL     1       6.041   3.448  15.516  0.00  0.00    +0.000 F 
ATOM     30  F   UNL     1       6.035   5.634  15.537  0.00  0.00    +0.000 F 
ENDBRANCH  24  27
ENDBRANCH   1  25
BRANCH   8  31
ATOM     31  O   UNL     1       2.286   9.212  18.026  0.00  0.00    +0.000 OA
ATOM     32  H   UNL     1       1.612   9.880  18.236  0.00  0.00    +0.000 HD
ENDBRANCH   8  31
TORSDOF 5
ENDMDL
MODEL 7
REMARK VINA RESULT:      -8.3      3.956      5.753
REMARK  Name = 
REMARK  5 active torsions:
REMARK  status: ('A' for Active; 'I' for Inactive)
REMARK    1  A    between atoms: C_2  and  C_27
REMARK    2  A    between atoms: N_3  and  C_4
REMARK    3  A    between atoms: C_11  and  O_12
REMARK    4  A    between atoms: C_13  and  N_14
REMARK    5  A    between atoms: C_17  and  C_18
REMARK                            x       y       z     vdW  Elec       q    Type
REMARK                         _______ _______ _______ _____ _____    ______ ____
ROOT
ATOM      1  C   UNL     1       3.631   4.820  18.558  0.00  0.00    +0.000 A 
ATOM      2  C   UNL     1       3.569   3.695  19.391  0.00  0.00    +0.000 A 
ATOM      3  C   UNL     1       2.812   3.704  20.559  0.00  0.00    +0.000 A 
ATOM      4  C   UNL     1       2.112   4.843  20.915  0.00  0.00    +0.000 A 
ATOM      5  C   UNL     1       2.174   5.996  20.117  0.00  0.00    +0.000 A 
ATOM      6  C   UNL     1       2.929   5.994  18.926  0.00  0.00    +0.000 A 
ATOM      7  C   UNL     1       2.978   7.247  18.085  0.00  0.00    +0.000 C 
ATOM      8  C   UNL     1       1.816   8.223  18.301  0.00  0.00    +0.000 C 
ATOM      9  C   UNL     1       1.591   8.504  19.812  0.00  0.00    +0.000 C 
ATOM     10  C   UNL     1       1.304   7.160  20.525  0.00  0.00    +0.000 C 
ENDROOT
BRANCH   9  11
ATOM     11  N   UNL     1       0.566   9.569  20.083  0.00  0.00    +0.000 NA
ATOM     12  C   UNL     1       0.903  10.403  21.249  0.00  0.00    +0.000 C 
ATOM     13  C   UNL     1       0.041  11.654  21.428  0.00  0.00    +0.000 C 
ATOM     14  C   UNL     1      -0.015  12.506  20.146  0.00  0.00    +0.000 C 
ATOM     15  C   UNL     1      -0.620  11.571  19.081  0.00  0.00    +0.000 C 
ATOM     16  C   UNL     1       0.238  10.322  18.863  0.00  0.00    +0.000 C 
BRANCH  14  17
ATOM     17  C   UNL     1       1.298  13.194  19.749  0.00  0.00    +0.000 A 
ATOM     18  C   UNL     1       2.238  13.603  20.713  0.00  0.00    +0.000 A 
ATOM     19  C   UNL     1       3.433  14.236  20.353  0.00  0.00    +0.000 A 
ATOM     20  C   UNL     1       3.734  14.449  19.013  0.00  0.00    +0.000 A 
ATOM     21  C   UNL     1       2.850  14.006  18.036  0.00  0.00    +0.000 A 
ATOM     22  C   UNL     1       1.653  13.376  18.401  0.00  0.00    +0.000 A 
ENDBRANCH  14  17
ENDBRANCH   9  11
BRANCH   1  25
ATOM     23  O   UNL     1       6.532   4.372  18.144  0.00  0.00    +0.000 OA
ATOM     24  C   UNL     1       5.746   4.583  17.215  0.00  0.00    +0.000 C 
ATOM     25  N   UNL     1       4.380   4.799  17.352  0.00  0.00    +0.000 N 
ATOM     26  H   UNL     1       3.853   4.835  16.483  0.00  0.00    +0.000 HD
BRANCH  24  27
ATOM     27  C   UNL     1       6.214   4.593  15.750  0.00  0.00    +0.000 C 
ATOM     28  F   UNL     1       5.385   5.338  14.960  0.00  0.00    +0.000 F 
ATOM     29  F   UNL     1       7.460   5.119  15.597  0.00  0.00    +0.000 F 
ATOM     30  F   UNL     1       6.240   3.348  15.202  0.00  0.00    +0.000 F 
ENDBRANCH  24  27
ENDBRANCH   1  25
BRANCH   8  31
ATOM     31  O   UNL     1       2.122   9.415  17.565  0.00  0.00    +0.000 OA
ATOM     32  H   UNL     1       3.088   9.459  17.461  0.00  0.00    +0.000 HD
ENDBRANCH   8  31
TORSDOF 5
ENDMDL
MODEL 8
REMARK VINA RESULT:      -8.2      2.564      3.580
REMARK  Name = 
REMARK  5 active torsions:
REMARK  status: ('A' for Active; 'I' for Inactive)
REMARK    1  A    between atoms: C_2  and  C_27
REMARK    2  A    between atoms: N_3  and  C_4
REMARK    3  A    between atoms: C_11  and  O_12
REMARK    4  A    between atoms: C_13  and  N_14
REMARK    5  A    between atoms: C_17  and  C_18
REMARK                            x       y       z     vdW  Elec       q    Type
REMARK                         _______ _______ _______ _____ _____    ______ ____
ROOT
ATOM      1  C   UNL     1       4.124   5.098  17.695  0.00  0.00    +0.000 A 
ATOM      2  C   UNL     1       4.957   5.251  16.579  0.00  0.00    +0.000 A 
ATOM      3  C   UNL     1       5.078   6.477  15.932  0.00  0.00    +0.000 A 
ATOM      4  C   UNL     1       4.359   7.567  16.387  0.00  0.00    +0.000 A 
ATOM      5  C   UNL     1       3.495   7.443  17.487  0.00  0.00    +0.000 A 
ATOM      6  C   UNL     1       3.375   6.208  18.156  0.00  0.00    +0.000 A 
ATOM      7  C   UNL     1       2.439   6.101  19.337  0.00  0.00    +0.000 C 
ATOM      8  C   UNL     1       2.106   7.429  20.027  0.00  0.00    +0.000 C 
ATOM      9  C   UNL     1       1.675   8.506  18.995  0.00  0.00    +0.000 C 
ATOM     10  C   UNL     1       2.826   8.702  17.979  0.00  0.00    +0.000 C 
ENDROOT
BRANCH   9  11
ATOM     11  N   UNL     1       1.190   9.784  19.622  0.00  0.00    +0.000 NA
ATOM     12  C   UNL     1       1.169  10.912  18.675  0.00  0.00    +0.000 C 
ATOM     13  C   UNL     1       0.454  12.169  19.173  0.00  0.00    +0.000 C 
ATOM     14  C   UNL     1      -0.965  11.862  19.687  0.00  0.00    +0.000 C 
ATOM     15  C   UNL     1      -0.756  10.857  20.837  0.00  0.00    +0.000 C 
ATOM     16  C   UNL     1      -0.065   9.577  20.359  0.00  0.00    +0.000 C 
BRANCH  14  17
ATOM     17  C   UNL     1      -1.981  11.436  18.617  0.00  0.00    +0.000 A 
ATOM     18  C   UNL     1      -1.640  10.532  17.594  0.00  0.00    +0.000 A 
ATOM     19  C   UNL     1      -2.562  10.148  16.615  0.00  0.00    +0.000 A 
ATOM     20  C   UNL     1      -3.864  10.635  16.653  0.00  0.00    +0.000 A 
ATOM     21  C   UNL     1      -4.245  11.486  17.683  0.00  0.00    +0.000 A 
ATOM     22  C   UNL     1      -3.317  11.872  18.660  0.00  0.00    +0.000 A 
ENDBRANCH  14  17
ENDBRANCH   9  11
BRANCH   1  25
ATOM     23  O   UNL     1       2.273   2.833  17.222  0.00  0.00    +0.000 OA
ATOM     24  C   UNL     1       3.133   2.822  18.107  0.00  0.00    +0.000 C 
ATOM     25  N   UNL     1       4.026   3.855  18.372  0.00  0.00    +0.000 N 
ATOM     26  H   UNL     1       4.751   3.642  19.052  0.00  0.00    +0.000 HD
BRANCH  24  27
ATOM     27  C   UNL     1       3.336   1.601  19.020  0.00  0.00    +0.000 C 
ATOM     28  F   UNL     1       2.149   1.135  19.511  0.00  0.00    +0.000 F 
ATOM     29  F   UNL     1       3.920   0.553  18.377  0.00  0.00    +0.000 F 
ATOM     30  F   UNL     1       4.109   1.881  20.103  0.00  0.00    +0.000 F 
ENDBRANCH  24  27
ENDBRANCH   1  25
BRANCH   8  31
ATOM     31  O   UNL     1       1.082   7.158  20.993  0.00  0.00    +0.000 OA
ATOM     32  H   UNL     1       1.518   6.960  21.839  0.00  0.00    +0.000 HD
ENDBRANCH   8  31
TORSDOF 5
ENDMDL
MODEL 9
REMARK VINA RESULT:      -8.2      3.526      4.738
REMARK  Name = 
REMARK  5 active torsions:
REMARK  status: ('A' for Active; 'I' for Inactive)
REMARK    1  A    between atoms: C_2  and  C_27
REMARK    2  A    between atoms: N_3  and  C_4
REMARK    3  A    between atoms: C_11  and  O_12
REMARK    4  A    between atoms: C_13  and  N_14
REMARK    5  A    between atoms: C_17  and  C_18
REMARK                            x       y       z     vdW  Elec       q    Type
REMARK                         _______ _______ _______ _____ _____    ______ ____
ROOT
ATOM      1  C   UNL     1       3.050   4.949  18.432  0.00  0.00    +0.000 A 
ATOM      2  C   UNL     1       2.813   3.832  19.244  0.00  0.00    +0.000 A 
ATOM      3  C   UNL     1       2.144   3.954  20.458  0.00  0.00    +0.000 A 
ATOM      4  C   UNL     1       1.710   5.197  20.882  0.00  0.00    +0.000 A 
ATOM      5  C   UNL     1       1.955   6.340  20.105  0.00  0.00    +0.000 A 
ATOM      6  C   UNL     1       2.621   6.226  18.868  0.00  0.00    +0.000 A 
ATOM      7  C   UNL     1       2.870   7.472  18.052  0.00  0.00    +0.000 C 
ATOM      8  C   UNL     1       1.944   8.653  18.362  0.00  0.00    +0.000 C 
ATOM      9  C   UNL     1       1.870   8.922  19.890  0.00  0.00    +0.000 C 
ATOM     10  C   UNL     1       1.362   7.640  20.592  0.00  0.00    +0.000 C 
ENDROOT
BRANCH   9  11
ATOM     11  N   UNL     1       1.098  10.161  20.249  0.00  0.00    +0.000 NA
ATOM     12  C   UNL     1       1.108  11.172  19.177  0.00  0.00    +0.000 C 
ATOM     13  C   UNL     1       0.140  12.340  19.372  0.00  0.00    +0.000 C 
ATOM     14  C   UNL     1      -1.296  11.860  19.655  0.00  0.00    +0.000 C 
ATOM     15  C   UNL     1      -1.182  11.021  20.944  0.00  0.00    +0.000 C 
ATOM     16  C   UNL     1      -0.238   9.829  20.767  0.00  0.00    +0.000 C 
BRANCH  14  17
ATOM     17  C   UNL     1      -2.009  11.172  18.483  0.00  0.00    +0.000 A 
ATOM     18  C   UNL     1      -3.351  11.456  18.167  0.00  0.00    +0.000 A 
ATOM     19  C   UNL     1      -4.004  10.826  17.102  0.00  0.00    +0.000 A 
ATOM     20  C   UNL     1      -3.321   9.917  16.303  0.00  0.00    +0.000 A 
ATOM     21  C   UNL     1      -1.979   9.659  16.557  0.00  0.00    +0.000 A 
ATOM     22  C   UNL     1      -1.329  10.288  17.627  0.00  0.00    +0.000 A 
ENDBRANCH  14  17
ENDBRANCH   9  11
BRANCH   1  25
ATOM     23  O   UNL     1       5.942   5.065  17.793  0.00  0.00    +0.000 OA
ATOM     24  C   UNL     1       5.072   4.883  16.936  0.00  0.00    +0.000 C 
ATOM     25  N   UNL     1       3.705   4.819  17.179  0.00  0.00    +0.000 N 
ATOM     26  H   UNL     1       3.132   4.541  16.386  0.00  0.00    +0.000 HD
BRANCH  24  27
ATOM     27  C   UNL     1       5.433   4.662  15.457  0.00  0.00    +0.000 C 
ATOM     28  F   UNL     1       4.477   3.934  14.808  0.00  0.00    +0.000 F 
ATOM     29  F   UNL     1       5.561   5.826  14.765  0.00  0.00    +0.000 F 
ATOM     30  F   UNL     1       6.599   3.979  15.300  0.00  0.00    +0.000 F 
ENDBRANCH  24  27
ENDBRANCH   1  25
BRANCH   8  31
ATOM     31  O   UNL     1       2.438   9.783  17.632  0.00  0.00    +0.000 OA
ATOM     32  H   UNL     1       2.769  10.431  18.277  0.00  0.00    +0.000 HD
ENDBRANCH   8  31
TORSDOF 5
ENDMDL
