MODEL 1
REMARK VINA RESULT:      -8.9      0.000      0.000
REMARK  Name = 
REMARK  6 active torsions:
REMARK  status: ('A' for Active; 'I' for Inactive)
REMARK    1  A    between atoms: C_1  and  C_2
REMARK    2  A    between atoms: C_7  and  C_8
REMARK    3  A    between atoms: C_11  and  N_12
REMARK    4  A    between atoms: C_13  and  C_15
REMARK    5  A    between atoms: C_15  and  C_16
REMARK    6  A    between atoms: C_16  and  N_17
REMARK                            x       y       z     vdW  Elec       q    Type
REMARK                         _______ _______ _______ _____ _____    ______ ____
ROOT
ATOM      1  N   UNL     1       3.415   6.455  17.136  0.00  0.00    +0.000 N 
ATOM      2  C   UNL     1       4.797   6.347  17.028  0.00  0.00    +0.000 C 
ATOM      3  O   UNL     1       5.603   7.049  17.643  0.00  0.00    +0.000 OA
ATOM      4  H   UNL     1       2.835   5.775  16.661  0.00  0.00    +0.000 HD
ENDROOT
BRANCH   1   8
ATOM      5  C   UNL     1       1.435   9.261  19.682  0.00  0.00    +0.000 A 
ATOM      6  C   UNL     1       1.740   9.575  18.360  0.00  0.00    +0.000 A 
ATOM      7  C   UNL     1       2.387   8.654  17.537  0.00  0.00    +0.000 A 
ATOM      8  C   UNL     1       2.754   7.384  17.992  0.00  0.00    +0.000 A 
ATOM      9  C   UNL     1       2.430   7.047  19.310  0.00  0.00    +0.000 A 
ATOM     10  C   UNL     1       1.786   7.983  20.150  0.00  0.00    +0.000 A 
BRANCH   5  17
ATOM     11  C   UNL     1      -2.723  13.716  24.318  0.00  0.00    +0.000 C 
ATOM     12  C   UNL     1      -1.757  13.169  23.308  0.00  0.00    +0.000 A 
ATOM     13  C   UNL     1      -0.954  14.027  22.553  0.00  0.00    +0.000 A 
ATOM     14  C   UNL     1      -0.041  13.523  21.620  0.00  0.00    +0.000 A 
ATOM     15  C   UNL     1       0.068  12.136  21.424  0.00  0.00    +0.000 A 
ATOM     16  N   UNL     1       0.913  11.513  20.526  0.00  0.00    +0.000 NA
ATOM     17  C   UNL     1       0.734  10.209  20.562  0.00  0.00    +0.000 A 
ATOM     18  S   UNL     1      -0.432   9.668  21.712  0.00  0.00    +0.000 S 
ATOM     19  C   UNL     1      -0.749  11.289  22.173  0.00  0.00    +0.000 A 
ATOM     20  C   UNL     1      -1.664  11.781  23.122  0.00  0.00    +0.000 A 
ENDBRANCH   5  17
ENDBRANCH   1   8
BRANCH   2  21
ATOM     21  C   UNL     1       5.335   5.272  16.095  0.00  0.00    +0.000 C 
BRANCH  21  22
ATOM     22  C   UNL     1       5.129   3.911  16.802  0.00  0.00    +0.000 C 
BRANCH  22  23
ATOM     23  N   UNL     1       4.105   3.844  17.833  0.00  0.00    +0.000 N 
ATOM     24  C   UNL     1       4.443   3.644  19.140  0.00  0.00    +0.000 C 
ATOM     25  O   UNL     1       5.547   3.607  19.648  0.00  0.00    +0.000 OA
ATOM     26  C   UNL     1       3.223   3.367  19.866  0.00  0.00    +0.000 A 
ATOM     27  C   UNL     1       3.060   3.215  21.236  0.00  0.00    +0.000 A 
ATOM     28  C   UNL     1       1.786   2.870  21.677  0.00  0.00    +0.000 A 
ATOM     29  C   UNL     1       0.743   2.654  20.762  0.00  0.00    +0.000 A 
ATOM     30  C   UNL     1       0.940   2.831  19.376  0.00  0.00    +0.000 A 
ATOM     31  C   UNL     1       2.199   3.223  18.952  0.00  0.00    +0.000 A 
ATOM     32  C   UNL     1       2.773   3.525  17.623  0.00  0.00    +0.000 C 
ATOM     33  O   UNL     1       2.155   3.456  16.580  0.00  0.00    +0.000 OA
ENDBRANCH  22  23
ENDBRANCH  21  22
ENDBRANCH   2  21
TORSDOF 5
ENDMDL
MODEL 2
REMARK VINA RESULT:      -8.9      0.766      1.417
REMARK  Name = 
REMARK  6 active torsions:
REMARK  status: ('A' for Active; 'I' for Inactive)
REMARK    1  A    between atoms: C_1  and  C_2
REMARK    2  A    between atoms: C_7  and  C_8
REMARK    3  A    between atoms: C_11  and  N_12
REMARK    4  A    between atoms: C_13  and  C_15
REMARK    5  A    between atoms: C_15  and  C_16
REMARK    6  A    between atoms: C_16  and  N_17
REMARK                            x       y       z     vdW  Elec       q    Type
REMARK                         _______ _______ _______ _____ _____    ______ ____
ROOT
ATOM      1  N   UNL     1       3.482   6.465  17.062  0.00  0.00    +0.000 N 
ATOM      2  C   UNL     1       4.866   6.344  17.016  0.00  0.00    +0.000 C 
ATOM      3  O   UNL     1       5.651   7.043  17.660  0.00  0.00    +0.000 OA
ATOM      4  H   UNL     1       2.917   5.787  16.567  0.00  0.00    +0.000 HD
ENDROOT
BRANCH   1   8
ATOM      5  C   UNL     1       1.411   9.268  19.539  0.00  0.00    +0.000 A 
ATOM      6  C   UNL     1       1.766   8.007  20.014  0.00  0.00    +0.000 A 
ATOM      7  C   UNL     1       2.440   7.099  19.199  0.00  0.00    +0.000 A 
ATOM      8  C   UNL     1       2.793   7.407  17.881  0.00  0.00    +0.000 A 
ATOM      9  C   UNL     1       2.466   8.679  17.401  0.00  0.00    +0.000 A 
ATOM     10  C   UNL     1       1.771   9.596  18.220  0.00  0.00    +0.000 A 
BRANCH   5  17
ATOM     11  C   UNL     1      -1.640  14.798  23.867  0.00  0.00    +0.000 C 
ATOM     12  C   UNL     1      -1.277  13.497  23.212  0.00  0.00    +0.000 A 
ATOM     13  C   UNL     1      -1.854  12.300  23.638  0.00  0.00    +0.000 A 
ATOM     14  C   UNL     1      -1.532  11.086  23.022  0.00  0.00    +0.000 A 
ATOM     15  C   UNL     1      -0.605  11.060  21.966  0.00  0.00    +0.000 A 
ATOM     16  N   UNL     1      -0.188   9.930  21.288  0.00  0.00    +0.000 NA
ATOM     17  C   UNL     1       0.719  10.250  20.388  0.00  0.00    +0.000 A 
ATOM     18  S   UNL     1       1.081  11.933  20.287  0.00  0.00    +0.000 S 
ATOM     19  C   UNL     1      -0.024  12.260  21.558  0.00  0.00    +0.000 A 
ATOM     20  C   UNL     1      -0.347  13.489  22.161  0.00  0.00    +0.000 A 
ENDBRANCH   5  17
ENDBRANCH   1   8
BRANCH   2  21
ATOM     21  C   UNL     1       5.434   5.257  16.116  0.00  0.00    +0.000 C 
BRANCH  21  22
ATOM     22  C   UNL     1       5.199   3.904  16.831  0.00  0.00    +0.000 C 
BRANCH  22  23
ATOM     23  N   UNL     1       4.150   3.856  17.836  0.00  0.00    +0.000 N 
ATOM     24  C   UNL     1       4.454   3.687  19.156  0.00  0.00    +0.000 C 
ATOM     25  O   UNL     1       5.544   3.665  19.693  0.00  0.00    +0.000 OA
ATOM     26  C   UNL     1       3.216   3.421  19.856  0.00  0.00    +0.000 A 
ATOM     27  C   UNL     1       3.018   3.299  21.225  0.00  0.00    +0.000 A 
ATOM     28  C   UNL     1       1.734   2.959  21.640  0.00  0.00    +0.000 A 
ATOM     29  C   UNL     1       0.716   2.718  20.703  0.00  0.00    +0.000 A 
ATOM     30  C   UNL     1       0.949   2.865  19.319  0.00  0.00    +0.000 A 
ATOM     31  C   UNL     1       2.216   3.253  18.919  0.00  0.00    +0.000 A 
ATOM     32  C   UNL     1       2.824   3.528  17.599  0.00  0.00    +0.000 C 
ATOM     33  O   UNL     1       2.234   3.433  16.542  0.00  0.00    +0.000 OA
ENDBRANCH  22  23
ENDBRANCH  21  22
ENDBRANCH   2  21
TORSDOF 5
ENDMDL
MODEL 3
REMARK VINA RESULT:      -8.8      0.607      1.628
REMARK  Name = 
REMARK  6 active torsions:
REMARK  status: ('A' for Active; 'I' for Inactive)
REMARK    1  A    between atoms: C_1  and  C_2
REMARK    2  A    between atoms: C_7  and  C_8
REMARK    3  A    between atoms: C_11  and  N_12
REMARK    4  A    between atoms: C_13  and  C_15
REMARK    5  A    between atoms: C_15  and  C_16
REMARK    6  A    between atoms: C_16  and  N_17
REMARK                            x       y       z     vdW  Elec       q    Type
REMARK                         _______ _______ _______ _____ _____    ______ ____
ROOT
ATOM      1  N   UNL     1       3.458   6.388  17.425  0.00  0.00    +0.000 N 
ATOM      2  C   UNL     1       4.842   6.281  17.481  0.00  0.00    +0.000 C 
ATOM      3  O   UNL     1       5.570   6.985  18.185  0.00  0.00    +0.000 OA
ATOM      4  H   UNL     1       2.937   5.707  16.887  0.00  0.00    +0.000 HD
ENDROOT
BRANCH   1   8
ATOM      5  C   UNL     1       1.188   9.202  19.708  0.00  0.00    +0.000 A 
ATOM      6  C   UNL     1       1.517   9.449  18.377  0.00  0.00    +0.000 A 
ATOM      7  C   UNL     1       2.258   8.526  17.641  0.00  0.00    +0.000 A 
ATOM      8  C   UNL     1       2.700   7.320  18.194  0.00  0.00    +0.000 A 
ATOM      9  C   UNL     1       2.353   7.049  19.521  0.00  0.00    +0.000 A 
ATOM     10  C   UNL     1       1.614   7.988  20.274  0.00  0.00    +0.000 A 
BRANCH   5  17
ATOM     11  C   UNL     1      -3.224  13.591  24.168  0.00  0.00    +0.000 C 
ATOM     12  C   UNL     1      -2.377  13.027  23.066  0.00  0.00    +0.000 A 
ATOM     13  C   UNL     1      -2.169  13.746  21.887  0.00  0.00    +0.000 A 
ATOM     14  C   UNL     1      -1.368  13.232  20.862  0.00  0.00    +0.000 A 
ATOM     15  C   UNL     1      -0.769  11.969  21.007  0.00  0.00    +0.000 A 
ATOM     16  N   UNL     1       0.026  11.341  20.066  0.00  0.00    +0.000 NA
ATOM     17  C   UNL     1       0.388  10.152  20.498  0.00  0.00    +0.000 A 
ATOM     18  S   UNL     1      -0.177   9.748  22.077  0.00  0.00    +0.000 S 
ATOM     19  C   UNL     1      -0.994  11.253  22.182  0.00  0.00    +0.000 A 
ATOM     20  C   UNL     1      -1.789  11.762  23.225  0.00  0.00    +0.000 A 
ENDBRANCH   5  17
ENDBRANCH   1   8
BRANCH   2  21
ATOM     21  C   UNL     1       5.486   5.203  16.623  0.00  0.00    +0.000 C 
BRANCH  21  22
ATOM     22  C   UNL     1       4.428   4.093  16.414  0.00  0.00    +0.000 C 
BRANCH  22  23
ATOM     23  N   UNL     1       3.797   3.543  17.604  0.00  0.00    +0.000 N 
ATOM     24  C   UNL     1       2.442   3.593  17.762  0.00  0.00    +0.000 C 
ATOM     25  O   UNL     1       1.592   3.959  16.974  0.00  0.00    +0.000 OA
ATOM     26  C   UNL     1       2.151   3.214  19.128  0.00  0.00    +0.000 A 
ATOM     27  C   UNL     1       0.908   3.011  19.711  0.00  0.00    +0.000 A 
ATOM     28  C   UNL     1       0.898   2.729  21.074  0.00  0.00    +0.000 A 
ATOM     29  C   UNL     1       2.094   2.696  21.809  0.00  0.00    +0.000 A 
ATOM     30  C   UNL     1       3.342   2.893  21.181  0.00  0.00    +0.000 A 
ATOM     31  C   UNL     1       3.344   3.123  19.815  0.00  0.00    +0.000 A 
ATOM     32  C   UNL     1       4.420   3.345  18.826  0.00  0.00    +0.000 C 
ATOM     33  O   UNL     1       5.603   3.373  19.097  0.00  0.00    +0.000 OA
ENDBRANCH  22  23
ENDBRANCH  21  22
ENDBRANCH   2  21
TORSDOF 5
ENDMDL
MODEL 4
REMARK VINA RESULT:      -8.8      1.109      2.004
REMARK  Name = 
REMARK  6 active torsions:
REMARK  status: ('A' for Active; 'I' for Inactive)
REMARK    1  A    between atoms: C_1  and  C_2
REMARK    2  A    between atoms: C_7  and  C_8
REMARK    3  A    between atoms: C_11  and  N_12
REMARK    4  A    between atoms: C_13  and  C_15
REMARK    5  A    between atoms: C_15  and  C_16
REMARK    6  A    between atoms: C_16  and  N_17
REMARK                            x       y       z     vdW  Elec       q    Type
REMARK                         _______ _______ _______ _____ _____    ______ ____
ROOT
ATOM      1  N   UNL     1       3.998   6.209  17.425  0.00  0.00    +0.000 N 
ATOM      2  C   UNL     1       5.154   5.677  17.984  0.00  0.00    +0.000 C 
ATOM      3  O   UNL     1       5.559   5.925  19.122  0.00  0.00    +0.000 OA
ATOM      4  H   UNL     1       3.698   5.877  16.517  0.00  0.00    +0.000 HD
ENDROOT
BRANCH   1   8
ATOM      5  C   UNL     1       1.370   8.900  19.457  0.00  0.00    +0.000 A 
ATOM      6  C   UNL     1       1.862   9.192  18.187  0.00  0.00    +0.000 A 
ATOM      7  C   UNL     1       2.720   8.309  17.532  0.00  0.00    +0.000 A 
ATOM      8  C   UNL     1       3.120   7.100  18.110  0.00  0.00    +0.000 A 
ATOM      9  C   UNL     1       2.612   6.784  19.373  0.00  0.00    +0.000 A 
ATOM     10  C   UNL     1       1.754   7.683  20.045  0.00  0.00    +0.000 A 
BRANCH   5  17
ATOM     11  C   UNL     1      -3.273  14.103  22.619  0.00  0.00    +0.000 C 
ATOM     12  C   UNL     1      -2.375  12.933  22.342  0.00  0.00    +0.000 A 
ATOM     13  C   UNL     1      -2.021  12.049  23.362  0.00  0.00    +0.000 A 
ATOM     14  C   UNL     1      -1.196  10.948  23.108  0.00  0.00    +0.000 A 
ATOM     15  C   UNL     1      -0.700  10.729  21.811  0.00  0.00    +0.000 A 
ATOM     16  N   UNL     1       0.135   9.695  21.431  0.00  0.00    +0.000 NA
ATOM     17  C   UNL     1       0.447   9.807  20.157  0.00  0.00    +0.000 A 
ATOM     18  S   UNL     1      -0.286  11.141  19.344  0.00  0.00    +0.000 S 
ATOM     19  C   UNL     1      -1.048  11.627  20.802  0.00  0.00    +0.000 A 
ATOM     20  C   UNL     1      -1.886  12.731  21.042  0.00  0.00    +0.000 A 
ENDBRANCH   5  17
ENDBRANCH   1   8
BRANCH   2  21
ATOM     21  C   UNL     1       5.953   4.709  17.125  0.00  0.00    +0.000 C 
BRANCH  21  22
ATOM     22  C   UNL     1       5.030   3.507  16.812  0.00  0.00    +0.000 C 
BRANCH  22  23
ATOM     23  N   UNL     1       4.088   3.105  17.844  0.00  0.00    +0.000 N 
ATOM     24  C   UNL     1       2.753   3.352  17.706  0.00  0.00    +0.000 C 
ATOM     25  O   UNL     1       2.152   3.799  16.748  0.00  0.00    +0.000 OA
ATOM     26  C   UNL     1       2.127   3.079  18.981  0.00  0.00    +0.000 A 
ATOM     27  C   UNL     1       0.773   3.079  19.285  0.00  0.00    +0.000 A 
ATOM     28  C   UNL     1       0.433   2.861  20.618  0.00  0.00    +0.000 A 
ATOM     29  C   UNL     1       1.429   2.693  21.594  0.00  0.00    +0.000 A 
ATOM     30  C   UNL     1       2.797   2.685  21.247  0.00  0.00    +0.000 A 
ATOM     31  C   UNL     1       3.121   2.851  19.911  0.00  0.00    +0.000 A 
ATOM     32  C   UNL     1       4.403   2.875  19.174  0.00  0.00    +0.000 C 
ATOM     33  O   UNL     1       5.493   2.749  19.694  0.00  0.00    +0.000 OA
ENDBRANCH  22  23
ENDBRANCH  21  22
ENDBRANCH   2  21
TORSDOF 5
ENDMDL
MODEL 5
REMARK VINA RESULT:      -8.8      2.065      3.944
REMARK  Name = 
REMARK  6 active torsions:
REMARK  status: ('A' for Active; 'I' for Inactive)
REMARK    1  A    between atoms: C_1  and  C_2
REMARK    2  A    between atoms: C_7  and  C_8
REMARK    3  A    between atoms: C_11  and  N_12
REMARK    4  A    between atoms: C_13  and  C_15
REMARK    5  A    between atoms: C_15  and  C_16
REMARK    6  A    between atoms: C_16  and  N_17
REMARK                            x       y       z     vdW  Elec       q    Type
REMARK                         _______ _______ _______ _____ _____    ______ ____
ROOT
ATOM      1  N   UNL     1       2.249   5.209  20.838  0.00  0.00    +0.000 N 
ATOM      2  C   UNL     1       1.460   4.111  20.518  0.00  0.00    +0.000 C 
ATOM      3  O   UNL     1       0.338   4.179  20.010  0.00  0.00    +0.000 OA
ATOM      4  H   UNL     1       3.193   5.053  21.168  0.00  0.00    +0.000 HD
ENDROOT
BRANCH   1   8
ATOM      5  C   UNL     1       1.113   9.265  20.098  0.00  0.00    +0.000 A 
ATOM      6  C   UNL     1       1.888   8.553  19.185  0.00  0.00    +0.000 A 
ATOM      7  C   UNL     1       2.254   7.231  19.435  0.00  0.00    +0.000 A 
ATOM      8  C   UNL     1       1.864   6.562  20.599  0.00  0.00    +0.000 A 
ATOM      9  C   UNL     1       1.065   7.257  21.511  0.00  0.00    +0.000 A 
ATOM     10  C   UNL     1       0.703   8.600  21.267  0.00  0.00    +0.000 A 
BRANCH   5  17
ATOM     11  C   UNL     1      -0.395  16.615  18.578  0.00  0.00    +0.000 C 
ATOM     12  C   UNL     1      -0.402  15.206  19.094  0.00  0.00    +0.000 A 
ATOM     13  C   UNL     1      -1.342  14.799  20.042  0.00  0.00    +0.000 A 
ATOM     14  C   UNL     1      -1.363  13.483  20.516  0.00  0.00    +0.000 A 
ATOM     15  C   UNL     1      -0.420  12.553  20.046  0.00  0.00    +0.000 A 
ATOM     16  N   UNL     1      -0.321  11.234  20.444  0.00  0.00    +0.000 NA
ATOM     17  C   UNL     1       0.697  10.653  19.845  0.00  0.00    +0.000 A 
ATOM     18  S   UNL     1       1.558  11.657  18.738  0.00  0.00    +0.000 S 
ATOM     19  C   UNL     1       0.524  12.974  19.109  0.00  0.00    +0.000 A 
ATOM     20  C   UNL     1       0.549  14.292  18.616  0.00  0.00    +0.000 A 
ENDBRANCH   5  17
ENDBRANCH   1   8
BRANCH   2  21
ATOM     21  C   UNL     1       2.044   2.735  20.804  0.00  0.00    +0.000 C 
BRANCH  21  22
ATOM     22  C   UNL     1       2.470   2.129  19.446  0.00  0.00    +0.000 C 
BRANCH  22  23
ATOM     23  N   UNL     1       3.408   2.894  18.640  0.00  0.00    +0.000 N 
ATOM     24  C   UNL     1       4.662   3.172  19.103  0.00  0.00    +0.000 C 
ATOM     25  O   UNL     1       5.210   2.777  20.114  0.00  0.00    +0.000 OA
ATOM     26  C   UNL     1       5.248   4.148  18.210  0.00  0.00    +0.000 A 
ATOM     27  C   UNL     1       6.546   4.640  18.216  0.00  0.00    +0.000 A 
ATOM     28  C   UNL     1       6.837   5.640  17.292  0.00  0.00    +0.000 A 
ATOM     29  C   UNL     1       5.842   6.137  16.435  0.00  0.00    +0.000 A 
ATOM     30  C   UNL     1       4.536   5.604  16.446  0.00  0.00    +0.000 A 
ATOM     31  C   UNL     1       4.270   4.575  17.334  0.00  0.00    +0.000 A 
ATOM     32  C   UNL     1       3.066   3.765  17.617  0.00  0.00    +0.000 C 
ATOM     33  O   UNL     1       2.000   3.906  17.054  0.00  0.00    +0.000 OA
ENDBRANCH  22  23
ENDBRANCH  21  22
ENDBRANCH   2  21
TORSDOF 5
ENDMDL
MODEL 6
REMARK VINA RESULT:      -8.8      0.888      2.112
REMARK  Name = 
REMARK  6 active torsions:
REMARK  status: ('A' for Active; 'I' for Inactive)
REMARK    1  A    between atoms: C_1  and  C_2
REMARK    2  A    between atoms: C_7  and  C_8
REMARK    3  A    between atoms: C_11  and  N_12
REMARK    4  A    between atoms: C_13  and  C_15
REMARK    5  A    between atoms: C_15  and  C_16
REMARK    6  A    between atoms: C_16  and  N_17
REMARK                            x       y       z     vdW  Elec       q    Type
REMARK                         _______ _______ _______ _____ _____    ______ ____
ROOT
ATOM      1  N   UNL     1       3.321   6.620  17.124  0.00  0.00    +0.000 N 
ATOM      2  C   UNL     1       4.701   6.568  16.972  0.00  0.00    +0.000 C 
ATOM      3  O   UNL     1       5.495   7.337  17.518  0.00  0.00    +0.000 OA
ATOM      4  H   UNL     1       2.756   5.891  16.707  0.00  0.00    +0.000 HD
ENDROOT
BRANCH   1   8
ATOM      5  C   UNL     1       1.298   9.435  19.627  0.00  0.00    +0.000 A 
ATOM      6  C   UNL     1       1.714   8.199  20.118  0.00  0.00    +0.000 A 
ATOM      7  C   UNL     1       2.372   7.287  19.294  0.00  0.00    +0.000 A 
ATOM      8  C   UNL     1       2.647   7.566  17.952  0.00  0.00    +0.000 A 
ATOM      9  C   UNL     1       2.258   8.813  17.454  0.00  0.00    +0.000 A 
ATOM     10  C   UNL     1       1.579   9.734  18.283  0.00  0.00    +0.000 A 
BRANCH   5  17
ATOM     11  C   UNL     1      -1.647  14.962  24.031  0.00  0.00    +0.000 C 
ATOM     12  C   UNL     1      -1.324  13.668  23.344  0.00  0.00    +0.000 A 
ATOM     13  C   UNL     1      -1.977  12.488  23.703  0.00  0.00    +0.000 A 
ATOM     14  C   UNL     1      -1.691  11.280  23.057  0.00  0.00    +0.000 A 
ATOM     15  C   UNL     1      -0.724  11.243  22.037  0.00  0.00    +0.000 A 
ATOM     16  N   UNL     1      -0.336  10.118  21.335  0.00  0.00    +0.000 NA
ATOM     17  C   UNL     1       0.621  10.421  20.484  0.00  0.00    +0.000 A 
ATOM     18  S   UNL     1       1.071  12.086  20.458  0.00  0.00    +0.000 S 
ATOM     19  C   UNL     1      -0.067  12.425  21.696  0.00  0.00    +0.000 A 
ATOM     20  C   UNL     1      -0.353  13.648  22.331  0.00  0.00    +0.000 A 
ENDBRANCH   5  17
ENDBRANCH   1   8
BRANCH   2  21
ATOM     21  C   UNL     1       5.256   5.467  16.081  0.00  0.00    +0.000 C 
BRANCH  21  22
ATOM     22  C   UNL     1       5.652   4.289  17.003  0.00  0.00    +0.000 C 
BRANCH  22  23
ATOM     23  N   UNL     1       4.662   3.839  17.969  0.00  0.00    +0.000 N 
ATOM     24  C   UNL     1       3.407   3.480  17.568  0.00  0.00    +0.000 C 
ATOM     25  O   UNL     1       2.967   3.369  16.442  0.00  0.00    +0.000 OA
ATOM     26  C   UNL     1       2.597   3.336  18.758  0.00  0.00    +0.000 A 
ATOM     27  C   UNL     1       1.291   2.875  18.851  0.00  0.00    +0.000 A 
ATOM     28  C   UNL     1       0.706   2.910  20.114  0.00  0.00    +0.000 A 
ATOM     29  C   UNL     1       1.406   3.429  21.215  0.00  0.00    +0.000 A 
ATOM     30  C   UNL     1       2.738   3.877  21.087  0.00  0.00    +0.000 A 
ATOM     31  C   UNL     1       3.328   3.790  19.838  0.00  0.00    +0.000 A 
ATOM     32  C   UNL     1       4.673   4.126  19.325  0.00  0.00    +0.000 C 
ATOM     33  O   UNL     1       5.565   4.596  20.003  0.00  0.00    +0.000 OA
ENDBRANCH  22  23
ENDBRANCH  21  22
ENDBRANCH   2  21
TORSDOF 5
ENDMDL
MODEL 7
REMARK VINA RESULT:      -8.8      1.072      1.869
REMARK  Name = 
REMARK  6 active torsions:
REMARK  status: ('A' for Active; 'I' for Inactive)
REMARK    1  A    between atoms: C_1  and  C_2
REMARK    2  A    between atoms: C_7  and  C_8
REMARK    3  A    between atoms: C_11  and  N_12
REMARK    4  A    between atoms: C_13  and  C_15
REMARK    5  A    between atoms: C_15  and  C_16
REMARK    6  A    between atoms: C_16  and  N_17
REMARK                            x       y       z     vdW  Elec       q    Type
REMARK                         _______ _______ _______ _____ _____    ______ ____
ROOT
ATOM      1  N   UNL     1       3.922   6.614  17.092  0.00  0.00    +0.000 N 
ATOM      2  C   UNL     1       5.308   6.728  17.082  0.00  0.00    +0.000 C 
ATOM      3  O   UNL     1       5.946   7.553  17.740  0.00  0.00    +0.000 OA
ATOM      4  H   UNL     1       3.492   5.849  16.588  0.00  0.00    +0.000 HD
ENDROOT
BRANCH   1   8
ATOM      5  C   UNL     1       1.346   9.080  19.450  0.00  0.00    +0.000 A 
ATOM      6  C   UNL     1       1.722   9.452  18.161  0.00  0.00    +0.000 A 
ATOM      7  C   UNL     1       2.564   8.643  17.399  0.00  0.00    +0.000 A 
ATOM      8  C   UNL     1       3.062   7.430  17.885  0.00  0.00    +0.000 A 
ATOM      9  C   UNL     1       2.670   7.032  19.167  0.00  0.00    +0.000 A 
ATOM     10  C   UNL     1       1.829   7.857  19.945  0.00  0.00    +0.000 A 
BRANCH   5  17
ATOM     11  C   UNL     1      -3.350  12.878  24.156  0.00  0.00    +0.000 C 
ATOM     12  C   UNL     1      -2.582  12.357  22.976  0.00  0.00    +0.000 A 
ATOM     13  C   UNL     1      -2.838  12.840  21.691  0.00  0.00    +0.000 A 
ATOM     14  C   UNL     1      -2.116  12.370  20.589  0.00  0.00    +0.000 A 
ATOM     15  C   UNL     1      -1.126  11.388  20.766  0.00  0.00    +0.000 A 
ATOM     16  N   UNL     1      -0.357  10.828  19.763  0.00  0.00    +0.000 NA
ATOM     17  C   UNL     1       0.442   9.909  20.262  0.00  0.00    +0.000 A 
ATOM     18  S   UNL     1       0.336   9.704  21.972  0.00  0.00    +0.000 S 
ATOM     19  C   UNL     1      -0.889  10.903  22.052  0.00  0.00    +0.000 A 
ATOM     20  C   UNL     1      -1.600  11.375  23.170  0.00  0.00    +0.000 A 
ENDBRANCH   5  17
ENDBRANCH   1   8
BRANCH   2  21
ATOM     21  C   UNL     1       6.074   5.749  16.206  0.00  0.00    +0.000 C 
BRANCH  21  22
ATOM     22  C   UNL     1       6.403   4.516  17.080  0.00  0.00    +0.000 C 
BRANCH  22  23
ATOM     23  N   UNL     1       5.309   3.925  17.837  0.00  0.00    +0.000 N 
ATOM     24  C   UNL     1       4.169   3.514  17.210  0.00  0.00    +0.000 C 
ATOM     25  O   UNL     1       3.926   3.461  16.020  0.00  0.00    +0.000 OA
ATOM     26  C   UNL     1       3.191   3.224  18.235  0.00  0.00    +0.000 A 
ATOM     27  C   UNL     1       1.928   2.669  18.079  0.00  0.00    +0.000 A 
ATOM     28  C   UNL     1       1.146   2.567  19.226  0.00  0.00    +0.000 A 
ATOM     29  C   UNL     1       1.615   3.045  20.460  0.00  0.00    +0.000 A 
ATOM     30  C   UNL     1       2.910   3.592  20.586  0.00  0.00    +0.000 A 
ATOM     31  C   UNL     1       3.699   3.642  19.449  0.00  0.00    +0.000 A 
ATOM     32  C   UNL     1       5.078   4.108  19.191  0.00  0.00    +0.000 C 
ATOM     33  O   UNL     1       5.808   4.583  20.037  0.00  0.00    +0.000 OA
ENDBRANCH  22  23
ENDBRANCH  21  22
ENDBRANCH   2  21
TORSDOF 5
ENDMDL
MODEL 8
REMARK VINA RESULT:      -8.6      2.031      4.354
REMARK  Name = 
REMARK  6 active torsions:
REMARK  status: ('A' for Active; 'I' for Inactive)
REMARK    1  A    between atoms: C_1  and  C_2
REMARK    2  A    between atoms: C_7  and  C_8
REMARK    3  A    between atoms: C_11  and  N_12
REMARK    4  A    between atoms: C_13  and  C_15
REMARK    5  A    between atoms: C_15  and  C_16
REMARK    6  A    between atoms: C_16  and  N_17
REMARK                            x       y       z     vdW  Elec       q    Type
REMARK                         _______ _______ _______ _____ _____    ______ ____
ROOT
ATOM      1  N   UNL     1       2.267   5.376  20.806  0.00  0.00    +0.000 N 
ATOM      2  C   UNL     1       1.492   4.261  20.511  0.00  0.00    +0.000 C 
ATOM      3  O   UNL     1       0.357   4.305  20.032  0.00  0.00    +0.000 OA
ATOM      4  H   UNL     1       3.222   5.240  21.113  0.00  0.00    +0.000 HD
ENDROOT
BRANCH   1   8
ATOM      5  C   UNL     1       1.000   9.403  20.125  0.00  0.00    +0.000 A 
ATOM      6  C   UNL     1       0.652   8.722  21.290  0.00  0.00    +0.000 A 
ATOM      7  C   UNL     1       1.069   7.409  21.503  0.00  0.00    +0.000 A 
ATOM      8  C   UNL     1       1.850   6.720  20.571  0.00  0.00    +0.000 A 
ATOM      9  C   UNL     1       2.228   7.401  19.409  0.00  0.00    +0.000 A 
ATOM     10  C   UNL     1       1.796   8.726  19.185  0.00  0.00    +0.000 A 
BRANCH   5  17
ATOM     11  C   UNL     1      -0.477  16.779  18.701  0.00  0.00    +0.000 C 
ATOM     12  C   UNL     1      -0.490  15.363  19.197  0.00  0.00    +0.000 A 
ATOM     13  C   UNL     1      -1.436  14.946  20.135  0.00  0.00    +0.000 A 
ATOM     14  C   UNL     1      -1.464  13.623  20.591  0.00  0.00    +0.000 A 
ATOM     15  C   UNL     1      -0.522  12.697  20.111  0.00  0.00    +0.000 A 
ATOM     16  N   UNL     1      -0.429  11.372  20.492  0.00  0.00    +0.000 NA
ATOM     17  C   UNL     1       0.589  10.796  19.889  0.00  0.00    +0.000 A 
ATOM     18  S   UNL     1       1.459  11.813  18.801  0.00  0.00    +0.000 S 
ATOM     19  C   UNL     1       0.427  13.128  19.185  0.00  0.00    +0.000 A 
ATOM     20  C   UNL     1       0.460  14.452  18.710  0.00  0.00    +0.000 A 
ENDBRANCH   5  17
ENDBRANCH   1   8
BRANCH   2  21
ATOM     21  C   UNL     1       2.110   2.899  20.789  0.00  0.00    +0.000 C 
BRANCH  21  22
ATOM     22  C   UNL     1       2.656   2.363  19.444  0.00  0.00    +0.000 C 
BRANCH  22  23
ATOM     23  N   UNL     1       3.534   3.239  18.685  0.00  0.00    +0.000 N 
ATOM     24  C   UNL     1       3.320   3.462  17.355  0.00  0.00    +0.000 C 
ATOM     25  O   UNL     1       2.390   3.103  16.660  0.00  0.00    +0.000 OA
ATOM     26  C   UNL     1       4.483   4.147  16.837  0.00  0.00    +0.000 A 
ATOM     27  C   UNL     1       4.667   4.677  15.568  0.00  0.00    +0.000 A 
ATOM     28  C   UNL     1       5.920   5.220  15.295  0.00  0.00    +0.000 A 
ATOM     29  C   UNL     1       6.942   5.185  16.256  0.00  0.00    +0.000 A 
ATOM     30  C   UNL     1       6.716   4.650  17.543  0.00  0.00    +0.000 A 
ATOM     31  C   UNL     1       5.452   4.160  17.821  0.00  0.00    +0.000 A 
ATOM     32  C   UNL     1       4.839   3.561  19.025  0.00  0.00    +0.000 C 
ATOM     33  O   UNL     1       5.426   3.377  20.072  0.00  0.00    +0.000 OA
ENDBRANCH  22  23
ENDBRANCH  21  22
ENDBRANCH   2  21
TORSDOF 5
ENDMDL
MODEL 9
REMARK VINA RESULT:      -8.6      2.188      4.116
REMARK  Name = 
REMARK  6 active torsions:
REMARK  status: ('A' for Active; 'I' for Inactive)
REMARK    1  A    between atoms: C_1  and  C_2
REMARK    2  A    between atoms: C_7  and  C_8
REMARK    3  A    between atoms: C_11  and  N_12
REMARK    4  A    between atoms: C_13  and  C_15
REMARK    5  A    between atoms: C_15  and  C_16
REMARK    6  A    between atoms: C_16  and  N_17
REMARK                            x       y       z     vdW  Elec       q    Type
REMARK                         _______ _______ _______ _____ _____    ______ ____
ROOT
ATOM      1  N   UNL     1       2.946   5.653  18.965  0.00  0.00    +0.000 N 
ATOM      2  C   UNL     1       2.410   4.632  18.190  0.00  0.00    +0.000 C 
ATOM      3  O   UNL     1       1.368   4.722  17.537  0.00  0.00    +0.000 OA
ATOM      4  H   UNL     1       3.853   5.517  19.393  0.00  0.00    +0.000 HD
ENDROOT
BRANCH   1   8
ATOM      5  C   UNL     1       1.185   9.529  19.361  0.00  0.00    +0.000 A 
ATOM      6  C   UNL     1       1.210   8.634  20.428  0.00  0.00    +0.000 A 
ATOM      7  C   UNL     1       1.786   7.372  20.290  0.00  0.00    +0.000 A 
ATOM      8  C   UNL     1       2.362   6.949  19.088  0.00  0.00    +0.000 A 
ATOM      9  C   UNL     1       2.366   7.848  18.017  0.00  0.00    +0.000 A 
ATOM     10  C   UNL     1       1.772   9.122  18.150  0.00  0.00    +0.000 A 
BRANCH   5  17
ATOM     11  C   UNL     1      -1.196  16.780  19.981  0.00  0.00    +0.000 C 
ATOM     12  C   UNL     1      -1.053  15.287  20.030  0.00  0.00    +0.000 A 
ATOM     13  C   UNL     1      -2.019  14.500  20.662  0.00  0.00    +0.000 A 
ATOM     14  C   UNL     1      -1.901  13.106  20.698  0.00  0.00    +0.000 A 
ATOM     15  C   UNL     1      -0.790  12.481  20.105  0.00  0.00    +0.000 A 
ATOM     16  N   UNL     1      -0.545  11.122  20.087  0.00  0.00    +0.000 NA
ATOM     17  C   UNL     1       0.602  10.874  19.491  0.00  0.00    +0.000 A 
ATOM     18  S   UNL     1       1.421  12.266  18.884  0.00  0.00    +0.000 S 
ATOM     19  C   UNL     1       0.175  13.278  19.490  0.00  0.00    +0.000 A 
ATOM     20  C   UNL     1       0.063  14.679  19.436  0.00  0.00    +0.000 A 
ENDBRANCH   5  17
ENDBRANCH   1   8
BRANCH   2  21
ATOM     21  C   UNL     1       3.187   3.324  18.139  0.00  0.00    +0.000 C 
BRANCH  21  22
ATOM     22  C   UNL     1       4.201   3.441  16.977  0.00  0.00    +0.000 C 
BRANCH  22  23
ATOM     23  N   UNL     1       5.312   4.364  17.152  0.00  0.00    +0.000 N 
ATOM     24  C   UNL     1       5.954   4.463  18.353  0.00  0.00    +0.000 C 
ATOM     25  O   UNL     1       5.812   3.791  19.355  0.00  0.00    +0.000 OA
ATOM     26  C   UNL     1       6.815   5.624  18.289  0.00  0.00    +0.000 A 
ATOM     27  C   UNL     1       7.743   6.052  19.229  0.00  0.00    +0.000 A 
ATOM     28  C   UNL     1       8.391   7.254  18.961  0.00  0.00    +0.000 A 
ATOM     29  C   UNL     1       8.078   7.998  17.812  0.00  0.00    +0.000 A 
ATOM     30  C   UNL     1       7.139   7.526  16.870  0.00  0.00    +0.000 A 
ATOM     31  C   UNL     1       6.537   6.305  17.120  0.00  0.00    +0.000 A 
ATOM     32  C   UNL     1       5.551   5.490  16.380  0.00  0.00    +0.000 C 
ATOM     33  O   UNL     1       5.053   5.814  15.321  0.00  0.00    +0.000 OA
ENDBRANCH  22  23
ENDBRANCH  21  22
ENDBRANCH   2  21
TORSDOF 5
ENDMDL
