MODEL 1
REMARK VINA RESULT:      -8.1      0.000      0.000
REMARK  Name = 
REMARK  5 active torsions:
REMARK  status: ('A' for Active; 'I' for Inactive)
REMARK    1  A    between atoms: C_1  and  O_2
REMARK    2  A    between atoms: O_2  and  C_3
REMARK    3  A    between atoms: C_9  and  N_10
REMARK    4  A    between atoms: N_10  and  S_11
REMARK    5  A    between atoms: S_11  and  C_14
REMARK                            x       y       z     vdW  Elec       q    Type
REMARK                         _______ _______ _______ _____ _____    ______ ____
ROOT
ATOM      1  N   UNL     1       5.420   3.955  17.928  0.00  0.00    +0.000 N 
ATOM      2  H   UNL     1       6.083   3.581  18.604  0.00  0.00    +0.000 HD
ENDROOT
BRANCH   1   9
ATOM      3  C   UNL     1       7.102   5.082  16.495  0.00  0.00    +0.000 A 
ATOM      4  N   UNL     1       7.622   5.363  15.276  0.00  0.00    +0.000 NA
ATOM      5  C   UNL     1       6.969   4.796  14.241  0.00  0.00    +0.000 A 
ATOM      6 CL   UNL     1       7.579   5.194  12.694  0.00  0.00    +0.000 Cl
ATOM      7  C   UNL     1       5.851   3.989  14.406  0.00  0.00    +0.000 A 
ATOM      8  N   UNL     1       5.324   3.702  15.628  0.00  0.00    +0.000 NA
ATOM      9  C   UNL     1       5.985   4.253  16.669  0.00  0.00    +0.000 A 
BRANCH   3  11
ATOM     10  C   UNL     1       7.516   7.126  17.495  0.00  0.00    +0.000 C 
ATOM     11  O   UNL     1       7.639   5.708  17.602  0.00  0.00    +0.000 OA
ENDBRANCH   3  11
ENDBRANCH   1   9
BRANCH   1  12
ATOM     12  S   UNL     1       4.462   5.140  18.614  0.00  0.00    +0.000 S 
ATOM     13  O   UNL     1       5.226   5.734  19.696  0.00  0.00    +0.000 OA
ATOM     14  O   UNL     1       3.900   5.977  17.573  0.00  0.00    +0.000 OA
BRANCH  12  15
ATOM     15  C   UNL     1       3.124   4.255  19.369  0.00  0.00    +0.000 A 
ATOM     16  C   UNL     1       2.969   4.343  20.765  0.00  0.00    +0.000 A 
ATOM     17  C   UNL     1       1.944   3.647  21.406  0.00  0.00    +0.000 A 
ATOM     18  C   UNL     1       1.076   2.857  20.656  0.00  0.00    +0.000 A 
ATOM     19  C   UNL     1       1.243   2.769  19.276  0.00  0.00    +0.000 A 
ATOM     20  F   UNL     1       0.385   1.999  18.588  0.00  0.00    +0.000 F 
ATOM     21  C   UNL     1       2.262   3.459  18.613  0.00  0.00    +0.000 A 
ATOM     22 CL   UNL     1       2.359   3.285  16.897  0.00  0.00    +0.000 Cl
ENDBRANCH  12  15
ENDBRANCH   1  12
TORSDOF 4
ENDMDL
MODEL 2
REMARK VINA RESULT:      -8.0      1.342      1.609
REMARK  Name = 
REMARK  5 active torsions:
REMARK  status: ('A' for Active; 'I' for Inactive)
REMARK    1  A    between atoms: C_1  and  O_2
REMARK    2  A    between atoms: O_2  and  C_3
REMARK    3  A    between atoms: C_9  and  N_10
REMARK    4  A    between atoms: N_10  and  S_11
REMARK    5  A    between atoms: S_11  and  C_14
REMARK                            x       y       z     vdW  Elec       q    Type
REMARK                         _______ _______ _______ _____ _____    ______ ____
ROOT
ATOM      1  N   UNL     1       5.830   3.975  17.732  0.00  0.00    +0.000 N 
ATOM      2  H   UNL     1       6.557   3.736  18.402  0.00  0.00    +0.000 HD
ENDROOT
BRANCH   1   9
ATOM      3  C   UNL     1       7.320   5.243  16.207  0.00  0.00    +0.000 A 
ATOM      4  N   UNL     1       7.763   5.545  14.963  0.00  0.00    +0.000 NA
ATOM      5  C   UNL     1       7.145   4.875  13.968  0.00  0.00    +0.000 A 
ATOM      6 CL   UNL     1       7.651   5.295  12.390  0.00  0.00    +0.000 Cl
ATOM      7  C   UNL     1       6.134   3.951  14.196  0.00  0.00    +0.000 A 
ATOM      8  N   UNL     1       5.686   3.642  15.444  0.00  0.00    +0.000 NA
ATOM      9  C   UNL     1       6.313   4.297  16.445  0.00  0.00    +0.000 A 
BRANCH   3  11
ATOM     10  C   UNL     1       7.420   7.329  17.202  0.00  0.00    +0.000 C 
ATOM     11  O   UNL     1       7.818   5.960  17.277  0.00  0.00    +0.000 OA
ENDBRANCH   3  11
ENDBRANCH   1   9
BRANCH   1  12
ATOM     12  S   UNL     1       4.719   5.031  18.397  0.00  0.00    +0.000 S 
ATOM     13  O   UNL     1       5.261   5.477  19.667  0.00  0.00    +0.000 OA
ATOM     14  O   UNL     1       4.309   5.999  17.399  0.00  0.00    +0.000 OA
BRANCH  12  15
ATOM     15  C   UNL     1       3.311   4.023  18.775  0.00  0.00    +0.000 A 
ATOM     16  C   UNL     1       3.289   2.699  18.299  0.00  0.00    +0.000 A 
ATOM     17  C   UNL     1       2.192   1.876  18.553  0.00  0.00    +0.000 A 
ATOM     18  C   UNL     1       1.112   2.375  19.276  0.00  0.00    +0.000 A 
ATOM     19  C   UNL     1       1.138   3.690  19.736  0.00  0.00    +0.000 A 
ATOM     20  F   UNL     1       0.078   4.132  20.431  0.00  0.00    +0.000 F 
ATOM     21  C   UNL     1       2.227   4.531  19.495  0.00  0.00    +0.000 A 
ATOM     22 CL   UNL     1       2.152   6.136  20.128  0.00  0.00    +0.000 Cl
ENDBRANCH  12  15
ENDBRANCH   1  12
TORSDOF 4
ENDMDL
MODEL 3
REMARK VINA RESULT:      -7.3      1.347      1.593
REMARK  Name = 
REMARK  5 active torsions:
REMARK  status: ('A' for Active; 'I' for Inactive)
REMARK    1  A    between atoms: C_1  and  O_2
REMARK    2  A    between atoms: O_2  and  C_3
REMARK    3  A    between atoms: C_9  and  N_10
REMARK    4  A    between atoms: N_10  and  S_11
REMARK    5  A    between atoms: S_11  and  C_14
REMARK                            x       y       z     vdW  Elec       q    Type
REMARK                         _______ _______ _______ _____ _____    ______ ____
ROOT
ATOM      1  N   UNL     1       5.768   4.095  17.859  0.00  0.00    +0.000 N 
ATOM      2  H   UNL     1       6.491   3.934  18.557  0.00  0.00    +0.000 HD
ENDROOT
BRANCH   1   9
ATOM      3  C   UNL     1       7.296   5.284  16.308  0.00  0.00    +0.000 A 
ATOM      4  N   UNL     1       7.751   5.541  15.058  0.00  0.00    +0.000 NA
ATOM      5  C   UNL     1       7.118   4.862  14.079  0.00  0.00    +0.000 A 
ATOM      6 CL   UNL     1       7.641   5.226  12.492  0.00  0.00    +0.000 Cl
ATOM      7  C   UNL     1       6.082   3.971  14.326  0.00  0.00    +0.000 A 
ATOM      8  N   UNL     1       5.622   3.707  15.581  0.00  0.00    +0.000 NA
ATOM      9  C   UNL     1       6.264   4.371  16.566  0.00  0.00    +0.000 A 
BRANCH   3  11
ATOM     10  C   UNL     1       7.411   7.383  17.273  0.00  0.00    +0.000 C 
ATOM     11  O   UNL     1       7.810   6.015  17.361  0.00  0.00    +0.000 OA
ENDBRANCH   3  11
ENDBRANCH   1   9
BRANCH   1  12
ATOM     12  S   UNL     1       4.588   5.125  18.440  0.00  0.00    +0.000 S 
ATOM     13  O   UNL     1       4.961   5.483  19.796  0.00  0.00    +0.000 OA
ATOM     14  O   UNL     1       4.318   6.159  17.461  0.00  0.00    +0.000 OA
BRANCH  12  15
ATOM     15  C   UNL     1       3.135   4.118  18.567  0.00  0.00    +0.000 A 
ATOM     16  C   UNL     1       1.988   4.505  17.849  0.00  0.00    +0.000 A 
ATOM     17  C   UNL     1       0.815   3.755  17.935  0.00  0.00    +0.000 A 
ATOM     18  C   UNL     1       0.781   2.623  18.743  0.00  0.00    +0.000 A 
ATOM     19  C   UNL     1       1.918   2.252  19.459  0.00  0.00    +0.000 A 
ATOM     20  F   UNL     1       1.845   1.153  20.226  0.00  0.00    +0.000 F 
ATOM     21  C   UNL     1       3.104   2.987  19.386  0.00  0.00    +0.000 A 
ATOM     22 CL   UNL     1       4.452   2.421  20.306  0.00  0.00    +0.000 Cl
ENDBRANCH  12  15
ENDBRANCH   1  12
TORSDOF 4
ENDMDL
MODEL 4
REMARK VINA RESULT:      -7.1      2.096      2.401
REMARK  Name = 
REMARK  5 active torsions:
REMARK  status: ('A' for Active; 'I' for Inactive)
REMARK    1  A    between atoms: C_1  and  O_2
REMARK    2  A    between atoms: O_2  and  C_3
REMARK    3  A    between atoms: C_9  and  N_10
REMARK    4  A    between atoms: N_10  and  S_11
REMARK    5  A    between atoms: S_11  and  C_14
REMARK                            x       y       z     vdW  Elec       q    Type
REMARK                         _______ _______ _______ _____ _____    ______ ____
ROOT
ATOM      1  N   UNL     1       5.446   3.741  17.753  0.00  0.00    +0.000 N 
ATOM      2  H   UNL     1       5.596   4.340  18.563  0.00  0.00    +0.000 HD
ENDROOT
BRANCH   1   9
ATOM      3  C   UNL     1       6.977   5.274  16.544  0.00  0.00    +0.000 A 
ATOM      4  N   UNL     1       7.586   5.685  15.406  0.00  0.00    +0.000 NA
ATOM      5  C   UNL     1       7.267   4.970  14.307  0.00  0.00    +0.000 A 
ATOM      6 CL   UNL     1       7.981   5.520  12.854  0.00  0.00    +0.000 Cl
ATOM      7  C   UNL     1       6.385   3.898  14.334  0.00  0.00    +0.000 A 
ATOM      8  N   UNL     1       5.770   3.480  15.475  0.00  0.00    +0.000 NA
ATOM      9  C   UNL     1       6.099   4.181  16.581  0.00  0.00    +0.000 A 
BRANCH   3  11
ATOM     10  C   UNL     1       7.410   7.385  17.384  0.00  0.00    +0.000 C 
ATOM     11  O   UNL     1       7.158   6.015  17.695  0.00  0.00    +0.000 OA
ENDBRANCH   3  11
ENDBRANCH   1   9
BRANCH   1  12
ATOM     12  S   UNL     1       3.835   3.327  17.598  0.00  0.00    +0.000 S 
ATOM     13  O   UNL     1       3.370   3.883  16.340  0.00  0.00    +0.000 OA
ATOM     14  O   UNL     1       3.665   1.915  17.879  0.00  0.00    +0.000 OA
BRANCH  12  15
ATOM     15  C   UNL     1       3.012   4.230  18.882  0.00  0.00    +0.000 A 
ATOM     16  C   UNL     1       2.358   3.505  19.895  0.00  0.00    +0.000 A 
ATOM     17  C   UNL     1       1.679   4.173  20.915  0.00  0.00    +0.000 A 
ATOM     18  C   UNL     1       1.646   5.564  20.922  0.00  0.00    +0.000 A 
ATOM     19  C   UNL     1       2.289   6.274  19.910  0.00  0.00    +0.000 A 
ATOM     20  F   UNL     1       2.235   7.614  19.953  0.00  0.00    +0.000 F 
ATOM     21  C   UNL     1       2.977   5.626  18.880  0.00  0.00    +0.000 A 
ATOM     22 CL   UNL     1       3.748   6.613  17.691  0.00  0.00    +0.000 Cl
ENDBRANCH  12  15
ENDBRANCH   1  12
TORSDOF 4
ENDMDL
MODEL 5
REMARK VINA RESULT:      -7.1      1.589      1.814
REMARK  Name = 
REMARK  5 active torsions:
REMARK  status: ('A' for Active; 'I' for Inactive)
REMARK    1  A    between atoms: C_1  and  O_2
REMARK    2  A    between atoms: O_2  and  C_3
REMARK    3  A    between atoms: C_9  and  N_10
REMARK    4  A    between atoms: N_10  and  S_11
REMARK    5  A    between atoms: S_11  and  C_14
REMARK                            x       y       z     vdW  Elec       q    Type
REMARK                         _______ _______ _______ _____ _____    ______ ____
ROOT
ATOM      1  N   UNL     1       5.044   3.701  17.327  0.00  0.00    +0.000 N 
ATOM      2  H   UNL     1       5.505   3.804  18.228  0.00  0.00    +0.000 HD
ENDROOT
BRANCH   1   9
ATOM      3  C   UNL     1       6.880   5.041  16.333  0.00  0.00    +0.000 A 
ATOM      4  N   UNL     1       7.608   5.444  15.264  0.00  0.00    +0.000 NA
ATOM      5  C   UNL     1       7.222   4.910  14.087  0.00  0.00    +0.000 A 
ATOM      6 CL   UNL     1       8.094   5.460  12.723  0.00  0.00    +0.000 Cl
ATOM      7  C   UNL     1       6.163   4.019  13.974  0.00  0.00    +0.000 A 
ATOM      8  N   UNL     1       5.429   3.609  15.045  0.00  0.00    +0.000 NA
ATOM      9  C   UNL     1       5.822   4.127  16.228  0.00  0.00    +0.000 A 
BRANCH   3  11
ATOM     10  C   UNL     1       7.137   7.044  17.461  0.00  0.00    +0.000 C 
ATOM     11  O   UNL     1       7.133   5.621  17.561  0.00  0.00    +0.000 OA
ENDBRANCH   3  11
ENDBRANCH   1   9
BRANCH   1  12
ATOM     12  S   UNL     1       3.470   4.259  17.386  0.00  0.00    +0.000 S 
ATOM     13  O   UNL     1       3.512   5.687  17.130  0.00  0.00    +0.000 OA
ATOM     14  O   UNL     1       2.618   3.399  16.589  0.00  0.00    +0.000 OA
BRANCH  12  15
ATOM     15  C   UNL     1       2.988   4.065  19.081  0.00  0.00    +0.000 A 
ATOM     16  C   UNL     1       2.385   5.157  19.733  0.00  0.00    +0.000 A 
ATOM     17  C   UNL     1       2.008   5.058  21.072  0.00  0.00    +0.000 A 
ATOM     18  C   UNL     1       2.239   3.873  21.766  0.00  0.00    +0.000 A 
ATOM     19  C   UNL     1       2.845   2.800  21.115  0.00  0.00    +0.000 A 
ATOM     20  F   UNL     1       3.048   1.675  21.817  0.00  0.00    +0.000 F 
ATOM     21  C   UNL     1       3.228   2.876  19.773  0.00  0.00    +0.000 A 
ATOM     22 CL   UNL     1       3.956   1.476  19.070  0.00  0.00    +0.000 Cl
ENDBRANCH  12  15
ENDBRANCH   1  12
TORSDOF 4
ENDMDL
MODEL 6
REMARK VINA RESULT:      -7.0      0.987      1.137
REMARK  Name = 
REMARK  5 active torsions:
REMARK  status: ('A' for Active; 'I' for Inactive)
REMARK    1  A    between atoms: C_1  and  O_2
REMARK    2  A    between atoms: O_2  and  C_3
REMARK    3  A    between atoms: C_9  and  N_10
REMARK    4  A    between atoms: N_10  and  S_11
REMARK    5  A    between atoms: S_11  and  C_14
REMARK                            x       y       z     vdW  Elec       q    Type
REMARK                         _______ _______ _______ _____ _____    ______ ____
ROOT
ATOM      1  N   UNL     1       4.315   5.382  17.397  0.00  0.00    +0.000 N 
ATOM      2  H   UNL     1       3.354   5.184  17.127  0.00  0.00    +0.000 HD
ENDROOT
BRANCH   1   9
ATOM      3  C   UNL     1       6.380   6.079  16.212  0.00  0.00    +0.000 A 
ATOM      4  N   UNL     1       7.258   5.956  15.188  0.00  0.00    +0.000 NA
ATOM      5  C   UNL     1       6.945   4.997  14.292  0.00  0.00    +0.000 A 
ATOM      6 CL   UNL     1       8.011   4.875  12.961  0.00  0.00    +0.000 Cl
ATOM      7  C   UNL     1       5.814   4.199  14.405  0.00  0.00    +0.000 A 
ATOM      8  N   UNL     1       4.930   4.317  15.433  0.00  0.00    +0.000 NA
ATOM      9  C   UNL     1       5.247   5.264  16.343  0.00  0.00    +0.000 A 
BRANCH   3  11
ATOM     10  C   UNL     1       7.726   6.887  17.912  0.00  0.00    +0.000 C 
ATOM     11  O   UNL     1       6.561   7.107  17.116  0.00  0.00    +0.000 OA
ENDBRANCH   3  11
ENDBRANCH   1   9
BRANCH   1  12
ATOM     12  S   UNL     1       4.709   4.619  18.829  0.00  0.00    +0.000 S 
ATOM     13  O   UNL     1       5.504   3.453  18.488  0.00  0.00    +0.000 OA
ATOM     14  O   UNL     1       5.213   5.592  19.778  0.00  0.00    +0.000 OA
BRANCH  12  15
ATOM     15  C   UNL     1       3.166   4.012  19.455  0.00  0.00    +0.000 A 
ATOM     16  C   UNL     1       2.768   4.405  20.747  0.00  0.00    +0.000 A 
ATOM     17  C   UNL     1       1.572   3.935  21.289  0.00  0.00    +0.000 A 
ATOM     18  C   UNL     1       0.775   3.067  20.549  0.00  0.00    +0.000 A 
ATOM     19  C   UNL     1       1.182   2.675  19.275  0.00  0.00    +0.000 A 
ATOM     20  F   UNL     1       0.385   1.839  18.592  0.00  0.00    +0.000 F 
ATOM     21  C   UNL     1       2.374   3.135  18.710  0.00  0.00    +0.000 A 
ATOM     22 CL   UNL     1       2.765   2.593  17.118  0.00  0.00    +0.000 Cl
ENDBRANCH  12  15
ENDBRANCH   1  12
TORSDOF 4
ENDMDL
MODEL 7
REMARK VINA RESULT:      -6.8      1.552      1.753
REMARK  Name = 
REMARK  5 active torsions:
REMARK  status: ('A' for Active; 'I' for Inactive)
REMARK    1  A    between atoms: C_1  and  O_2
REMARK    2  A    between atoms: O_2  and  C_3
REMARK    3  A    between atoms: C_9  and  N_10
REMARK    4  A    between atoms: N_10  and  S_11
REMARK    5  A    between atoms: S_11  and  C_14
REMARK                            x       y       z     vdW  Elec       q    Type
REMARK                         _______ _______ _______ _____ _____    ______ ____
ROOT
ATOM      1  N   UNL     1       5.453   3.407  16.976  0.00  0.00    +0.000 N 
ATOM      2  H   UNL     1       6.007   3.423  17.830  0.00  0.00    +0.000 HD
ENDROOT
BRANCH   1   9
ATOM      3  C   UNL     1       7.148   4.890  15.936  0.00  0.00    +0.000 A 
ATOM      4  N   UNL     1       7.758   5.409  14.844  0.00  0.00    +0.000 NA
ATOM      5  C   UNL     1       7.275   4.963  13.665  0.00  0.00    +0.000 A 
ATOM      6 CL   UNL     1       7.995   5.658  12.279  0.00  0.00    +0.000 Cl
ATOM      7  C   UNL     1       6.234   4.048  13.574  0.00  0.00    +0.000 A 
ATOM      8  N   UNL     1       5.618   3.523  14.668  0.00  0.00    +0.000 NA
ATOM      9  C   UNL     1       6.109   3.952  15.851  0.00  0.00    +0.000 A 
BRANCH   3  11
ATOM     10  C   UNL     1       7.225   6.768  17.285  0.00  0.00    +0.000 C 
ATOM     11  O   UNL     1       7.502   5.372  17.181  0.00  0.00    +0.000 OA
ENDBRANCH   3  11
ENDBRANCH   1   9
BRANCH   1  12
ATOM     12  S   UNL     1       3.894   3.935  17.258  0.00  0.00    +0.000 S 
ATOM     13  O   UNL     1       3.940   5.384  17.334  0.00  0.00    +0.000 OA
ATOM     14  O   UNL     1       2.983   3.283  16.337  0.00  0.00    +0.000 OA
BRANCH  12  15
ATOM     15  C   UNL     1       3.510   3.356  18.888  0.00  0.00    +0.000 A 
ATOM     16  C   UNL     1       4.516   2.697  19.618  0.00  0.00    +0.000 A 
ATOM     17  C   UNL     1       4.254   2.205  20.896  0.00  0.00    +0.000 A 
ATOM     18  C   UNL     1       2.985   2.364  21.447  0.00  0.00    +0.000 A 
ATOM     19  C   UNL     1       1.992   3.010  20.713  0.00  0.00    +0.000 A 
ATOM     20  F   UNL     1       0.782   3.144  21.280  0.00  0.00    +0.000 F 
ATOM     21  C   UNL     1       2.233   3.512  19.432  0.00  0.00    +0.000 A 
ATOM     22 CL   UNL     1       0.928   4.307  18.628  0.00  0.00    +0.000 Cl
ENDBRANCH  12  15
ENDBRANCH   1  12
TORSDOF 4
ENDMDL
MODEL 8
REMARK VINA RESULT:      -6.8      3.641      6.501
REMARK  Name = 
REMARK  5 active torsions:
REMARK  status: ('A' for Active; 'I' for Inactive)
REMARK    1  A    between atoms: C_1  and  O_2
REMARK    2  A    between atoms: O_2  and  C_3
REMARK    3  A    between atoms: C_9  and  N_10
REMARK    4  A    between atoms: N_10  and  S_11
REMARK    5  A    between atoms: S_11  and  C_14
REMARK                            x       y       z     vdW  Elec       q    Type
REMARK                         _______ _______ _______ _____ _____    ______ ____
ROOT
ATOM      1  N   UNL     1       2.511   3.920  17.986  0.00  0.00    +0.000 N 
ATOM      2  H   UNL     1       2.369   4.153  17.005  0.00  0.00    +0.000 HD
ENDROOT
BRANCH   1   9
ATOM      3  C   UNL     1       1.554   4.829  20.086  0.00  0.00    +0.000 A 
ATOM      4  N   UNL     1       1.303   5.864  20.923  0.00  0.00    +0.000 NA
ATOM      5  C   UNL     1       1.757   7.059  20.491  0.00  0.00    +0.000 A 
ATOM      6 CL   UNL     1       1.390   8.383  21.509  0.00  0.00    +0.000 Cl
ATOM      7  C   UNL     1       2.428   7.221  19.286  0.00  0.00    +0.000 A 
ATOM      8  N   UNL     1       2.684   6.184  18.442  0.00  0.00    +0.000 NA
ATOM      9  C   UNL     1       2.247   4.983  18.877  0.00  0.00    +0.000 A 
BRANCH   3  11
ATOM     10  C   UNL     1       1.641   3.055  21.568  0.00  0.00    +0.000 C 
ATOM     11  O   UNL     1       1.030   3.589  20.394  0.00  0.00    +0.000 OA
ENDBRANCH   3  11
ENDBRANCH   1   9
BRANCH   1  12
ATOM     12  S   UNL     1       3.949   3.099  18.209  0.00  0.00    +0.000 S 
ATOM     13  O   UNL     1       4.374   3.345  19.575  0.00  0.00    +0.000 OA
ATOM     14  O   UNL     1       3.818   1.741  17.720  0.00  0.00    +0.000 OA
BRANCH  12  15
ATOM     15  C   UNL     1       5.111   3.934  17.162  0.00  0.00    +0.000 A 
ATOM     16  C   UNL     1       5.159   3.579  15.802  0.00  0.00    +0.000 A 
ATOM     17  C   UNL     1       6.072   4.194  14.944  0.00  0.00    +0.000 A 
ATOM     18  C   UNL     1       6.943   5.157  15.444  0.00  0.00    +0.000 A 
ATOM     19  C   UNL     1       6.895   5.495  16.795  0.00  0.00    +0.000 A 
ATOM     20  F   UNL     1       7.751   6.430  17.239  0.00  0.00    +0.000 F 
ATOM     21  C   UNL     1       5.988   4.895  17.671  0.00  0.00    +0.000 A 
ATOM     22 CL   UNL     1       6.011   5.407  19.321  0.00  0.00    +0.000 Cl
ENDBRANCH  12  15
ENDBRANCH   1  12
TORSDOF 4
ENDMDL
MODEL 9
REMARK VINA RESULT:      -6.8      1.391      1.470
REMARK  Name = 
REMARK  5 active torsions:
REMARK  status: ('A' for Active; 'I' for Inactive)
REMARK    1  A    between atoms: C_1  and  O_2
REMARK    2  A    between atoms: O_2  and  C_3
REMARK    3  A    between atoms: C_9  and  N_10
REMARK    4  A    between atoms: N_10  and  S_11
REMARK    5  A    between atoms: S_11  and  C_14
REMARK                            x       y       z     vdW  Elec       q    Type
REMARK                         _______ _______ _______ _____ _____    ______ ____
ROOT
ATOM      1  N   UNL     1       4.716   5.754  18.897  0.00  0.00    +0.000 N 
ATOM      2  H   UNL     1       5.298   6.437  19.377  0.00  0.00    +0.000 HD
ENDROOT
BRANCH   1   9
ATOM      3  C   UNL     1       5.980   6.204  16.810  0.00  0.00    +0.000 A 
ATOM      4  N   UNL     1       6.428   5.821  15.590  0.00  0.00    +0.000 NA
ATOM      5  C   UNL     1       6.050   4.581  15.216  0.00  0.00    +0.000 A 
ATOM      6 CL   UNL     1       6.557   4.112  13.652  0.00  0.00    +0.000 Cl
ATOM      7  C   UNL     1       5.263   3.759  16.013  0.00  0.00    +0.000 A 
ATOM      8  N   UNL     1       4.811   4.138  17.240  0.00  0.00    +0.000 NA
ATOM      9  C   UNL     1       5.202   5.372  17.627  0.00  0.00    +0.000 A 
BRANCH   3  11
ATOM     10  C   UNL     1       7.600   7.670  17.569  0.00  0.00    +0.000 C 
ATOM     11  O   UNL     1       6.226   7.497  17.227  0.00  0.00    +0.000 OA
ENDBRANCH   3  11
ENDBRANCH   1   9
BRANCH   1  12
ATOM     12  S   UNL     1       3.101   6.171  18.982  0.00  0.00    +0.000 S 
ATOM     13  O   UNL     1       2.984   7.231  19.967  0.00  0.00    +0.000 OA
ATOM     14  O   UNL     1       2.573   6.358  17.645  0.00  0.00    +0.000 OA
BRANCH  12  15
ATOM     15  C   UNL     1       2.304   4.748  19.676  0.00  0.00    +0.000 A 
ATOM     16  C   UNL     1       2.485   4.482  21.046  0.00  0.00    +0.000 A 
ATOM     17  C   UNL     1       1.896   3.362  21.631  0.00  0.00    +0.000 A 
ATOM     18  C   UNL     1       1.131   2.500  20.850  0.00  0.00    +0.000 A 
ATOM     19  C   UNL     1       0.965   2.766  19.492  0.00  0.00    +0.000 A 
ATOM     20  F   UNL     1       0.219   1.913  18.773  0.00  0.00    +0.000 F 
ATOM     21  C   UNL     1       1.544   3.883  18.885  0.00  0.00    +0.000 A 
ATOM     22 CL   UNL     1       1.254   4.116  17.199  0.00  0.00    +0.000 Cl
ENDBRANCH  12  15
ENDBRANCH   1  12
TORSDOF 4
ENDMDL
