MODEL 1
REMARK VINA RESULT:      -7.3      0.000      0.000
REMARK  Name = 
REMARK  13 active torsions:
REMARK  status: ('A' for Active; 'I' for Inactive)
REMARK    1  A    between atoms: C_1  and  C_2
REMARK    2  A    between atoms: C_2  and  C_3
REMARK    3  A    between atoms: C_3  and  N_4
REMARK    4  A    between atoms: C_3  and  C_21
REMARK    5  A    between atoms: N_4  and  S_5
REMARK    6  A    between atoms: S_5  and  C_8
REMARK    7  A    between atoms: C_8  and  C_9
REMARK    8  A    between atoms: C_9  and  C_10
REMARK    9  A    between atoms: C_10  and  O_11
REMARK   10  A    between atoms: O_11  and  C_12
REMARK   11  A    between atoms: C_12  and  N_13
REMARK   12  A    between atoms: C_25  and  O_26
REMARK   13  A    between atoms: O_26  and  C_27
REMARK                            x       y       z     vdW  Elec       q    Type
REMARK                         _______ _______ _______ _____ _____    ______ ____
ROOT
ATOM      1  N   UNL     1       3.735   3.030  20.099  0.00  0.00    +0.000 NA
ATOM      2  H   UNL     1       4.590   3.207  20.629  0.00  0.00    +0.000 HD
ENDROOT
BRANCH   1   3
ATOM      3  S   UNL     1       2.366   3.409  20.997  0.00  0.00    +0.000 S 
ATOM      4  O   UNL     1       1.229   3.240  20.115  0.00  0.00    +0.000 OA
ATOM      5  O   UNL     1       2.435   2.747  22.279  0.00  0.00    +0.000 OA
BRANCH   3   6
ATOM      6  C   UNL     1       2.522   5.152  21.352  0.00  0.00    +0.000 C 
BRANCH   6   7
ATOM      7  C   UNL     1       1.472   5.872  20.498  0.00  0.00    +0.000 C 
BRANCH   7   8
ATOM      8  C   UNL     1       1.990   7.119  19.820  0.00  0.00    +0.000 C 
BRANCH   8   9
ATOM      9  O   UNL     1       1.864   8.202  20.729  0.00  0.00    +0.000 OA
BRANCH   9  10
ATOM     10  C   UNL     1       0.630   8.138  21.433  0.00  0.00    +0.000 C 
BRANCH  10  11
ATOM     11  N   UNL     1       0.007   9.445  21.354  0.00  0.00    +0.000 N 
ATOM     12  C   UNL     1      -0.395   9.928  20.125  0.00  0.00    +0.000 A 
ATOM     13  C   UNL     1      -0.941  11.137  19.989  0.00  0.00    +0.000 A 
ATOM     14  C   UNL     1      -1.122  11.973  21.185  0.00  0.00    +0.000 A 
ATOM     15  O   UNL     1      -1.603  13.093  21.106  0.00  0.00    +0.000 OA
ATOM     16  N   UNL     1      -0.710  11.420  22.361  0.00  0.00    +0.000 N 
ATOM     17  C   UNL     1      -0.137  10.182  22.517  0.00  0.00    +0.000 A 
ATOM     18  O   UNL     1       0.206   9.798  23.633  0.00  0.00    +0.000 OA
ATOM     19  H   UNL     1      -0.815  11.974  23.199  0.00  0.00    +0.000 HD
ENDBRANCH  10  11
ENDBRANCH   9  10
ENDBRANCH   8   9
ENDBRANCH   7   8
ENDBRANCH   6   7
ENDBRANCH   3   6
ENDBRANCH   1   3
BRANCH   1  20
ATOM     20  C   UNL     1       3.867   3.574  18.706  0.00  0.00    +0.000 C 
BRANCH  20  21
ATOM     21  C   UNL     1       5.156   4.323  18.390  0.00  0.00    +0.000 A 
ATOM     22  C   UNL     1       5.815   5.103  19.354  0.00  0.00    +0.000 A 
ATOM     23  C   UNL     1       6.984   5.795  19.052  0.00  0.00    +0.000 A 
ATOM     24  C   UNL     1       7.564   5.648  17.798  0.00  0.00    +0.000 A 
ATOM     25  C   UNL     1       6.966   4.831  16.841  0.00  0.00    +0.000 A 
ATOM     26  C   UNL     1       5.763   4.179  17.134  0.00  0.00    +0.000 A 
BRANCH  25  27
ATOM     27  O   UNL     1       7.659   4.711  15.668  0.00  0.00    +0.000 OA
BRANCH  27  28
ATOM     28  C   UNL     1       6.939   4.924  14.457  0.00  0.00    +0.000 C 
ATOM     29  C   UNL     1       7.875   5.146  13.272  0.00  0.00    +0.000 C 
ATOM     30  C   UNL     1       7.113   4.633  12.065  0.00  0.00    +0.000 C 
ATOM     31  C   UNL     1       6.166   3.559  12.585  0.00  0.00    +0.000 C 
ATOM     32  C   UNL     1       6.194   3.638  14.106  0.00  0.00    +0.000 C 
ENDBRANCH  27  28
ENDBRANCH  25  27
ENDBRANCH  20  21
BRANCH  20  34
ATOM     33  C   UNL     1       2.294   2.783  16.817  0.00  0.00    +0.000 C 
ATOM     34  C   UNL     1       3.578   2.543  17.597  0.00  0.00    +0.000 C 
ENDBRANCH  20  34
ENDBRANCH   1  20
TORSDOF 12
ENDMDL
MODEL 2
REMARK VINA RESULT:      -7.3      3.608      5.824
REMARK  Name = 
REMARK  13 active torsions:
REMARK  status: ('A' for Active; 'I' for Inactive)
REMARK    1  A    between atoms: C_1  and  C_2
REMARK    2  A    between atoms: C_2  and  C_3
REMARK    3  A    between atoms: C_3  and  N_4
REMARK    4  A    between atoms: C_3  and  C_21
REMARK    5  A    between atoms: N_4  and  S_5
REMARK    6  A    between atoms: S_5  and  C_8
REMARK    7  A    between atoms: C_8  and  C_9
REMARK    8  A    between atoms: C_9  and  C_10
REMARK    9  A    between atoms: C_10  and  O_11
REMARK   10  A    between atoms: O_11  and  C_12
REMARK   11  A    between atoms: C_12  and  N_13
REMARK   12  A    between atoms: C_25  and  O_26
REMARK   13  A    between atoms: O_26  and  C_27
REMARK                            x       y       z     vdW  Elec       q    Type
REMARK                         _______ _______ _______ _____ _____    ______ ____
ROOT
ATOM      1  N   UNL     1       0.660   8.749  20.448  0.00  0.00    +0.000 NA
ATOM      2  H   UNL     1      -0.062   8.028  20.393  0.00  0.00    +0.000 HD
ENDROOT
BRANCH   1   3
ATOM      3  S   UNL     1       0.681   9.483  21.959  0.00  0.00    +0.000 S 
ATOM      4  O   UNL     1      -0.592   9.187  22.584  0.00  0.00    +0.000 OA
ATOM      5  O   UNL     1       1.933   9.191  22.618  0.00  0.00    +0.000 OA
BRANCH   3   6
ATOM      6  C   UNL     1       0.721  11.234  21.614  0.00  0.00    +0.000 C 
BRANCH   6   7
ATOM      7  C   UNL     1       0.237  11.411  20.170  0.00  0.00    +0.000 C 
BRANCH   7   8
ATOM      8  C   UNL     1      -1.260  11.565  20.045  0.00  0.00    +0.000 C 
BRANCH   8   9
ATOM      9  O   UNL     1      -1.611  11.392  18.680  0.00  0.00    +0.000 OA
BRANCH   9  10
ATOM     10  C   UNL     1      -3.022  11.454  18.503  0.00  0.00    +0.000 C 
BRANCH  10  11
ATOM     11  N   UNL     1      -3.319  11.001  17.158  0.00  0.00    +0.000 N 
ATOM     12  C   UNL     1      -2.428  10.164  16.516  0.00  0.00    +0.000 A 
ATOM     13  C   UNL     1      -2.634   9.745  15.266  0.00  0.00    +0.000 A 
ATOM     14  C   UNL     1      -3.845  10.185  14.559  0.00  0.00    +0.000 A 
ATOM     15  O   UNL     1      -4.067   9.839  13.410  0.00  0.00    +0.000 OA
ATOM     16  N   UNL     1      -4.679  11.000  15.266  0.00  0.00    +0.000 N 
ATOM     17  C   UNL     1      -4.477  11.450  16.548  0.00  0.00    +0.000 A 
ATOM     18  O   UNL     1      -5.299  12.196  17.076  0.00  0.00    +0.000 OA
ATOM     19  H   UNL     1      -5.516  11.325  14.803  0.00  0.00    +0.000 HD
ENDBRANCH  10  11
ENDBRANCH   9  10
ENDBRANCH   8   9
ENDBRANCH   7   8
ENDBRANCH   6   7
ENDBRANCH   3   6
ENDBRANCH   1   3
BRANCH   1  20
ATOM     20  C   UNL     1       1.947   8.238  19.867  0.00  0.00    +0.000 C 
BRANCH  20  21
ATOM     21  C   UNL     1       2.144   6.727  19.882  0.00  0.00    +0.000 A 
ATOM     22  C   UNL     1       1.434   5.895  20.762  0.00  0.00    +0.000 A 
ATOM     23  C   UNL     1       1.632   4.518  20.779  0.00  0.00    +0.000 A 
ATOM     24  C   UNL     1       2.485   3.936  19.849  0.00  0.00    +0.000 A 
ATOM     25  C   UNL     1       3.157   4.730  18.921  0.00  0.00    +0.000 A 
ATOM     26  C   UNL     1       2.993   6.120  18.944  0.00  0.00    +0.000 A 
BRANCH  25  27
ATOM     27  O   UNL     1       3.918   4.044  18.016  0.00  0.00    +0.000 OA
BRANCH  27  28
ATOM     28  C   UNL     1       4.960   4.760  17.359  0.00  0.00    +0.000 C 
ATOM     29  C   UNL     1       6.307   4.558  18.045  0.00  0.00    +0.000 C 
ATOM     30  C   UNL     1       7.338   4.701  16.942  0.00  0.00    +0.000 C 
ATOM     31  C   UNL     1       6.641   4.286  15.653  0.00  0.00    +0.000 C 
ATOM     32  C   UNL     1       5.156   4.159  15.969  0.00  0.00    +0.000 C 
ENDBRANCH  27  28
ENDBRANCH  25  27
ENDBRANCH  20  21
BRANCH  20  34
ATOM     33  C   UNL     1       1.055   9.147  17.620  0.00  0.00    +0.000 C 
ATOM     34  C   UNL     1       2.270   8.792  18.465  0.00  0.00    +0.000 C 
ENDBRANCH  20  34
ENDBRANCH   1  20
TORSDOF 12
ENDMDL
MODEL 3
REMARK VINA RESULT:      -7.2      3.499      7.860
REMARK  Name = 
REMARK  13 active torsions:
REMARK  status: ('A' for Active; 'I' for Inactive)
REMARK    1  A    between atoms: C_1  and  C_2
REMARK    2  A    between atoms: C_2  and  C_3
REMARK    3  A    between atoms: C_3  and  N_4
REMARK    4  A    between atoms: C_3  and  C_21
REMARK    5  A    between atoms: N_4  and  S_5
REMARK    6  A    between atoms: S_5  and  C_8
REMARK    7  A    between atoms: C_8  and  C_9
REMARK    8  A    between atoms: C_9  and  C_10
REMARK    9  A    between atoms: C_10  and  O_11
REMARK   10  A    between atoms: O_11  and  C_12
REMARK   11  A    between atoms: C_12  and  N_13
REMARK   12  A    between atoms: C_25  and  O_26
REMARK   13  A    between atoms: O_26  and  C_27
REMARK                            x       y       z     vdW  Elec       q    Type
REMARK                         _______ _______ _______ _____ _____    ______ ____
ROOT
ATOM      1  N   UNL     1       6.316   6.329  15.895  0.00  0.00    +0.000 NA
ATOM      2  H   UNL     1       6.568   7.096  15.270  0.00  0.00    +0.000 HD
ENDROOT
BRANCH   1   3
ATOM      3  S   UNL     1       7.208   4.945  15.561  0.00  0.00    +0.000 S 
ATOM      4  O   UNL     1       7.867   5.171  14.290  0.00  0.00    +0.000 OA
ATOM      5  O   UNL     1       7.949   4.555  16.738  0.00  0.00    +0.000 OA
BRANCH   3   6
ATOM      6  C   UNL     1       5.989   3.664  15.319  0.00  0.00    +0.000 C 
BRANCH   6   7
ATOM      7  C   UNL     1       4.615   4.340  15.408  0.00  0.00    +0.000 C 
BRANCH   7   8
ATOM      8  C   UNL     1       3.717   3.753  16.472  0.00  0.00    +0.000 C 
BRANCH   8   9
ATOM      9  O   UNL     1       4.530   3.045  17.397  0.00  0.00    +0.000 OA
BRANCH   9  10
ATOM     10  C   UNL     1       3.908   1.830  17.799  0.00  0.00    +0.000 C 
BRANCH  10  11
ATOM     11  N   UNL     1       3.208   2.084  19.044  0.00  0.00    +0.000 N 
ATOM     12  C   UNL     1       1.842   2.284  19.022  0.00  0.00    +0.000 A 
ATOM     13  C   UNL     1       1.153   2.555  20.131  0.00  0.00    +0.000 A 
ATOM     14  C   UNL     1       1.872   2.637  21.411  0.00  0.00    +0.000 A 
ATOM     15  O   UNL     1       1.285   2.897  22.450  0.00  0.00    +0.000 OA
ATOM     16  N   UNL     1       3.216   2.415  21.350  0.00  0.00    +0.000 N 
ATOM     17  C   UNL     1       3.942   2.147  20.216  0.00  0.00    +0.000 A 
ATOM     18  O   UNL     1       5.157   1.978  20.287  0.00  0.00    +0.000 OA
ATOM     19  H   UNL     1       3.737   2.473  22.213  0.00  0.00    +0.000 HD
ENDBRANCH  10  11
ENDBRANCH   9  10
ENDBRANCH   8   9
ENDBRANCH   7   8
ENDBRANCH   6   7
ENDBRANCH   3   6
ENDBRANCH   1   3
BRANCH   1  20
ATOM     20  C   UNL     1       6.234   6.820  17.311  0.00  0.00    +0.000 C 
BRANCH  20  21
ATOM     21  C   UNL     1       4.883   6.675  18.002  0.00  0.00    +0.000 A 
ATOM     22  C   UNL     1       4.711   5.859  19.131  0.00  0.00    +0.000 A 
ATOM     23  C   UNL     1       3.471   5.721  19.746  0.00  0.00    +0.000 A 
ATOM     24  C   UNL     1       2.393   6.469  19.291  0.00  0.00    +0.000 A 
ATOM     25  C   UNL     1       2.548   7.336  18.210  0.00  0.00    +0.000 A 
ATOM     26  C   UNL     1       3.785   7.431  17.564  0.00  0.00    +0.000 A 
BRANCH  25  27
ATOM     27  O   UNL     1       1.437   8.068  17.892  0.00  0.00    +0.000 OA
BRANCH  27  28
ATOM     28  C   UNL     1       1.280   9.332  18.531  0.00  0.00    +0.000 C 
ATOM     29  C   UNL     1      -0.008  10.028  18.102  0.00  0.00    +0.000 C 
ATOM     30  C   UNL     1      -0.409  10.883  19.289  0.00  0.00    +0.000 C 
ATOM     31  C   UNL     1       0.158  10.191  20.521  0.00  0.00    +0.000 C 
ATOM     32  C   UNL     1       1.095   9.096  20.028  0.00  0.00    +0.000 C 
ENDBRANCH  27  28
ENDBRANCH  25  27
ENDBRANCH  20  21
BRANCH  20  34
ATOM     33  C   UNL     1       8.303   7.341  18.767  0.00  0.00    +0.000 C 
ATOM     34  C   UNL     1       7.349   6.283  18.231  0.00  0.00    +0.000 C 
ENDBRANCH  20  34
ENDBRANCH   1  20
TORSDOF 12
ENDMDL
MODEL 4
REMARK VINA RESULT:      -7.2      1.361      1.674
REMARK  Name = 
REMARK  13 active torsions:
REMARK  status: ('A' for Active; 'I' for Inactive)
REMARK    1  A    between atoms: C_1  and  C_2
REMARK    2  A    between atoms: C_2  and  C_3
REMARK    3  A    between atoms: C_3  and  N_4
REMARK    4  A    between atoms: C_3  and  C_21
REMARK    5  A    between atoms: N_4  and  S_5
REMARK    6  A    between atoms: S_5  and  C_8
REMARK    7  A    between atoms: C_8  and  C_9
REMARK    8  A    between atoms: C_9  and  C_10
REMARK    9  A    between atoms: C_10  and  O_11
REMARK   10  A    between atoms: O_11  and  C_12
REMARK   11  A    between atoms: C_12  and  N_13
REMARK   12  A    between atoms: C_25  and  O_26
REMARK   13  A    between atoms: O_26  and  C_27
REMARK                            x       y       z     vdW  Elec       q    Type
REMARK                         _______ _______ _______ _____ _____    ______ ____
ROOT
ATOM      1  N   UNL     1       3.936   2.810  19.423  0.00  0.00    +0.000 NA
ATOM      2  H   UNL     1       4.915   2.763  19.714  0.00  0.00    +0.000 HD
ENDROOT
BRANCH   1   3
ATOM      3  S   UNL     1       2.898   2.600  20.727  0.00  0.00    +0.000 S 
ATOM      4  O   UNL     1       1.703   1.963  20.210  0.00  0.00    +0.000 OA
ATOM      5  O   UNL     1       3.631   2.041  21.840  0.00  0.00    +0.000 OA
BRANCH   3   6
ATOM      6  C   UNL     1       2.456   4.254  21.230  0.00  0.00    +0.000 C 
BRANCH   6   7
ATOM      7  C   UNL     1       1.104   4.568  20.577  0.00  0.00    +0.000 C 
BRANCH   7   8
ATOM      8  C   UNL     1       0.699   6.019  20.686  0.00  0.00    +0.000 C 
BRANCH   8   9
ATOM      9  O   UNL     1       1.819   6.819  20.339  0.00  0.00    +0.000 OA
BRANCH   9  10
ATOM     10  C   UNL     1       1.794   8.062  21.031  0.00  0.00    +0.000 C 
BRANCH  10  11
ATOM     11  N   UNL     1       0.991   8.985  20.254  0.00  0.00    +0.000 N 
ATOM     12  C   UNL     1       1.323   9.222  18.934  0.00  0.00    +0.000 A 
ATOM     13  C   UNL     1       0.640  10.087  18.182  0.00  0.00    +0.000 A 
ATOM     14  C   UNL     1      -0.497  10.803  18.778  0.00  0.00    +0.000 A 
ATOM     15  O   UNL     1      -1.141  11.614  18.132  0.00  0.00    +0.000 OA
ATOM     16  N   UNL     1      -0.767  10.504  20.081  0.00  0.00    +0.000 N 
ATOM     17  C   UNL     1      -0.069   9.625  20.872  0.00  0.00    +0.000 A 
ATOM     18  O   UNL     1      -0.402   9.451  22.041  0.00  0.00    +0.000 OA
ATOM     19  H   UNL     1      -1.539  10.986  20.519  0.00  0.00    +0.000 HD
ENDBRANCH  10  11
ENDBRANCH   9  10
ENDBRANCH   8   9
ENDBRANCH   7   8
ENDBRANCH   6   7
ENDBRANCH   3   6
ENDBRANCH   1   3
BRANCH   1  20
ATOM     20  C   UNL     1       3.724   3.977  18.503  0.00  0.00    +0.000 C 
BRANCH  20  21
ATOM     21  C   UNL     1       4.977   4.717  18.048  0.00  0.00    +0.000 A 
ATOM     22  C   UNL     1       5.975   5.111  18.953  0.00  0.00    +0.000 A 
ATOM     23  C   UNL     1       7.108   5.800  18.531  0.00  0.00    +0.000 A 
ATOM     24  C   UNL     1       7.304   6.030  17.175  0.00  0.00    +0.000 A 
ATOM     25  C   UNL     1       6.361   5.595  16.246  0.00  0.00    +0.000 A 
ATOM     26  C   UNL     1       5.199   4.949  16.682  0.00  0.00    +0.000 A 
BRANCH  25  27
ATOM     27  O   UNL     1       6.691   5.820  14.938  0.00  0.00    +0.000 OA
BRANCH  27  28
ATOM     28  C   UNL     1       7.006   4.684  14.137  0.00  0.00    +0.000 C 
ATOM     29  C   UNL     1       5.750   3.976  13.638  0.00  0.00    +0.000 C 
ATOM     30  C   UNL     1       6.151   3.342  12.320  0.00  0.00    +0.000 C 
ATOM     31  C   UNL     1       7.273   4.205  11.758  0.00  0.00    +0.000 C 
ATOM     32  C   UNL     1       7.692   5.167  12.862  0.00  0.00    +0.000 C 
ENDBRANCH  27  28
ENDBRANCH  25  27
ENDBRANCH  20  21
BRANCH  20  34
ATOM     33  C   UNL     1       1.445   4.291  17.330  0.00  0.00    +0.000 C 
ATOM     34  C   UNL     1       2.832   3.666  17.285  0.00  0.00    +0.000 C 
ENDBRANCH  20  34
ENDBRANCH   1  20
TORSDOF 12
ENDMDL
MODEL 5
REMARK VINA RESULT:      -7.1      4.437      7.246
REMARK  Name = 
REMARK  13 active torsions:
REMARK  status: ('A' for Active; 'I' for Inactive)
REMARK    1  A    between atoms: C_1  and  C_2
REMARK    2  A    between atoms: C_2  and  C_3
REMARK    3  A    between atoms: C_3  and  N_4
REMARK    4  A    between atoms: C_3  and  C_21
REMARK    5  A    between atoms: N_4  and  S_5
REMARK    6  A    between atoms: S_5  and  C_8
REMARK    7  A    between atoms: C_8  and  C_9
REMARK    8  A    between atoms: C_9  and  C_10
REMARK    9  A    between atoms: C_10  and  O_11
REMARK   10  A    between atoms: O_11  and  C_12
REMARK   11  A    between atoms: C_12  and  N_13
REMARK   12  A    between atoms: C_25  and  O_26
REMARK   13  A    between atoms: O_26  and  C_27
REMARK                            x       y       z     vdW  Elec       q    Type
REMARK                         _______ _______ _______ _____ _____    ______ ____
ROOT
ATOM      1  N   UNL     1       1.237  10.926  21.315  0.00  0.00    +0.000 NA
ATOM      2  H   UNL     1       2.229  10.888  21.075  0.00  0.00    +0.000 HD
ENDROOT
BRANCH   1   3
ATOM      3  S   UNL     1       0.586  12.442  20.999  0.00  0.00    +0.000 S 
ATOM      4  O   UNL     1      -0.177  12.821  22.172  0.00  0.00    +0.000 OA
ATOM      5  O   UNL     1       1.611  13.301  20.454  0.00  0.00    +0.000 OA
BRANCH   3   6
ATOM      6  C   UNL     1      -0.569  12.173  19.665  0.00  0.00    +0.000 C 
BRANCH   6   7
ATOM      7  C   UNL     1      -1.704  13.187  19.853  0.00  0.00    +0.000 C 
BRANCH   7   8
ATOM      8  C   UNL     1      -3.071  12.554  19.971  0.00  0.00    +0.000 C 
BRANCH   8   9
ATOM      9  O   UNL     1      -3.888  13.407  20.760  0.00  0.00    +0.000 OA
BRANCH   9  10
ATOM     10  C   UNL     1      -4.288  12.762  21.963  0.00  0.00    +0.000 C 
BRANCH  10  11
ATOM     11  N   UNL     1      -3.793  13.552  23.074  0.00  0.00    +0.000 N 
ATOM     12  C   UNL     1      -3.103  14.720  22.817  0.00  0.00    +0.000 A 
ATOM     13  C   UNL     1      -2.595  15.468  23.798  0.00  0.00    +0.000 A 
ATOM     14  C   UNL     1      -2.782  15.034  25.190  0.00  0.00    +0.000 A 
ATOM     15  O   UNL     1      -2.322  15.678  26.120  0.00  0.00    +0.000 OA
ATOM     16  N   UNL     1      -3.484  13.877  25.361  0.00  0.00    +0.000 N 
ATOM     17  C   UNL     1      -4.004  13.091  24.362  0.00  0.00    +0.000 A 
ATOM     18  O   UNL     1      -4.609  12.059  24.642  0.00  0.00    +0.000 OA
ATOM     19  H   UNL     1      -3.622  13.551  26.306  0.00  0.00    +0.000 HD
ENDBRANCH  10  11
ENDBRANCH   9  10
ENDBRANCH   8   9
ENDBRANCH   7   8
ENDBRANCH   6   7
ENDBRANCH   3   6
ENDBRANCH   1   3
BRANCH   1  20
ATOM     20  C   UNL     1       0.532   9.707  20.797  0.00  0.00    +0.000 C 
BRANCH  20  21
ATOM     21  C   UNL     1       1.335   8.804  19.867  0.00  0.00    +0.000 A 
ATOM     22  C   UNL     1       1.686   9.201  18.568  0.00  0.00    +0.000 A 
ATOM     23  C   UNL     1       2.407   8.364  17.721  0.00  0.00    +0.000 A 
ATOM     24  C   UNL     1       2.866   7.142  18.195  0.00  0.00    +0.000 A 
ATOM     25  C   UNL     1       2.586   6.746  19.502  0.00  0.00    +0.000 A 
ATOM     26  C   UNL     1       1.817   7.570  20.330  0.00  0.00    +0.000 A 
BRANCH  25  27
ATOM     27  O   UNL     1       3.143   5.555  19.877  0.00  0.00    +0.000 OA
BRANCH  27  28
ATOM     28  C   UNL     1       2.260   4.457  20.091  0.00  0.00    +0.000 C 
ATOM     29  C   UNL     1       1.347   4.221  18.892  0.00  0.00    +0.000 C 
ATOM     30  C   UNL     1       1.045   2.735  18.911  0.00  0.00    +0.000 C 
ATOM     31  C   UNL     1       2.237   2.069  19.586  0.00  0.00    +0.000 C 
ATOM     32  C   UNL     1       3.091   3.179  20.183  0.00  0.00    +0.000 C 
ENDBRANCH  27  28
ENDBRANCH  25  27
ENDBRANCH  20  21
BRANCH  20  34
ATOM     33  C   UNL     1      -0.045   9.423  23.298  0.00  0.00    +0.000 C 
ATOM     34  C   UNL     1      -0.148   8.858  21.889  0.00  0.00    +0.000 C 
ENDBRANCH  20  34
ENDBRANCH   1  20
TORSDOF 12
ENDMDL
MODEL 6
REMARK VINA RESULT:      -7.1      2.809      3.667
REMARK  Name = 
REMARK  13 active torsions:
REMARK  status: ('A' for Active; 'I' for Inactive)
REMARK    1  A    between atoms: C_1  and  C_2
REMARK    2  A    between atoms: C_2  and  C_3
REMARK    3  A    between atoms: C_3  and  N_4
REMARK    4  A    between atoms: C_3  and  C_21
REMARK    5  A    between atoms: N_4  and  S_5
REMARK    6  A    between atoms: S_5  and  C_8
REMARK    7  A    between atoms: C_8  and  C_9
REMARK    8  A    between atoms: C_9  and  C_10
REMARK    9  A    between atoms: C_10  and  O_11
REMARK   10  A    between atoms: O_11  and  C_12
REMARK   11  A    between atoms: C_12  and  N_13
REMARK   12  A    between atoms: C_25  and  O_26
REMARK   13  A    between atoms: O_26  and  C_27
REMARK                            x       y       z     vdW  Elec       q    Type
REMARK                         _______ _______ _______ _____ _____    ______ ____
ROOT
ATOM      1  N   UNL     1       2.232   5.627  17.880  0.00  0.00    +0.000 NA
ATOM      2  H   UNL     1       1.281   5.412  18.186  0.00  0.00    +0.000 HD
ENDROOT
BRANCH   1   3
ATOM      3  S   UNL     1       2.685   7.181  18.331  0.00  0.00    +0.000 S 
ATOM      4  O   UNL     1       2.669   7.215  19.780  0.00  0.00    +0.000 OA
ATOM      5  O   UNL     1       3.851   7.579  17.577  0.00  0.00    +0.000 OA
BRANCH   3   6
ATOM      6  C   UNL     1       1.361   8.229  17.750  0.00  0.00    +0.000 C 
BRANCH   6   7
ATOM      7  C   UNL     1       1.551   9.593  18.423  0.00  0.00    +0.000 C 
BRANCH   7   8
ATOM      8  C   UNL     1       0.378  10.020  19.274  0.00  0.00    +0.000 C 
BRANCH   8   9
ATOM      9  O   UNL     1      -0.743  10.206  18.422  0.00  0.00    +0.000 OA
BRANCH   9  10
ATOM     10  C   UNL     1      -1.080  11.585  18.315  0.00  0.00    +0.000 C 
BRANCH  10  11
ATOM     11  N   UNL     1      -2.514  11.675  18.116  0.00  0.00    +0.000 N 
ATOM     12  C   UNL     1      -3.055  11.261  16.916  0.00  0.00    +0.000 A 
ATOM     13  C   UNL     1      -4.363  11.353  16.666  0.00  0.00    +0.000 A 
ATOM     14  C   UNL     1      -5.246  11.908  17.701  0.00  0.00    +0.000 A 
ATOM     15  O   UNL     1      -6.447  12.025  17.511  0.00  0.00    +0.000 OA
ATOM     16  N   UNL     1      -4.636  12.281  18.862  0.00  0.00    +0.000 N 
ATOM     17  C   UNL     1      -3.292  12.203  19.131  0.00  0.00    +0.000 A 
ATOM     18  O   UNL     1      -2.858  12.587  20.215  0.00  0.00    +0.000 OA
ATOM     19  H   UNL     1      -5.218  12.673  19.589  0.00  0.00    +0.000 HD
ENDBRANCH  10  11
ENDBRANCH   9  10
ENDBRANCH   8   9
ENDBRANCH   7   8
ENDBRANCH   6   7
ENDBRANCH   3   6
ENDBRANCH   1   3
BRANCH   1  20
ATOM     20  C   UNL     1       3.149   4.481  18.190  0.00  0.00    +0.000 C 
BRANCH  20  21
ATOM     21  C   UNL     1       4.644   4.764  18.092  0.00  0.00    +0.000 A 
ATOM     22  C   UNL     1       5.399   5.159  19.207  0.00  0.00    +0.000 A 
ATOM     23  C   UNL     1       6.760   5.429  19.104  0.00  0.00    +0.000 A 
ATOM     24  C   UNL     1       7.410   5.223  17.894  0.00  0.00    +0.000 A 
ATOM     25  C   UNL     1       6.699   4.771  16.784  0.00  0.00    +0.000 A 
ATOM     26  C   UNL     1       5.321   4.551  16.881  0.00  0.00    +0.000 A 
BRANCH  25  27
ATOM     27  O   UNL     1       7.454   4.542  15.667  0.00  0.00    +0.000 OA
BRANCH  27  28
ATOM     28  C   UNL     1       6.852   4.809  14.403  0.00  0.00    +0.000 C 
ATOM     29  C   UNL     1       7.891   5.165  13.344  0.00  0.00    +0.000 C 
ATOM     30  C   UNL     1       7.289   4.708  12.030  0.00  0.00    +0.000 C 
ATOM     31  C   UNL     1       6.357   3.553  12.369  0.00  0.00    +0.000 C 
ATOM     32  C   UNL     1       6.222   3.518  13.886  0.00  0.00    +0.000 C 
ENDBRANCH  27  28
ENDBRANCH  25  27
ENDBRANCH  20  21
BRANCH  20  34
ATOM     33  C   UNL     1       1.456   4.043  20.091  0.00  0.00    +0.000 C 
ATOM     34  C   UNL     1       2.841   3.769  19.522  0.00  0.00    +0.000 C 
ENDBRANCH  20  34
ENDBRANCH   1  20
TORSDOF 12
ENDMDL
MODEL 7
REMARK VINA RESULT:      -7.0      5.469      8.644
REMARK  Name = 
REMARK  13 active torsions:
REMARK  status: ('A' for Active; 'I' for Inactive)
REMARK    1  A    between atoms: C_1  and  C_2
REMARK    2  A    between atoms: C_2  and  C_3
REMARK    3  A    between atoms: C_3  and  N_4
REMARK    4  A    between atoms: C_3  and  C_21
REMARK    5  A    between atoms: N_4  and  S_5
REMARK    6  A    between atoms: S_5  and  C_8
REMARK    7  A    between atoms: C_8  and  C_9
REMARK    8  A    between atoms: C_9  and  C_10
REMARK    9  A    between atoms: C_10  and  O_11
REMARK   10  A    between atoms: O_11  and  C_12
REMARK   11  A    between atoms: C_12  and  N_13
REMARK   12  A    between atoms: C_25  and  O_26
REMARK   13  A    between atoms: O_26  and  C_27
REMARK                            x       y       z     vdW  Elec       q    Type
REMARK                         _______ _______ _______ _____ _____    ______ ____
ROOT
ATOM      1  N   UNL     1       5.785   5.901  18.215  0.00  0.00    +0.000 NA
ATOM      2  H   UNL     1       5.651   6.484  19.043  0.00  0.00    +0.000 HD
ENDROOT
BRANCH   1   3
ATOM      3  S   UNL     1       7.396   5.875  17.738  0.00  0.00    +0.000 S 
ATOM      4  O   UNL     1       7.934   4.596  18.155  0.00  0.00    +0.000 OA
ATOM      5  O   UNL     1       7.499   6.330  16.371  0.00  0.00    +0.000 OA
BRANCH   3   6
ATOM      6  C   UNL     1       8.183   7.140  18.721  0.00  0.00    +0.000 C 
BRANCH   6   7
ATOM      7  C   UNL     1       8.151   8.429  17.890  0.00  0.00    +0.000 C 
BRANCH   7   8
ATOM      8  C   UNL     1       8.564   9.660  18.662  0.00  0.00    +0.000 C 
BRANCH   8   9
ATOM      9  O   UNL     1       9.459  10.410  17.853  0.00  0.00    +0.000 OA
BRANCH   9  10
ATOM     10  C   UNL     1      10.300  11.235  18.651  0.00  0.00    +0.000 C 
BRANCH  10  11
ATOM     11  N   UNL     1       9.877  12.609  18.463  0.00  0.00    +0.000 N 
ATOM     12  C   UNL     1       8.920  13.142  19.305  0.00  0.00    +0.000 A 
ATOM     13  C   UNL     1       8.469  14.389  19.156  0.00  0.00    +0.000 A 
ATOM     14  C   UNL     1       9.011  15.215  18.068  0.00  0.00    +0.000 A 
ATOM     15  O   UNL     1       8.617  16.357  17.885  0.00  0.00    +0.000 OA
ATOM     16  N   UNL     1       9.960  14.621  17.290  0.00  0.00    +0.000 N 
ATOM     17  C   UNL     1      10.427  13.336  17.422  0.00  0.00    +0.000 A 
ATOM     18  O   UNL     1      11.278  12.908  16.646  0.00  0.00    +0.000 OA
ATOM     19  H   UNL     1      10.345  15.162  16.529  0.00  0.00    +0.000 HD
ENDBRANCH  10  11
ENDBRANCH   9  10
ENDBRANCH   8   9
ENDBRANCH   7   8
ENDBRANCH   6   7
ENDBRANCH   3   6
ENDBRANCH   1   3
BRANCH   1  20
ATOM     20  C   UNL     1       5.050   4.602  18.371  0.00  0.00    +0.000 C 
BRANCH  20  21
ATOM     21  C   UNL     1       3.682   4.674  19.040  0.00  0.00    +0.000 A 
ATOM     22  C   UNL     1       2.783   3.596  19.007  0.00  0.00    +0.000 A 
ATOM     23  C   UNL     1       1.531   3.675  19.608  0.00  0.00    +0.000 A 
ATOM     24  C   UNL     1       1.188   4.812  20.329  0.00  0.00    +0.000 A 
ATOM     25  C   UNL     1       2.084   5.875  20.432  0.00  0.00    +0.000 A 
ATOM     26  C   UNL     1       3.322   5.808  19.782  0.00  0.00    +0.000 A 
BRANCH  25  27
ATOM     27  O   UNL     1       1.665   6.911  21.220  0.00  0.00    +0.000 OA
BRANCH  27  28
ATOM     28  C   UNL     1       0.715   7.815  20.662  0.00  0.00    +0.000 C 
ATOM     29  C   UNL     1       0.112   8.730  21.724  0.00  0.00    +0.000 C 
ATOM     30  C   UNL     1      -0.242  10.008  20.989  0.00  0.00    +0.000 C 
ATOM     31  C   UNL     1       0.724  10.105  19.816  0.00  0.00    +0.000 C 
ATOM     32  C   UNL     1       1.449   8.769  19.723  0.00  0.00    +0.000 C 
ENDBRANCH  27  28
ENDBRANCH  25  27
ENDBRANCH  20  21
BRANCH  20  34
ATOM     33  C   UNL     1       4.566   4.562  15.835  0.00  0.00    +0.000 C 
ATOM     34  C   UNL     1       4.954   3.772  17.076  0.00  0.00    +0.000 C 
ENDBRANCH  20  34
ENDBRANCH   1  20
TORSDOF 12
ENDMDL
MODEL 8
REMARK VINA RESULT:      -7.0      2.526      9.086
REMARK  Name = 
REMARK  13 active torsions:
REMARK  status: ('A' for Active; 'I' for Inactive)
REMARK    1  A    between atoms: C_1  and  C_2
REMARK    2  A    between atoms: C_2  and  C_3
REMARK    3  A    between atoms: C_3  and  N_4
REMARK    4  A    between atoms: C_3  and  C_21
REMARK    5  A    between atoms: N_4  and  S_5
REMARK    6  A    between atoms: S_5  and  C_8
REMARK    7  A    between atoms: C_8  and  C_9
REMARK    8  A    between atoms: C_9  and  C_10
REMARK    9  A    between atoms: C_10  and  O_11
REMARK   10  A    between atoms: O_11  and  C_12
REMARK   11  A    between atoms: C_12  and  N_13
REMARK   12  A    between atoms: C_25  and  O_26
REMARK   13  A    between atoms: O_26  and  C_27
REMARK                            x       y       z     vdW  Elec       q    Type
REMARK                         _______ _______ _______ _____ _____    ______ ____
ROOT
ATOM      1  N   UNL     1       2.148   7.434  20.736  0.00  0.00    +0.000 NA
ATOM      2  H   UNL     1       1.804   7.193  21.667  0.00  0.00    +0.000 HD
ENDROOT
BRANCH   1   3
ATOM      3  S   UNL     1       2.597   6.064  19.874  0.00  0.00    +0.000 S 
ATOM      4  O   UNL     1       1.777   6.036  18.679  0.00  0.00    +0.000 OA
ATOM      5  O   UNL     1       4.038   5.991  19.804  0.00  0.00    +0.000 OA
BRANCH   3   6
ATOM      6  C   UNL     1       2.101   4.694  20.905  0.00  0.00    +0.000 C 
BRANCH   6   7
ATOM      7  C   UNL     1       0.870   4.065  20.240  0.00  0.00    +0.000 C 
BRANCH   7   8
ATOM      8  C   UNL     1       0.983   2.572  20.039  0.00  0.00    +0.000 C 
BRANCH   8   9
ATOM      9  O   UNL     1       2.359   2.247  19.901  0.00  0.00    +0.000 OA
BRANCH   9  10
ATOM     10  C   UNL     1       2.693   2.009  18.539  0.00  0.00    +0.000 C 
BRANCH  10  11
ATOM     11  N   UNL     1       3.786   2.895  18.190  0.00  0.00    +0.000 N 
ATOM     12  C   UNL     1       3.716   3.625  17.020  0.00  0.00    +0.000 A 
ATOM     13  C   UNL     1       4.708   4.429  16.633  0.00  0.00    +0.000 A 
ATOM     14  C   UNL     1       5.904   4.541  17.480  0.00  0.00    +0.000 A 
ATOM     15  O   UNL     1       6.842   5.253  17.158  0.00  0.00    +0.000 OA
ATOM     16  N   UNL     1       5.890   3.798  18.624  0.00  0.00    +0.000 N 
ATOM     17  C   UNL     1       4.883   2.958  19.031  0.00  0.00    +0.000 A 
ATOM     18  O   UNL     1       4.994   2.328  20.081  0.00  0.00    +0.000 OA
ATOM     19  H   UNL     1       6.702   3.849  19.222  0.00  0.00    +0.000 HD
ENDBRANCH  10  11
ENDBRANCH   9  10
ENDBRANCH   8   9
ENDBRANCH   7   8
ENDBRANCH   6   7
ENDBRANCH   3   6
ENDBRANCH   1   3
BRANCH   1  20
ATOM     20  C   UNL     1       1.237   8.436  20.090  0.00  0.00    +0.000 C 
BRANCH  20  21
ATOM     21  C   UNL     1       0.427   9.321  21.031  0.00  0.00    +0.000 A 
ATOM     22  C   UNL     1       0.367   9.075  22.412  0.00  0.00    +0.000 A 
ATOM     23  C   UNL     1      -0.386   9.879  23.261  0.00  0.00    +0.000 A 
ATOM     24  C   UNL     1      -1.028  11.002  22.752  0.00  0.00    +0.000 A 
ATOM     25  C   UNL     1      -0.935  11.307  21.395  0.00  0.00    +0.000 A 
ATOM     26  C   UNL     1      -0.218  10.465  20.538  0.00  0.00    +0.000 A 
BRANCH  25  27
ATOM     27  O   UNL     1      -1.552  12.469  21.021  0.00  0.00    +0.000 OA
BRANCH  27  28
ATOM     28  C   UNL     1      -0.748  13.465  20.395  0.00  0.00    +0.000 C 
ATOM     29  C   UNL     1       0.680  13.462  20.933  0.00  0.00    +0.000 C 
ATOM     30  C   UNL     1       1.536  13.957  19.784  0.00  0.00    +0.000 C 
ATOM     31  C   UNL     1       0.797  13.576  18.508  0.00  0.00    +0.000 C 
ATOM     32  C   UNL     1      -0.590  13.103  18.920  0.00  0.00    +0.000 C 
ENDBRANCH  27  28
ENDBRANCH  25  27
ENDBRANCH  20  21
BRANCH  20  34
ATOM     33  C   UNL     1       1.272   9.243  17.637  0.00  0.00    +0.000 C 
ATOM     34  C   UNL     1       1.917   9.306  19.014  0.00  0.00    +0.000 C 
ENDBRANCH  20  34
ENDBRANCH   1  20
TORSDOF 12
ENDMDL
MODEL 9
REMARK VINA RESULT:      -7.0      3.348      4.352
REMARK  Name = 
REMARK  13 active torsions:
REMARK  status: ('A' for Active; 'I' for Inactive)
REMARK    1  A    between atoms: C_1  and  C_2
REMARK    2  A    between atoms: C_2  and  C_3
REMARK    3  A    between atoms: C_3  and  N_4
REMARK    4  A    between atoms: C_3  and  C_21
REMARK    5  A    between atoms: N_4  and  S_5
REMARK    6  A    between atoms: S_5  and  C_8
REMARK    7  A    between atoms: C_8  and  C_9
REMARK    8  A    between atoms: C_9  and  C_10
REMARK    9  A    between atoms: C_10  and  O_11
REMARK   10  A    between atoms: O_11  and  C_12
REMARK   11  A    between atoms: C_12  and  N_13
REMARK   12  A    between atoms: C_25  and  O_26
REMARK   13  A    between atoms: O_26  and  C_27
REMARK                            x       y       z     vdW  Elec       q    Type
REMARK                         _______ _______ _______ _____ _____    ______ ____
ROOT
ATOM      1  N   UNL     1       2.875   6.976  18.900  0.00  0.00    +0.000 NA
ATOM      2  H   UNL     1       3.647   7.202  19.529  0.00  0.00    +0.000 HD
ENDROOT
BRANCH   1   3
ATOM      3  S   UNL     1       2.062   8.360  18.404  0.00  0.00    +0.000 S 
ATOM      4  O   UNL     1       3.073   9.308  17.979  0.00  0.00    +0.000 OA
ATOM      5  O   UNL     1       0.963   7.989  17.543  0.00  0.00    +0.000 OA
BRANCH   3   6
ATOM      6  C   UNL     1       1.307   9.002  19.889  0.00  0.00    +0.000 C 
BRANCH   6   7
ATOM      7  C   UNL     1       0.961  10.469  19.609  0.00  0.00    +0.000 C 
BRANCH   7   8
ATOM      8  C   UNL     1      -0.510  10.784  19.753  0.00  0.00    +0.000 C 
BRANCH   8   9
ATOM      9  O   UNL     1      -0.977  11.292  18.511  0.00  0.00    +0.000 OA
BRANCH   9  10
ATOM     10  C   UNL     1      -1.826  10.352  17.862  0.00  0.00    +0.000 C 
BRANCH  10  11
ATOM     11  N   UNL     1      -3.096  11.005  17.610  0.00  0.00    +0.000 N 
ATOM     12  C   UNL     1      -3.867  11.418  18.678  0.00  0.00    +0.000 A 
ATOM     13  C   UNL     1      -5.059  11.993  18.505  0.00  0.00    +0.000 A 
ATOM     14  C   UNL     1      -5.558  12.193  17.137  0.00  0.00    +0.000 A 
ATOM     15  O   UNL     1      -6.649  12.701  16.931  0.00  0.00    +0.000 OA
ATOM     16  N   UNL     1      -4.732  11.770  16.138  0.00  0.00    +0.000 N 
ATOM     17  C   UNL     1      -3.509  11.167  16.299  0.00  0.00    +0.000 A 
ATOM     18  O   UNL     1      -2.861  10.816  15.315  0.00  0.00    +0.000 OA
ATOM     19  H   UNL     1      -5.053  11.888  15.187  0.00  0.00    +0.000 HD
ENDBRANCH  10  11
ENDBRANCH   9  10
ENDBRANCH   8   9
ENDBRANCH   7   8
ENDBRANCH   6   7
ENDBRANCH   3   6
ENDBRANCH   1   3
BRANCH   1  20
ATOM     20  C   UNL     1       3.322   5.983  17.867  0.00  0.00    +0.000 C 
BRANCH  20  21
ATOM     21  C   UNL     1       4.806   5.631  17.863  0.00  0.00    +0.000 A 
ATOM     22  C   UNL     1       5.528   5.451  19.053  0.00  0.00    +0.000 A 
ATOM     23  C   UNL     1       6.885   5.144  19.040  0.00  0.00    +0.000 A 
ATOM     24  C   UNL     1       7.527   4.926  17.828  0.00  0.00    +0.000 A 
ATOM     25  C   UNL     1       6.821   5.036  16.631  0.00  0.00    +0.000 A 
ATOM     26  C   UNL     1       5.469   5.395  16.649  0.00  0.00    +0.000 A 
BRANCH  25  27
ATOM     27  O   UNL     1       7.538   4.735  15.506  0.00  0.00    +0.000 OA
BRANCH  27  28
ATOM     28  C   UNL     1       6.897   4.930  14.248  0.00  0.00    +0.000 C 
ATOM     29  C   UNL     1       7.905   5.195  13.133  0.00  0.00    +0.000 C 
ATOM     30  C   UNL     1       7.249   4.663  11.874  0.00  0.00    +0.000 C 
ATOM     31  C   UNL     1       6.309   3.551  12.321  0.00  0.00    +0.000 C 
ATOM     32  C   UNL     1       6.228   3.620  13.840  0.00  0.00    +0.000 C 
ENDBRANCH  27  28
ENDBRANCH  25  27
ENDBRANCH  20  21
BRANCH  20  34
ATOM     33  C   UNL     1       1.735   4.372  19.113  0.00  0.00    +0.000 C 
ATOM     34  C   UNL     1       2.481   4.693  17.826  0.00  0.00    +0.000 C 
ENDBRANCH  20  34
ENDBRANCH   1  20
TORSDOF 12
ENDMDL
