MODEL 1
REMARK VINA RESULT:      -7.1      0.000      0.000
REMARK  Name = 
REMARK  20 active torsions:
REMARK  status: ('A' for Active; 'I' for Inactive)
REMARK    1  A    between atoms: C_1  and  C_2
REMARK    2  A    between atoms: C_2  and  C_3
REMARK    3  A    between atoms: C_3  and  C_4
REMARK    4  A    between atoms: C_4  and  C_5
REMARK    5  A    between atoms: C_5  and  N_6
REMARK    6  A    between atoms: N_6  and  C_7
REMARK    7  A    between atoms: N_6  and  C_12
REMARK    8  A    between atoms: C_7  and  C_8
REMARK    9  A    between atoms: C_8  and  C_9
REMARK   10  A    between atoms: C_9  and  C_10
REMARK   11  A    between atoms: C_10  and  C_11
REMARK   12  A    between atoms: C_12  and  C_13
REMARK   13  A    between atoms: C_13  and  C_14
REMARK   14  A    between atoms: C_14  and  O_15
REMARK   15  A    between atoms: O_15  and  C_16
REMARK   16  A    between atoms: C_17  and  C_18
REMARK   17  A    between atoms: C_21  and  O_22
REMARK   18  A    between atoms: O_22  and  C_23
REMARK   19  A    between atoms: C_24  and  O_25
REMARK   20  A    between atoms: O_25  and  C_26
REMARK                            x       y       z     vdW  Elec       q    Type
REMARK                         _______ _______ _______ _____ _____    ______ ____
ROOT
ATOM      1  C   UNL     1       2.385   7.647  18.524  0.00  0.00    +0.000 A 
ATOM      2  C   UNL     1       2.297   6.893  19.635  0.00  0.00    +0.000 A 
ATOM      3  O   UNL     1       1.688   7.282  20.820  0.00  0.00    +0.000 OA
ATOM      4  C   UNL     1       1.205   8.557  20.911  0.00  0.00    +0.000 A 
ATOM      5  C   UNL     1       0.678   8.953  22.141  0.00  0.00    +0.000 A 
ATOM      6  C   UNL     1       0.185  10.250  22.299  0.00  0.00    +0.000 A 
ATOM      7  C   UNL     1       0.220  11.152  21.237  0.00  0.00    +0.000 A 
ATOM      8  C   UNL     1       0.740  10.753  20.005  0.00  0.00    +0.000 A 
ATOM      9  C   UNL     1       1.222   9.454  19.849  0.00  0.00    +0.000 A 
ATOM     10  C   UNL     1       1.758   9.004  18.557  0.00  0.00    +0.000 A 
ATOM     11  O   UNL     1       1.681   9.739  17.581  0.00  0.00    +0.000 OA
ENDROOT
BRANCH   2  12
ATOM     12  C   UNL     1       2.895   5.549  19.729  0.00  0.00    +0.000 A 
ATOM     13  C   UNL     1       4.278   5.374  19.748  0.00  0.00    +0.000 A 
ATOM     14  C   UNL     1       4.812   4.085  19.806  0.00  0.00    +0.000 A 
ATOM     15  C   UNL     1       3.985   2.950  19.843  0.00  0.00    +0.000 A 
ATOM     16  C   UNL     1       2.590   3.116  19.814  0.00  0.00    +0.000 A 
ATOM     17  C   UNL     1       2.062   4.419  19.763  0.00  0.00    +0.000 A 
BRANCH  16  18
ATOM     18  O   UNL     1       1.803   1.996  19.822  0.00  0.00    +0.000 OA
ATOM     19  C   UNL     1       1.229   1.559  18.598  0.00  0.00    +0.000 C 
ENDBRANCH  16  18
BRANCH  15  20
ATOM     20  O   UNL     1       4.710   1.786  19.904  0.00  0.00    +0.000 OA
ATOM     21  C   UNL     1       5.217   1.351  21.157  0.00  0.00    +0.000 C 
ENDBRANCH  15  20
ENDBRANCH   2  12
BRANCH   1  22
ATOM     22  O   UNL     1       3.024   7.168  17.396  0.00  0.00    +0.000 OA
BRANCH  22  23
ATOM     23  C   UNL     1       4.247   7.819  17.036  0.00  0.00    +0.000 C 
BRANCH  23  24
ATOM     24  C   UNL     1       5.031   6.874  16.136  0.00  0.00    +0.000 C 
BRANCH  24  25
ATOM     25  C   UNL     1       4.658   5.415  16.424  0.00  0.00    +0.000 C 
BRANCH  25  26
ATOM     26  N   UNL     1       5.818   4.507  16.614  0.00  0.00    +0.000 NA
BRANCH  26  27
ATOM     27  C   UNL     1       7.049   5.320  16.765  0.00  0.00    +0.000 C 
BRANCH  27  28
ATOM     28  C   UNL     1       7.649   5.364  18.187  0.00  0.00    +0.000 C 
BRANCH  28  29
ATOM     29  C   UNL     1       8.041   6.761  18.683  0.00  0.00    +0.000 C 
BRANCH  29  30
ATOM     30  C   UNL     1       7.838   7.836  17.615  0.00  0.00    +0.000 C 
ATOM     31  C   UNL     1       8.356   9.190  18.063  0.00  0.00    +0.000 C 
ENDBRANCH  29  30
ENDBRANCH  28  29
ENDBRANCH  27  28
ENDBRANCH  26  27
BRANCH  26  32
ATOM     32  C   UNL     1       5.915   3.598  15.448  0.00  0.00    +0.000 C 
BRANCH  32  33
ATOM     33  C   UNL     1       5.584   4.157  14.059  0.00  0.00    +0.000 C 
BRANCH  33  34
ATOM     34  C   UNL     1       6.647   3.895  12.989  0.00  0.00    +0.000 C 
BRANCH  34  36
ATOM     35  C   UNL     1       4.553   3.261  11.694  0.00  0.00    +0.000 C 
ATOM     36  C   UNL     1       6.041   3.028  11.881  0.00  0.00    +0.000 C 
ENDBRANCH  34  36
ENDBRANCH  33  34
ENDBRANCH  32  33
ENDBRANCH  26  32
ENDBRANCH  25  26
ENDBRANCH  24  25
ENDBRANCH  23  24
ENDBRANCH  22  23
ENDBRANCH   1  22
TORSDOF 16
ENDMDL
MODEL 2
REMARK VINA RESULT:      -6.4      2.228      7.868
REMARK  Name = 
REMARK  20 active torsions:
REMARK  status: ('A' for Active; 'I' for Inactive)
REMARK    1  A    between atoms: C_1  and  C_2
REMARK    2  A    between atoms: C_2  and  C_3
REMARK    3  A    between atoms: C_3  and  C_4
REMARK    4  A    between atoms: C_4  and  C_5
REMARK    5  A    between atoms: C_5  and  N_6
REMARK    6  A    between atoms: N_6  and  C_7
REMARK    7  A    between atoms: N_6  and  C_12
REMARK    8  A    between atoms: C_7  and  C_8
REMARK    9  A    between atoms: C_8  and  C_9
REMARK   10  A    between atoms: C_9  and  C_10
REMARK   11  A    between atoms: C_10  and  C_11
REMARK   12  A    between atoms: C_12  and  C_13
REMARK   13  A    between atoms: C_13  and  C_14
REMARK   14  A    between atoms: C_14  and  O_15
REMARK   15  A    between atoms: O_15  and  C_16
REMARK   16  A    between atoms: C_17  and  C_18
REMARK   17  A    between atoms: C_21  and  O_22
REMARK   18  A    between atoms: O_22  and  C_23
REMARK   19  A    between atoms: C_24  and  O_25
REMARK   20  A    between atoms: O_25  and  C_26
REMARK                            x       y       z     vdW  Elec       q    Type
REMARK                         _______ _______ _______ _____ _____    ______ ____
ROOT
ATOM      1  C   UNL     1       6.034   5.125  16.752  0.00  0.00    +0.000 A 
ATOM      2  C   UNL     1       5.266   4.053  16.481  0.00  0.00    +0.000 A 
ATOM      3  O   UNL     1       5.261   3.355  15.282  0.00  0.00    +0.000 OA
ATOM      4  C   UNL     1       6.029   3.827  14.255  0.00  0.00    +0.000 A 
ATOM      5  C   UNL     1       5.939   3.162  13.032  0.00  0.00    +0.000 A 
ATOM      6  C   UNL     1       6.689   3.609  11.942  0.00  0.00    +0.000 A 
ATOM      7  C   UNL     1       7.524   4.718  12.068  0.00  0.00    +0.000 A 
ATOM      8  C   UNL     1       7.619   5.379  13.293  0.00  0.00    +0.000 A 
ATOM      9  C   UNL     1       6.877   4.923  14.381  0.00  0.00    +0.000 A 
ATOM     10  C   UNL     1       6.973   5.590  15.686  0.00  0.00    +0.000 A 
ATOM     11  O   UNL     1       7.793   6.485  15.850  0.00  0.00    +0.000 OA
ENDROOT
BRANCH   2  12
ATOM     12  C   UNL     1       4.287   3.516  17.444  0.00  0.00    +0.000 A 
ATOM     13  C   UNL     1       2.931   3.440  17.128  0.00  0.00    +0.000 A 
ATOM     14  C   UNL     1       2.026   2.955  18.075  0.00  0.00    +0.000 A 
ATOM     15  C   UNL     1       2.449   2.542  19.350  0.00  0.00    +0.000 A 
ATOM     16  C   UNL     1       3.813   2.625  19.680  0.00  0.00    +0.000 A 
ATOM     17  C   UNL     1       4.717   3.108  18.717  0.00  0.00    +0.000 A 
BRANCH  16  18
ATOM     18  O   UNL     1       4.201   2.244  20.936  0.00  0.00    +0.000 OA
ATOM     19  C   UNL     1       5.168   1.212  21.066  0.00  0.00    +0.000 C 
ENDBRANCH  16  18
BRANCH  15  20
ATOM     20  O   UNL     1       1.405   2.096  20.120  0.00  0.00    +0.000 OA
ATOM     21  C   UNL     1       0.994   2.865  21.241  0.00  0.00    +0.000 C 
ENDBRANCH  15  20
ENDBRANCH   2  12
BRANCH   1  22
ATOM     22  O   UNL     1       5.954   5.755  17.979  0.00  0.00    +0.000 OA
BRANCH  22  23
ATOM     23  C   UNL     1       5.432   7.088  17.974  0.00  0.00    +0.000 C 
BRANCH  23  24
ATOM     24  C   UNL     1       3.961   7.012  17.588  0.00  0.00    +0.000 C 
BRANCH  24  25
ATOM     25  C   UNL     1       3.111   6.546  18.776  0.00  0.00    +0.000 C 
BRANCH  25  26
ATOM     26  N   UNL     1       2.017   7.477  19.156  0.00  0.00    +0.000 NA
BRANCH  26  27
ATOM     27  C   UNL     1       2.276   8.802  18.543  0.00  0.00    +0.000 C 
BRANCH  27  28
ATOM     28  C   UNL     1       1.028   9.560  18.041  0.00  0.00    +0.000 C 
BRANCH  28  29
ATOM     29  C   UNL     1       1.028  11.068  18.321  0.00  0.00    +0.000 C 
BRANCH  29  30
ATOM     30  C   UNL     1       0.181  11.434  19.540  0.00  0.00    +0.000 C 
ATOM     31  C   UNL     1       0.221  12.921  19.836  0.00  0.00    +0.000 C 
ENDBRANCH  29  30
ENDBRANCH  28  29
ENDBRANCH  27  28
ENDBRANCH  26  27
BRANCH  26  32
ATOM     32  C   UNL     1       1.956   7.572  20.633  0.00  0.00    +0.000 C 
BRANCH  32  33
ATOM     33  C   UNL     1       0.747   8.266  21.269  0.00  0.00    +0.000 C 
BRANCH  33  34
ATOM     34  C   UNL     1       1.090   9.323  22.322  0.00  0.00    +0.000 C 
BRANCH  34  36
ATOM     35  C   UNL     1      -0.989  10.635  22.968  0.00  0.00    +0.000 C 
ATOM     36  C   UNL     1      -0.084   9.462  23.297  0.00  0.00    +0.000 C 
ENDBRANCH  34  36
ENDBRANCH  33  34
ENDBRANCH  32  33
ENDBRANCH  26  32
ENDBRANCH  25  26
ENDBRANCH  24  25
ENDBRANCH  23  24
ENDBRANCH  22  23
ENDBRANCH   1  22
TORSDOF 16
ENDMDL
MODEL 3
REMARK VINA RESULT:      -6.3      2.942      8.438
REMARK  Name = 
REMARK  20 active torsions:
REMARK  status: ('A' for Active; 'I' for Inactive)
REMARK    1  A    between atoms: C_1  and  C_2
REMARK    2  A    between atoms: C_2  and  C_3
REMARK    3  A    between atoms: C_3  and  C_4
REMARK    4  A    between atoms: C_4  and  C_5
REMARK    5  A    between atoms: C_5  and  N_6
REMARK    6  A    between atoms: N_6  and  C_7
REMARK    7  A    between atoms: N_6  and  C_12
REMARK    8  A    between atoms: C_7  and  C_8
REMARK    9  A    between atoms: C_8  and  C_9
REMARK   10  A    between atoms: C_9  and  C_10
REMARK   11  A    between atoms: C_10  and  C_11
REMARK   12  A    between atoms: C_12  and  C_13
REMARK   13  A    between atoms: C_13  and  C_14
REMARK   14  A    between atoms: C_14  and  O_15
REMARK   15  A    between atoms: O_15  and  C_16
REMARK   16  A    between atoms: C_17  and  C_18
REMARK   17  A    between atoms: C_21  and  O_22
REMARK   18  A    between atoms: O_22  and  C_23
REMARK   19  A    between atoms: C_24  and  O_25
REMARK   20  A    between atoms: O_25  and  C_26
REMARK                            x       y       z     vdW  Elec       q    Type
REMARK                         _______ _______ _______ _____ _____    ______ ____
ROOT
ATOM      1  C   UNL     1       3.254   6.094  18.825  0.00  0.00    +0.000 A 
ATOM      2  C   UNL     1       3.917   5.057  18.280  0.00  0.00    +0.000 A 
ATOM      3  O   UNL     1       3.776   3.730  18.659  0.00  0.00    +0.000 OA
ATOM      4  C   UNL     1       2.965   3.442  19.721  0.00  0.00    +0.000 A 
ATOM      5  C   UNL     1       2.909   2.112  20.140  0.00  0.00    +0.000 A 
ATOM      6  C   UNL     1       2.110   1.761  21.230  0.00  0.00    +0.000 A 
ATOM      7  C   UNL     1       1.371   2.732  21.904  0.00  0.00    +0.000 A 
ATOM      8  C   UNL     1       1.422   4.061  21.481  0.00  0.00    +0.000 A 
ATOM      9  C   UNL     1       2.213   4.405  20.386  0.00  0.00    +0.000 A 
ATOM     10  C   UNL     1       2.269   5.793  19.909  0.00  0.00    +0.000 A 
ATOM     11  O   UNL     1       1.532   6.635  20.408  0.00  0.00    +0.000 OA
ENDROOT
BRANCH   2  12
ATOM     12  C   UNL     1       4.927   5.232  17.221  0.00  0.00    +0.000 A 
ATOM     13  C   UNL     1       4.889   4.470  16.054  0.00  0.00    +0.000 A 
ATOM     14  C   UNL     1       5.879   4.639  15.084  0.00  0.00    +0.000 A 
ATOM     15  C   UNL     1       6.923   5.563  15.256  0.00  0.00    +0.000 A 
ATOM     16  C   UNL     1       6.976   6.328  16.434  0.00  0.00    +0.000 A 
ATOM     17  C   UNL     1       5.970   6.155  17.401  0.00  0.00    +0.000 A 
BRANCH  16  18
ATOM     18  O   UNL     1       8.017   7.202  16.594  0.00  0.00    +0.000 OA
ATOM     19  C   UNL     1       7.910   8.212  17.587  0.00  0.00    +0.000 C 
ENDBRANCH  16  18
BRANCH  15  20
ATOM     20  O   UNL     1       7.782   5.575  14.186  0.00  0.00    +0.000 OA
ATOM     21  C   UNL     1       7.430   4.865  13.007  0.00  0.00    +0.000 C 
ENDBRANCH  15  20
ENDBRANCH   2  12
BRANCH   1  22
ATOM     22  O   UNL     1       3.476   7.383  18.380  0.00  0.00    +0.000 OA
BRANCH  22  23
ATOM     23  C   UNL     1       2.398   8.004  17.671  0.00  0.00    +0.000 C 
BRANCH  23  24
ATOM     24  C   UNL     1       2.361   9.473  18.071  0.00  0.00    +0.000 C 
BRANCH  24  25
ATOM     25  C   UNL     1       0.932  10.022  17.991  0.00  0.00    +0.000 C 
BRANCH  25  26
ATOM     26  N   UNL     1       0.196  10.021  19.281  0.00  0.00    +0.000 NA
BRANCH  26  27
ATOM     27  C   UNL     1      -1.251  10.202  19.014  0.00  0.00    +0.000 C 
BRANCH  27  28
ATOM     28  C   UNL     1      -1.694   9.968  17.553  0.00  0.00    +0.000 C 
BRANCH  28  29
ATOM     29  C   UNL     1      -2.360  11.172  16.876  0.00  0.00    +0.000 C 
BRANCH  29  30
ATOM     30  C   UNL     1      -3.600  10.777  16.075  0.00  0.00    +0.000 C 
ATOM     31  C   UNL     1      -3.242  10.188  14.723  0.00  0.00    +0.000 C 
ENDBRANCH  29  30
ENDBRANCH  28  29
ENDBRANCH  27  28
ENDBRANCH  26  27
BRANCH  26  32
ATOM     32  C   UNL     1       0.724  11.109  20.138  0.00  0.00    +0.000 C 
BRANCH  32  33
ATOM     33  C   UNL     1      -0.228  12.237  20.551  0.00  0.00    +0.000 C 
BRANCH  33  34
ATOM     34  C   UNL     1      -0.748  12.146  21.989  0.00  0.00    +0.000 C 
BRANCH  34  36
ATOM     35  C   UNL     1      -2.886  12.148  23.362  0.00  0.00    +0.000 C 
ATOM     36  C   UNL     1      -2.271  12.307  21.984  0.00  0.00    +0.000 C 
ENDBRANCH  34  36
ENDBRANCH  33  34
ENDBRANCH  32  33
ENDBRANCH  26  32
ENDBRANCH  25  26
ENDBRANCH  24  25
ENDBRANCH  23  24
ENDBRANCH  22  23
ENDBRANCH   1  22
TORSDOF 16
ENDMDL
MODEL 4
REMARK VINA RESULT:      -6.3      2.958      7.811
REMARK  Name = 
REMARK  20 active torsions:
REMARK  status: ('A' for Active; 'I' for Inactive)
REMARK    1  A    between atoms: C_1  and  C_2
REMARK    2  A    between atoms: C_2  and  C_3
REMARK    3  A    between atoms: C_3  and  C_4
REMARK    4  A    between atoms: C_4  and  C_5
REMARK    5  A    between atoms: C_5  and  N_6
REMARK    6  A    between atoms: N_6  and  C_7
REMARK    7  A    between atoms: N_6  and  C_12
REMARK    8  A    between atoms: C_7  and  C_8
REMARK    9  A    between atoms: C_8  and  C_9
REMARK   10  A    between atoms: C_9  and  C_10
REMARK   11  A    between atoms: C_10  and  C_11
REMARK   12  A    between atoms: C_12  and  C_13
REMARK   13  A    between atoms: C_13  and  C_14
REMARK   14  A    between atoms: C_14  and  O_15
REMARK   15  A    between atoms: O_15  and  C_16
REMARK   16  A    between atoms: C_17  and  C_18
REMARK   17  A    between atoms: C_21  and  O_22
REMARK   18  A    between atoms: O_22  and  C_23
REMARK   19  A    between atoms: C_24  and  O_25
REMARK   20  A    between atoms: O_25  and  C_26
REMARK                            x       y       z     vdW  Elec       q    Type
REMARK                         _______ _______ _______ _____ _____    ______ ____
ROOT
ATOM      1  C   UNL     1       3.235   6.083  18.802  0.00  0.00    +0.000 A 
ATOM      2  C   UNL     1       3.957   5.053  18.322  0.00  0.00    +0.000 A 
ATOM      3  O   UNL     1       3.879   3.743  18.772  0.00  0.00    +0.000 OA
ATOM      4  C   UNL     1       3.071   3.473  19.840  0.00  0.00    +0.000 A 
ATOM      5  C   UNL     1       3.078   2.166  20.332  0.00  0.00    +0.000 A 
ATOM      6  C   UNL     1       2.285   1.835  21.431  0.00  0.00    +0.000 A 
ATOM      7  C   UNL     1       1.488   2.801  22.044  0.00  0.00    +0.000 A 
ATOM      8  C   UNL     1       1.476   4.106  21.549  0.00  0.00    +0.000 A 
ATOM      9  C   UNL     1       2.262   4.430  20.444  0.00  0.00    +0.000 A 
ATOM     10  C   UNL     1       2.253   5.791  19.891  0.00  0.00    +0.000 A 
ATOM     11  O   UNL     1       1.468   6.620  20.336  0.00  0.00    +0.000 OA
ENDROOT
BRANCH   2  12
ATOM     12  C   UNL     1       4.970   5.222  17.265  0.00  0.00    +0.000 A 
ATOM     13  C   UNL     1       4.968   4.415  16.127  0.00  0.00    +0.000 A 
ATOM     14  C   UNL     1       5.960   4.581  15.159  0.00  0.00    +0.000 A 
ATOM     15  C   UNL     1       6.972   5.546  15.303  0.00  0.00    +0.000 A 
ATOM     16  C   UNL     1       6.988   6.356  16.452  0.00  0.00    +0.000 A 
ATOM     17  C   UNL     1       5.979   6.186  17.417  0.00  0.00    +0.000 A 
BRANCH  16  18
ATOM     18  O   UNL     1       7.998   7.270  16.587  0.00  0.00    +0.000 OA
ATOM     19  C   UNL     1       8.041   8.068  17.762  0.00  0.00    +0.000 C 
ENDBRANCH  16  18
BRANCH  15  20
ATOM     20  O   UNL     1       7.839   5.547  14.240  0.00  0.00    +0.000 OA
ATOM     21  C   UNL     1       7.445   4.928  13.024  0.00  0.00    +0.000 C 
ENDBRANCH  15  20
ENDBRANCH   2  12
BRANCH   1  22
ATOM     22  O   UNL     1       3.396   7.356  18.288  0.00  0.00    +0.000 OA
BRANCH  22  23
ATOM     23  C   UNL     1       2.262   7.918  17.620  0.00  0.00    +0.000 C 
BRANCH  23  24
ATOM     24  C   UNL     1       2.202   9.399  17.968  0.00  0.00    +0.000 C 
BRANCH  24  25
ATOM     25  C   UNL     1       1.052   9.681  18.942  0.00  0.00    +0.000 C 
BRANCH  25  26
ATOM     26  N   UNL     1       0.209  10.850  18.581  0.00  0.00    +0.000 NA
BRANCH  26  27
ATOM     27  C   UNL     1      -0.179  11.568  19.819  0.00  0.00    +0.000 C 
BRANCH  27  28
ATOM     28  C   UNL     1      -0.755  10.686  20.949  0.00  0.00    +0.000 C 
BRANCH  28  29
ATOM     29  C   UNL     1      -0.321  11.082  22.365  0.00  0.00    +0.000 C 
BRANCH  29  30
ATOM     30  C   UNL     1      -1.138  12.249  22.920  0.00  0.00    +0.000 C 
ATOM     31  C   UNL     1      -2.609  12.133  22.569  0.00  0.00    +0.000 C 
ENDBRANCH  29  30
ENDBRANCH  28  29
ENDBRANCH  27  28
ENDBRANCH  26  27
BRANCH  26  32
ATOM     32  C   UNL     1      -0.983  10.375  17.840  0.00  0.00    +0.000 C 
BRANCH  32  33
ATOM     33  C   UNL     1      -2.165  11.336  17.669  0.00  0.00    +0.000 C 
BRANCH  33  34
ATOM     34  C   UNL     1      -3.447  10.691  17.136  0.00  0.00    +0.000 C 
BRANCH  34  36
ATOM     35  C   UNL     1      -2.987  10.232  14.678  0.00  0.00    +0.000 C 
ATOM     36  C   UNL     1      -3.082   9.647  16.076  0.00  0.00    +0.000 C 
ENDBRANCH  34  36
ENDBRANCH  33  34
ENDBRANCH  32  33
ENDBRANCH  26  32
ENDBRANCH  25  26
ENDBRANCH  24  25
ENDBRANCH  23  24
ENDBRANCH  22  23
ENDBRANCH   1  22
TORSDOF 16
ENDMDL
MODEL 5
REMARK VINA RESULT:      -6.2      1.405      2.076
REMARK  Name = 
REMARK  20 active torsions:
REMARK  status: ('A' for Active; 'I' for Inactive)
REMARK    1  A    between atoms: C_1  and  C_2
REMARK    2  A    between atoms: C_2  and  C_3
REMARK    3  A    between atoms: C_3  and  C_4
REMARK    4  A    between atoms: C_4  and  C_5
REMARK    5  A    between atoms: C_5  and  N_6
REMARK    6  A    between atoms: N_6  and  C_7
REMARK    7  A    between atoms: N_6  and  C_12
REMARK    8  A    between atoms: C_7  and  C_8
REMARK    9  A    between atoms: C_8  and  C_9
REMARK   10  A    between atoms: C_9  and  C_10
REMARK   11  A    between atoms: C_10  and  C_11
REMARK   12  A    between atoms: C_12  and  C_13
REMARK   13  A    between atoms: C_13  and  C_14
REMARK   14  A    between atoms: C_14  and  O_15
REMARK   15  A    between atoms: O_15  and  C_16
REMARK   16  A    between atoms: C_17  and  C_18
REMARK   17  A    between atoms: C_21  and  O_22
REMARK   18  A    between atoms: O_22  and  C_23
REMARK   19  A    between atoms: C_24  and  O_25
REMARK   20  A    between atoms: O_25  and  C_26
REMARK                            x       y       z     vdW  Elec       q    Type
REMARK                         _______ _______ _______ _____ _____    ______ ____
ROOT
ATOM      1  C   UNL     1       1.782   8.081  18.876  0.00  0.00    +0.000 A 
ATOM      2  C   UNL     1       1.598   7.191  19.870  0.00  0.00    +0.000 A 
ATOM      3  O   UNL     1       0.970   7.459  21.077  0.00  0.00    +0.000 OA
ATOM      4  C   UNL     1       0.570   8.742  21.328  0.00  0.00    +0.000 A 
ATOM      5  C   UNL     1       0.022   9.005  22.584  0.00  0.00    +0.000 A 
ATOM      6  C   UNL     1      -0.389  10.301  22.904  0.00  0.00    +0.000 A 
ATOM      7  C   UNL     1      -0.251  11.333  21.977  0.00  0.00    +0.000 A 
ATOM      8  C   UNL     1       0.291  11.068  20.719  0.00  0.00    +0.000 A 
ATOM      9  C   UNL     1       0.690   9.771  20.401  0.00  0.00    +0.000 A 
ATOM     10  C   UNL     1       1.247   9.462  19.076  0.00  0.00    +0.000 A 
ATOM     11  O   UNL     1       1.259  10.327  18.208  0.00  0.00    +0.000 OA
ENDROOT
BRANCH   2  12
ATOM     12  C   UNL     1       2.101   5.808  19.795  0.00  0.00    +0.000 A 
ATOM     13  C   UNL     1       2.516   5.254  18.585  0.00  0.00    +0.000 A 
ATOM     14  C   UNL     1       2.958   3.930  18.544  0.00  0.00    +0.000 A 
ATOM     15  C   UNL     1       2.992   3.133  19.701  0.00  0.00    +0.000 A 
ATOM     16  C   UNL     1       2.566   3.679  20.924  0.00  0.00    +0.000 A 
ATOM     17  C   UNL     1       2.129   5.016  20.955  0.00  0.00    +0.000 A 
BRANCH  16  18
ATOM     18  O   UNL     1       2.580   2.877  22.033  0.00  0.00    +0.000 OA
ATOM     19  C   UNL     1       1.402   2.157  22.367  0.00  0.00    +0.000 C 
ENDBRANCH  16  18
BRANCH  15  20
ATOM     20  O   UNL     1       3.463   1.870  19.443  0.00  0.00    +0.000 OA
ATOM     21  C   UNL     1       3.572   1.433  18.096  0.00  0.00    +0.000 C 
ENDBRANCH  15  20
ENDBRANCH   2  12
BRANCH   1  22
ATOM     22  O   UNL     1       2.433   7.713  17.713  0.00  0.00    +0.000 OA
BRANCH  22  23
ATOM     23  C   UNL     1       3.704   8.328  17.477  0.00  0.00    +0.000 C 
BRANCH  23  24
ATOM     24  C   UNL     1       4.633   7.272  16.895  0.00  0.00    +0.000 C 
BRANCH  24  25
ATOM     25  C   UNL     1       5.465   6.612  18.001  0.00  0.00    +0.000 C 
BRANCH  25  26
ATOM     26  N   UNL     1       6.921   6.533  17.715  0.00  0.00    +0.000 NA
BRANCH  26  27
ATOM     27  C   UNL     1       7.427   7.893  17.408  0.00  0.00    +0.000 C 
BRANCH  27  28
ATOM     28  C   UNL     1       8.447   8.468  18.416  0.00  0.00    +0.000 C 
BRANCH  28  29
ATOM     29  C   UNL     1       8.623   9.991  18.362  0.00  0.00    +0.000 C 
BRANCH  29  30
ATOM     30  C   UNL     1       9.816  10.469  19.190  0.00  0.00    +0.000 C 
ATOM     31  C   UNL     1       9.438  11.589  20.140  0.00  0.00    +0.000 C 
ENDBRANCH  29  30
ENDBRANCH  28  29
ENDBRANCH  27  28
ENDBRANCH  26  27
BRANCH  26  32
ATOM     32  C   UNL     1       7.140   5.610  16.577  0.00  0.00    +0.000 C 
BRANCH  32  33
ATOM     33  C   UNL     1       6.552   4.197  16.663  0.00  0.00    +0.000 C 
BRANCH  33  34
ATOM     34  C   UNL     1       5.754   3.755  15.433  0.00  0.00    +0.000 C 
BRANCH  34  36
ATOM     35  C   UNL     1       5.819   3.743  12.892  0.00  0.00    +0.000 C 
ATOM     36  C   UNL     1       6.462   4.253  14.168  0.00  0.00    +0.000 C 
ENDBRANCH  34  36
ENDBRANCH  33  34
ENDBRANCH  32  33
ENDBRANCH  26  32
ENDBRANCH  25  26
ENDBRANCH  24  25
ENDBRANCH  23  24
ENDBRANCH  22  23
ENDBRANCH   1  22
TORSDOF 16
ENDMDL
MODEL 6
REMARK VINA RESULT:      -6.2      3.826      8.122
REMARK  Name = 
REMARK  20 active torsions:
REMARK  status: ('A' for Active; 'I' for Inactive)
REMARK    1  A    between atoms: C_1  and  C_2
REMARK    2  A    between atoms: C_2  and  C_3
REMARK    3  A    between atoms: C_3  and  C_4
REMARK    4  A    between atoms: C_4  and  C_5
REMARK    5  A    between atoms: C_5  and  N_6
REMARK    6  A    between atoms: N_6  and  C_7
REMARK    7  A    between atoms: N_6  and  C_12
REMARK    8  A    between atoms: C_7  and  C_8
REMARK    9  A    between atoms: C_8  and  C_9
REMARK   10  A    between atoms: C_9  and  C_10
REMARK   11  A    between atoms: C_10  and  C_11
REMARK   12  A    between atoms: C_12  and  C_13
REMARK   13  A    between atoms: C_13  and  C_14
REMARK   14  A    between atoms: C_14  and  O_15
REMARK   15  A    between atoms: O_15  and  C_16
REMARK   16  A    between atoms: C_17  and  C_18
REMARK   17  A    between atoms: C_21  and  O_22
REMARK   18  A    between atoms: O_22  and  C_23
REMARK   19  A    between atoms: C_24  and  O_25
REMARK   20  A    between atoms: O_25  and  C_26
REMARK                            x       y       z     vdW  Elec       q    Type
REMARK                         _______ _______ _______ _____ _____    ______ ____
ROOT
ATOM      1  C   UNL     1       0.668  12.155  19.432  0.00  0.00    +0.000 A 
ATOM      2  C   UNL     1       0.045  13.166  20.066  0.00  0.00    +0.000 A 
ATOM      3  O   UNL     1       0.472  14.486  20.078  0.00  0.00    +0.000 OA
ATOM      4  C   UNL     1       1.659  14.789  19.473  0.00  0.00    +0.000 A 
ATOM      5  C   UNL     1       2.111  16.105  19.576  0.00  0.00    +0.000 A 
ATOM      6  C   UNL     1       3.325  16.470  18.991  0.00  0.00    +0.000 A 
ATOM      7  C   UNL     1       4.091  15.526  18.309  0.00  0.00    +0.000 A 
ATOM      8  C   UNL     1       3.636  14.211  18.200  0.00  0.00    +0.000 A 
ATOM      9  C   UNL     1       2.417  13.854  18.776  0.00  0.00    +0.000 A 
ATOM     10  C   UNL     1       1.907  12.481  18.660  0.00  0.00    +0.000 A 
ATOM     11  O   UNL     1       2.502  11.672  17.959  0.00  0.00    +0.000 OA
ENDROOT
BRANCH   2  12
ATOM     12  C   UNL     1      -1.170  12.963  20.875  0.00  0.00    +0.000 A 
ATOM     13  C   UNL     1      -1.089  12.601  22.219  0.00  0.00    +0.000 A 
ATOM     14  C   UNL     1      -2.260  12.386  22.949  0.00  0.00    +0.000 A 
ATOM     15  C   UNL     1      -3.528  12.524  22.360  0.00  0.00    +0.000 A 
ATOM     16  C   UNL     1      -3.618  12.878  21.002  0.00  0.00    +0.000 A 
ATOM     17  C   UNL     1      -2.433  13.099  20.278  0.00  0.00    +0.000 A 
BRANCH  16  18
ATOM     18  O   UNL     1      -4.862  12.980  20.439  0.00  0.00    +0.000 OA
ATOM     19  C   UNL     1      -5.253  12.011  19.476  0.00  0.00    +0.000 C 
ENDBRANCH  16  18
BRANCH  15  20
ATOM     20  O   UNL     1      -4.541  12.274  23.250  0.00  0.00    +0.000 OA
ATOM     21  C   UNL     1      -4.322  12.513  24.633  0.00  0.00    +0.000 C 
ENDBRANCH  15  20
ENDBRANCH   2  12
BRANCH   1  22
ATOM     22  O   UNL     1       0.165  10.870  19.491  0.00  0.00    +0.000 OA
BRANCH  22  23
ATOM     23  C   UNL     1       0.824   9.971  20.389  0.00  0.00    +0.000 C 
BRANCH  23  24
ATOM     24  C   UNL     1       1.344   8.795  19.574  0.00  0.00    +0.000 C 
BRANCH  24  25
ATOM     25  C   UNL     1       1.851   7.678  20.496  0.00  0.00    +0.000 C 
BRANCH  25  26
ATOM     26  N   UNL     1       1.934   6.340  19.857  0.00  0.00    +0.000 NA
BRANCH  26  27
ATOM     27  C   UNL     1       1.566   5.305  20.852  0.00  0.00    +0.000 C 
BRANCH  27  28
ATOM     28  C   UNL     1       1.124   3.945  20.269  0.00  0.00    +0.000 C 
BRANCH  28  29
ATOM     29  C   UNL     1       2.044   2.765  20.606  0.00  0.00    +0.000 C 
BRANCH  29  30
ATOM     30  C   UNL     1       2.642   2.118  19.357  0.00  0.00    +0.000 C 
ATOM     31  C   UNL     1       1.834   2.429  18.111  0.00  0.00    +0.000 C 
ENDBRANCH  29  30
ENDBRANCH  28  29
ENDBRANCH  27  28
ENDBRANCH  26  27
BRANCH  26  32
ATOM     32  C   UNL     1       3.312   6.132  19.351  0.00  0.00    +0.000 C 
BRANCH  32  33
ATOM     33  C   UNL     1       3.544   6.167  17.836  0.00  0.00    +0.000 C 
BRANCH  33  34
ATOM     34  C   UNL     1       4.221   4.921  17.259  0.00  0.00    +0.000 C 
BRANCH  34  36
ATOM     35  C   UNL     1       5.812   4.160  15.428  0.00  0.00    +0.000 C 
ATOM     36  C   UNL     1       5.181   5.342  16.142  0.00  0.00    +0.000 C 
ENDBRANCH  34  36
ENDBRANCH  33  34
ENDBRANCH  32  33
ENDBRANCH  26  32
ENDBRANCH  25  26
ENDBRANCH  24  25
ENDBRANCH  23  24
ENDBRANCH  22  23
ENDBRANCH   1  22
TORSDOF 16
ENDMDL
MODEL 7
REMARK VINA RESULT:      -6.2      2.669      7.931
REMARK  Name = 
REMARK  20 active torsions:
REMARK  status: ('A' for Active; 'I' for Inactive)
REMARK    1  A    between atoms: C_1  and  C_2
REMARK    2  A    between atoms: C_2  and  C_3
REMARK    3  A    between atoms: C_3  and  C_4
REMARK    4  A    between atoms: C_4  and  C_5
REMARK    5  A    between atoms: C_5  and  N_6
REMARK    6  A    between atoms: N_6  and  C_7
REMARK    7  A    between atoms: N_6  and  C_12
REMARK    8  A    between atoms: C_7  and  C_8
REMARK    9  A    between atoms: C_8  and  C_9
REMARK   10  A    between atoms: C_9  and  C_10
REMARK   11  A    between atoms: C_10  and  C_11
REMARK   12  A    between atoms: C_12  and  C_13
REMARK   13  A    between atoms: C_13  and  C_14
REMARK   14  A    between atoms: C_14  and  O_15
REMARK   15  A    between atoms: O_15  and  C_16
REMARK   16  A    between atoms: C_17  and  C_18
REMARK   17  A    between atoms: C_21  and  O_22
REMARK   18  A    between atoms: O_22  and  C_23
REMARK   19  A    between atoms: C_24  and  O_25
REMARK   20  A    between atoms: O_25  and  C_26
REMARK                            x       y       z     vdW  Elec       q    Type
REMARK                         _______ _______ _______ _____ _____    ______ ____
ROOT
ATOM      1  C   UNL     1       3.254   6.087  18.776  0.00  0.00    +0.000 A 
ATOM      2  C   UNL     1       3.944   5.052  18.261  0.00  0.00    +0.000 A 
ATOM      3  O   UNL     1       3.824   3.731  18.666  0.00  0.00    +0.000 OA
ATOM      4  C   UNL     1       3.007   3.449  19.724  0.00  0.00    +0.000 A 
ATOM      5  C   UNL     1       2.972   2.127  20.171  0.00  0.00    +0.000 A 
ATOM      6  C   UNL     1       2.168   1.783  21.259  0.00  0.00    +0.000 A 
ATOM      7  C   UNL     1       1.403   2.753  21.905  0.00  0.00    +0.000 A 
ATOM      8  C   UNL     1       1.432   4.074  21.454  0.00  0.00    +0.000 A 
ATOM      9  C   UNL     1       2.229   4.410  20.361  0.00  0.00    +0.000 A 
ATOM     10  C   UNL     1       2.263   5.790  19.855  0.00  0.00    +0.000 A 
ATOM     11  O   UNL     1       1.504   6.627  20.328  0.00  0.00    +0.000 OA
ENDROOT
BRANCH   2  12
ATOM     12  C   UNL     1       4.962   5.225  17.209  0.00  0.00    +0.000 A 
ATOM     13  C   UNL     1       4.955   4.435  16.060  0.00  0.00    +0.000 A 
ATOM     14  C   UNL     1       5.953   4.604  15.098  0.00  0.00    +0.000 A 
ATOM     15  C   UNL     1       6.974   5.555  15.259  0.00  0.00    +0.000 A 
ATOM     16  C   UNL     1       6.995   6.349  16.419  0.00  0.00    +0.000 A 
ATOM     17  C   UNL     1       5.981   6.176  17.379  0.00  0.00    +0.000 A 
BRANCH  16  18
ATOM     18  O   UNL     1       8.014   7.250  16.570  0.00  0.00    +0.000 OA
ATOM     19  C   UNL     1       7.947   8.179  17.643  0.00  0.00    +0.000 C 
ENDBRANCH  16  18
BRANCH  15  20
ATOM     20  O   UNL     1       7.845   5.561  14.199  0.00  0.00    +0.000 OA
ATOM     21  C   UNL     1       7.473   4.908  12.994  0.00  0.00    +0.000 C 
ENDBRANCH  15  20
ENDBRANCH   2  12
BRANCH   1  22
ATOM     22  O   UNL     1       3.456   7.371  18.306  0.00  0.00    +0.000 OA
BRANCH  22  23
ATOM     23  C   UNL     1       2.353   7.978  17.625  0.00  0.00    +0.000 C 
BRANCH  23  24
ATOM     24  C   UNL     1       2.114   9.346  18.250  0.00  0.00    +0.000 C 
BRANCH  24  25
ATOM     25  C   UNL     1       0.653   9.777  18.070  0.00  0.00    +0.000 C 
BRANCH  25  26
ATOM     26  N   UNL     1       0.121  10.629  19.165  0.00  0.00    +0.000 NA
BRANCH  26  27
ATOM     27  C   UNL     1       1.165  11.601  19.572  0.00  0.00    +0.000 C 
BRANCH  27  28
ATOM     28  C   UNL     1       0.695  13.065  19.714  0.00  0.00    +0.000 C 
BRANCH  28  29
ATOM     29  C   UNL     1       1.319  14.046  18.714  0.00  0.00    +0.000 C 
BRANCH  29  30
ATOM     30  C   UNL     1       2.638  14.631  19.217  0.00  0.00    +0.000 C 
ATOM     31  C   UNL     1       3.795  14.309  18.291  0.00  0.00    +0.000 C 
ENDBRANCH  29  30
ENDBRANCH  28  29
ENDBRANCH  27  28
ENDBRANCH  26  27
BRANCH  26  32
ATOM     32  C   UNL     1      -0.278   9.763  20.299  0.00  0.00    +0.000 C 
BRANCH  32  33
ATOM     33  C   UNL     1       0.498   9.884  21.615  0.00  0.00    +0.000 C 
BRANCH  33  34
ATOM     34  C   UNL     1      -0.361  10.193  22.844  0.00  0.00    +0.000 C 
BRANCH  34  36
ATOM     35  C   UNL     1      -1.048  12.640  22.907  0.00  0.00    +0.000 C 
ATOM     36  C   UNL     1      -1.420  11.236  22.468  0.00  0.00    +0.000 C 
ENDBRANCH  34  36
ENDBRANCH  33  34
ENDBRANCH  32  33
ENDBRANCH  26  32
ENDBRANCH  25  26
ENDBRANCH  24  25
ENDBRANCH  23  24
ENDBRANCH  22  23
ENDBRANCH   1  22
TORSDOF 16
ENDMDL
MODEL 8
REMARK VINA RESULT:      -6.2      3.908      8.132
REMARK  Name = 
REMARK  20 active torsions:
REMARK  status: ('A' for Active; 'I' for Inactive)
REMARK    1  A    between atoms: C_1  and  C_2
REMARK    2  A    between atoms: C_2  and  C_3
REMARK    3  A    between atoms: C_3  and  C_4
REMARK    4  A    between atoms: C_4  and  C_5
REMARK    5  A    between atoms: C_5  and  N_6
REMARK    6  A    between atoms: N_6  and  C_7
REMARK    7  A    between atoms: N_6  and  C_12
REMARK    8  A    between atoms: C_7  and  C_8
REMARK    9  A    between atoms: C_8  and  C_9
REMARK   10  A    between atoms: C_9  and  C_10
REMARK   11  A    between atoms: C_10  and  C_11
REMARK   12  A    between atoms: C_12  and  C_13
REMARK   13  A    between atoms: C_13  and  C_14
REMARK   14  A    between atoms: C_14  and  O_15
REMARK   15  A    between atoms: O_15  and  C_16
REMARK   16  A    between atoms: C_17  and  C_18
REMARK   17  A    between atoms: C_21  and  O_22
REMARK   18  A    between atoms: O_22  and  C_23
REMARK   19  A    between atoms: C_24  and  O_25
REMARK   20  A    between atoms: O_25  and  C_26
REMARK                            x       y       z     vdW  Elec       q    Type
REMARK                         _______ _______ _______ _____ _____    ______ ____
ROOT
ATOM      1  C   UNL     1      -0.608  10.912  19.338  0.00  0.00    +0.000 A 
ATOM      2  C   UNL     1      -1.589  11.712  19.796  0.00  0.00    +0.000 A 
ATOM      3  O   UNL     1      -2.800  11.939  19.157  0.00  0.00    +0.000 OA
ATOM      4  C   UNL     1      -2.997  11.379  17.926  0.00  0.00    +0.000 A 
ATOM      5  C   UNL     1      -4.185  11.694  17.265  0.00  0.00    +0.000 A 
ATOM      6  C   UNL     1      -4.435  11.165  15.997  0.00  0.00    +0.000 A 
ATOM      7  C   UNL     1      -3.503  10.326  15.387  0.00  0.00    +0.000 A 
ATOM      8  C   UNL     1      -2.319  10.005  16.051  0.00  0.00    +0.000 A 
ATOM      9  C   UNL     1      -2.079  10.528  17.321  0.00  0.00    +0.000 A 
ATOM     10  C   UNL     1      -0.848  10.191  18.050  0.00  0.00    +0.000 A 
ATOM     11  O   UNL     1      -0.078   9.359  17.585  0.00  0.00    +0.000 OA
ENDROOT
BRANCH   2  12
ATOM     12  C   UNL     1      -1.459  12.489  21.041  0.00  0.00    +0.000 A 
ATOM     13  C   UNL     1      -0.403  13.381  21.228  0.00  0.00    +0.000 A 
ATOM     14  C   UNL     1      -0.293  14.079  22.433  0.00  0.00    +0.000 A 
ATOM     15  C   UNL     1      -1.223  13.904  23.470  0.00  0.00    +0.000 A 
ATOM     16  C   UNL     1      -2.285  12.999  23.294  0.00  0.00    +0.000 A 
ATOM     17  C   UNL     1      -2.391  12.307  22.075  0.00  0.00    +0.000 A 
BRANCH  16  18
ATOM     18  O   UNL     1      -3.164  12.822  24.328  0.00  0.00    +0.000 OA
ATOM     19  C   UNL     1      -4.543  13.080  24.100  0.00  0.00    +0.000 C 
ENDBRANCH  16  18
BRANCH  15  20
ATOM     20  O   UNL     1      -0.934  14.687  24.560  0.00  0.00    +0.000 OA
ATOM     21  C   UNL     1      -1.708  15.853  24.800  0.00  0.00    +0.000 C 
ENDBRANCH  15  20
ENDBRANCH   2  12
BRANCH   1  22
ATOM     22  O   UNL     1       0.568  10.762  20.048  0.00  0.00    +0.000 OA
BRANCH  22  23
ATOM     23  C   UNL     1       0.663   9.599  20.878  0.00  0.00    +0.000 C 
BRANCH  23  24
ATOM     24  C   UNL     1       1.566   8.596  20.173  0.00  0.00    +0.000 C 
BRANCH  24  25
ATOM     25  C   UNL     1       1.639   7.283  20.963  0.00  0.00    +0.000 C 
BRANCH  25  26
ATOM     26  N   UNL     1       2.161   6.126  20.191  0.00  0.00    +0.000 NA
BRANCH  26  27
ATOM     27  C   UNL     1       2.391   6.546  18.787  0.00  0.00    +0.000 C 
BRANCH  27  28
ATOM     28  C   UNL     1       3.367   5.663  17.978  0.00  0.00    +0.000 C 
BRANCH  28  29
ATOM     29  C   UNL     1       4.853   5.899  18.275  0.00  0.00    +0.000 C 
BRANCH  29  30
ATOM     30  C   UNL     1       5.503   6.852  17.272  0.00  0.00    +0.000 C 
ATOM     31  C   UNL     1       7.016   6.751  17.287  0.00  0.00    +0.000 C 
ENDBRANCH  29  30
ENDBRANCH  28  29
ENDBRANCH  27  28
ENDBRANCH  26  27
BRANCH  26  32
ATOM     32  C   UNL     1       1.182   5.016  20.265  0.00  0.00    +0.000 C 
BRANCH  32  33
ATOM     33  C   UNL     1       1.703   3.578  20.172  0.00  0.00    +0.000 C 
BRANCH  33  34
ATOM     34  C   UNL     1       1.032   2.717  19.098  0.00  0.00    +0.000 C 
BRANCH  34  36
ATOM     35  C   UNL     1       3.416   1.902  18.768  0.00  0.00    +0.000 C 
ATOM     36  C   UNL     1       2.093   2.235  18.104  0.00  0.00    +0.000 C 
ENDBRANCH  34  36
ENDBRANCH  33  34
ENDBRANCH  32  33
ENDBRANCH  26  32
ENDBRANCH  25  26
ENDBRANCH  24  25
ENDBRANCH  23  24
ENDBRANCH  22  23
ENDBRANCH   1  22
TORSDOF 16
ENDMDL
MODEL 9
REMARK VINA RESULT:      -6.1      3.071      7.659
REMARK  Name = 
REMARK  20 active torsions:
REMARK  status: ('A' for Active; 'I' for Inactive)
REMARK    1  A    between atoms: C_1  and  C_2
REMARK    2  A    between atoms: C_2  and  C_3
REMARK    3  A    between atoms: C_3  and  C_4
REMARK    4  A    between atoms: C_4  and  C_5
REMARK    5  A    between atoms: C_5  and  N_6
REMARK    6  A    between atoms: N_6  and  C_7
REMARK    7  A    between atoms: N_6  and  C_12
REMARK    8  A    between atoms: C_7  and  C_8
REMARK    9  A    between atoms: C_8  and  C_9
REMARK   10  A    between atoms: C_9  and  C_10
REMARK   11  A    between atoms: C_10  and  C_11
REMARK   12  A    between atoms: C_12  and  C_13
REMARK   13  A    between atoms: C_13  and  C_14
REMARK   14  A    between atoms: C_14  and  O_15
REMARK   15  A    between atoms: O_15  and  C_16
REMARK   16  A    between atoms: C_17  and  C_18
REMARK   17  A    between atoms: C_21  and  O_22
REMARK   18  A    between atoms: O_22  and  C_23
REMARK   19  A    between atoms: C_24  and  O_25
REMARK   20  A    between atoms: O_25  and  C_26
REMARK                            x       y       z     vdW  Elec       q    Type
REMARK                         _______ _______ _______ _____ _____    ______ ____
ROOT
ATOM      1  C   UNL     1       3.240   6.147  18.741  0.00  0.00    +0.000 A 
ATOM      2  C   UNL     1       3.927   5.110  18.227  0.00  0.00    +0.000 A 
ATOM      3  O   UNL     1       3.799   3.788  18.630  0.00  0.00    +0.000 OA
ATOM      4  C   UNL     1       2.976   3.509  19.684  0.00  0.00    +0.000 A 
ATOM      5  C   UNL     1       2.932   2.186  20.127  0.00  0.00    +0.000 A 
ATOM      6  C   UNL     1       2.121   1.844  21.211  0.00  0.00    +0.000 A 
ATOM      7  C   UNL     1       1.357   2.816  21.855  0.00  0.00    +0.000 A 
ATOM      8  C   UNL     1       1.395   4.138  21.407  0.00  0.00    +0.000 A 
ATOM      9  C   UNL     1       2.199   4.472  20.318  0.00  0.00    +0.000 A 
ATOM     10  C   UNL     1       2.242   5.852  19.815  0.00  0.00    +0.000 A 
ATOM     11  O   UNL     1       1.485   6.692  20.286  0.00  0.00    +0.000 OA
ENDROOT
BRANCH   2  12
ATOM     12  C   UNL     1       4.951   5.280  17.181  0.00  0.00    +0.000 A 
ATOM     13  C   UNL     1       4.932   4.507  16.020  0.00  0.00    +0.000 A 
ATOM     14  C   UNL     1       5.936   4.672  15.063  0.00  0.00    +0.000 A 
ATOM     15  C   UNL     1       6.974   5.602  15.241  0.00  0.00    +0.000 A 
ATOM     16  C   UNL     1       7.006   6.377  16.413  0.00  0.00    +0.000 A 
ATOM     17  C   UNL     1       5.987   6.209  17.368  0.00  0.00    +0.000 A 
BRANCH  16  18
ATOM     18  O   UNL     1       8.042   7.257  16.580  0.00  0.00    +0.000 OA
ATOM     19  C   UNL     1       7.936   8.247  17.594  0.00  0.00    +0.000 C 
ENDBRANCH  16  18
BRANCH  15  20
ATOM     20  O   UNL     1       7.847   5.608  14.183  0.00  0.00    +0.000 OA
ATOM     21  C   UNL     1       7.489   4.935  12.985  0.00  0.00    +0.000 C 
ENDBRANCH  15  20
ENDBRANCH   2  12
BRANCH   1  22
ATOM     22  O   UNL     1       3.450   7.431  18.275  0.00  0.00    +0.000 OA
BRANCH  22  23
ATOM     23  C   UNL     1       2.417   7.984  17.452  0.00  0.00    +0.000 C 
BRANCH  23  24
ATOM     24  C   UNL     1       2.124   9.391  17.954  0.00  0.00    +0.000 C 
BRANCH  24  25
ATOM     25  C   UNL     1       0.689   9.490  18.486  0.00  0.00    +0.000 C 
BRANCH  25  26
ATOM     26  N   UNL     1       0.219  10.875  18.742  0.00  0.00    +0.000 NA
BRANCH  26  27
ATOM     27  C   UNL     1       0.698  11.309  20.077  0.00  0.00    +0.000 C 
BRANCH  27  28
ATOM     28  C   UNL     1       0.346  12.760  20.473  0.00  0.00    +0.000 C 
BRANCH  28  29
ATOM     29  C   UNL     1       1.495  13.766  20.337  0.00  0.00    +0.000 C 
BRANCH  29  30
ATOM     30  C   UNL     1       1.716  14.206  18.889  0.00  0.00    +0.000 C 
ATOM     31  C   UNL     1       2.958  13.576  18.285  0.00  0.00    +0.000 C 
ENDBRANCH  29  30
ENDBRANCH  28  29
ENDBRANCH  27  28
ENDBRANCH  26  27
BRANCH  26  32
ATOM     32  C   UNL     1      -1.261  10.904  18.668  0.00  0.00    +0.000 C 
BRANCH  32  33
ATOM     33  C   UNL     1      -1.947  10.156  17.519  0.00  0.00    +0.000 C 
BRANCH  33  34
ATOM     34  C   UNL     1      -2.431  11.045  16.370  0.00  0.00    +0.000 C 
BRANCH  34  36
ATOM     35  C   UNL     1      -4.764  11.192  17.369  0.00  0.00    +0.000 C 
ATOM     36  C   UNL     1      -3.931  10.818  16.157  0.00  0.00    +0.000 C 
ENDBRANCH  34  36
ENDBRANCH  33  34
ENDBRANCH  32  33
ENDBRANCH  26  32
ENDBRANCH  25  26
ENDBRANCH  24  25
ENDBRANCH  23  24
ENDBRANCH  22  23
ENDBRANCH   1  22
TORSDOF 16
ENDMDL
