MODEL 1
REMARK VINA RESULT:      -9.0      0.000      0.000
REMARK  Name = 
REMARK  0 active torsions:
REMARK  status: ('A' for Active; 'I' for Inactive)
REMARK                            x       y       z     vdW  Elec       q    Type
REMARK                         _______ _______ _______ _____ _____    ______ ____
ROOT
ATOM      1  O   UNL     1       1.521   2.056  22.071  0.00  0.00    +0.000 OA
ATOM      2  C   UNL     1       2.322   2.707  21.423  0.00  0.00    +0.000 C 
ATOM      3  C   UNL     1       3.760   2.307  21.292  0.00  0.00    +0.000 C 
ATOM      4  C   UNL     1       4.170   2.359  20.009  0.00  0.00    +0.000 C 
ATOM      5  C   UNL     1       3.927   3.636  19.225  0.00  0.00    +0.000 C 
ATOM      6  O   UNL     1       4.907   4.551  19.773  0.00  0.00    +0.000 OA
ATOM      7  C   UNL     1       5.881   4.992  18.936  0.00  0.00    +0.000 A 
ATOM      8  C   UNL     1       6.907   5.767  19.487  0.00  0.00    +0.000 A 
ATOM      9  C   UNL     1       7.903   6.292  18.670  0.00  0.00    +0.000 A 
ATOM     10  C   UNL     1       7.865   6.069  17.289  0.00  0.00    +0.000 A 
ATOM     11  C   UNL     1       6.832   5.302  16.721  0.00  0.00    +0.000 A 
ATOM     12  C   UNL     1       6.741   5.081  15.339  0.00  0.00    +0.000 A 
ATOM     13  C   UNL     1       5.710   4.300  14.816  0.00  0.00    +0.000 A 
ATOM     14  C   UNL     1       4.785   3.712  15.675  0.00  0.00    +0.000 A 
ATOM     15  C   UNL     1       4.866   3.934  17.051  0.00  0.00    +0.000 A 
ATOM     16  C   UNL     1       5.857   4.743  17.575  0.00  0.00    +0.000 A 
ATOM     17  O   UNL     1       3.962   3.292  17.831  0.00  0.00    +0.000 OA
ATOM     18  C   UNL     1       2.489   4.169  19.570  0.00  0.00    +0.000 C 
ATOM     19  C   UNL     1       2.315   5.652  19.173  0.00  0.00    +0.000 C 
ATOM     20  C   UNL     1       1.662   5.617  17.823  0.00  0.00    +0.000 C 
ATOM     21  C   UNL     1       1.104   4.442  17.526  0.00  0.00    +0.000 C 
ATOM     22  C   UNL     1       1.415   3.561  18.666  0.00  0.00    +0.000 C 
ATOM     23  O   UNL     1       0.833   2.500  18.834  0.00  0.00    +0.000 OA
ATOM     24  O   UNL     1       2.101   3.967  20.946  0.00  0.00    +0.000 OA
ENDROOT
TORSDOF 0
ENDMDL
MODEL 2
REMARK VINA RESULT:      -8.1      2.471      6.128
REMARK  Name = 
REMARK  0 active torsions:
REMARK  status: ('A' for Active; 'I' for Inactive)
REMARK                            x       y       z     vdW  Elec       q    Type
REMARK                         _______ _______ _______ _____ _____    ______ ____
ROOT
ATOM      1  O   UNL     1       7.921   5.142  13.861  0.00  0.00    +0.000 OA
ATOM      2  C   UNL     1       7.131   5.568  14.686  0.00  0.00    +0.000 C 
ATOM      3  C   UNL     1       5.649   5.517  14.477  0.00  0.00    +0.000 C 
ATOM      4  C   UNL     1       5.015   5.036  15.566  0.00  0.00    +0.000 C 
ATOM      5  C   UNL     1       5.314   5.669  16.913  0.00  0.00    +0.000 C 
ATOM      6  O   UNL     1       4.625   6.941  16.840  0.00  0.00    +0.000 OA
ATOM      7  C   UNL     1       3.597   7.140  17.704  0.00  0.00    +0.000 A 
ATOM      8  C   UNL     1       2.840   8.308  17.553  0.00  0.00    +0.000 A 
ATOM      9  C   UNL     1       1.809   8.592  18.441  0.00  0.00    +0.000 A 
ATOM     10  C   UNL     1       1.543   7.725  19.507  0.00  0.00    +0.000 A 
ATOM     11  C   UNL     1       2.305   6.555  19.678  0.00  0.00    +0.000 A 
ATOM     12  C   UNL     1       2.091   5.675  20.750  0.00  0.00    +0.000 A 
ATOM     13  C   UNL     1       2.858   4.517  20.874  0.00  0.00    +0.000 A 
ATOM     14  C   UNL     1       3.818   4.216  19.911  0.00  0.00    +0.000 A 
ATOM     15  C   UNL     1       4.040   5.090  18.846  0.00  0.00    +0.000 A 
ATOM     16  C   UNL     1       3.318   6.264  18.738  0.00  0.00    +0.000 A 
ATOM     17  O   UNL     1       4.956   4.711  17.922  0.00  0.00    +0.000 OA
ATOM     18  C   UNL     1       6.860   5.937  17.008  0.00  0.00    +0.000 C 
ATOM     19  C   UNL     1       7.202   6.947  18.126  0.00  0.00    +0.000 C 
ATOM     20  C   UNL     1       7.568   6.104  19.310  0.00  0.00    +0.000 C 
ATOM     21  C   UNL     1       7.854   4.837  19.002  0.00  0.00    +0.000 C 
ATOM     22  C   UNL     1       7.623   4.727  17.550  0.00  0.00    +0.000 C 
ATOM     23  O   UNL     1       8.041   3.776  16.906  0.00  0.00    +0.000 OA
ATOM     24  O   UNL     1       7.465   6.341  15.761  0.00  0.00    +0.000 OA
ENDROOT
TORSDOF 0
ENDMDL
MODEL 3
REMARK VINA RESULT:      -7.8      0.937      3.547
REMARK  Name = 
REMARK  0 active torsions:
REMARK  status: ('A' for Active; 'I' for Inactive)
REMARK                            x       y       z     vdW  Elec       q    Type
REMARK                         _______ _______ _______ _____ _____    ______ ____
ROOT
ATOM      1  O   UNL     1      -0.349   2.558  19.170  0.00  0.00    +0.000 OA
ATOM      2  C   UNL     1       0.734   2.789  18.661  0.00  0.00    +0.000 C 
ATOM      3  C   UNL     1       0.976   3.992  17.802  0.00  0.00    +0.000 C 
ATOM      4  C   UNL     1       2.108   4.631  18.157  0.00  0.00    +0.000 C 
ATOM      5  C   UNL     1       3.389   3.822  18.267  0.00  0.00    +0.000 C 
ATOM      6  O   UNL     1       3.740   3.571  16.884  0.00  0.00    +0.000 OA
ATOM      7  C   UNL     1       4.894   4.121  16.427  0.00  0.00    +0.000 A 
ATOM      8  C   UNL     1       5.175   3.998  15.062  0.00  0.00    +0.000 A 
ATOM      9  C   UNL     1       6.367   4.495  14.545  0.00  0.00    +0.000 A 
ATOM     10  C   UNL     1       7.303   5.094  15.396  0.00  0.00    +0.000 A 
ATOM     11  C   UNL     1       7.038   5.212  16.772  0.00  0.00    +0.000 A 
ATOM     12  C   UNL     1       7.963   5.778  17.664  0.00  0.00    +0.000 A 
ATOM     13  C   UNL     1       7.655   5.892  19.019  0.00  0.00    +0.000 A 
ATOM     14  C   UNL     1       6.412   5.471  19.484  0.00  0.00    +0.000 A 
ATOM     15  C   UNL     1       5.491   4.901  18.605  0.00  0.00    +0.000 A 
ATOM     16  C   UNL     1       5.803   4.741  17.267  0.00  0.00    +0.000 A 
ATOM     17  O   UNL     1       4.284   4.557  19.116  0.00  0.00    +0.000 OA
ATOM     18  C   UNL     1       3.057   2.452  18.960  0.00  0.00    +0.000 C 
ATOM     19  C   UNL     1       4.172   1.407  18.733  0.00  0.00    +0.000 C 
ATOM     20  C   UNL     1       5.033   1.487  19.958  0.00  0.00    +0.000 C 
ATOM     21  C   UNL     1       4.446   2.098  20.989  0.00  0.00    +0.000 C 
ATOM     22  C   UNL     1       3.134   2.543  20.486  0.00  0.00    +0.000 C 
ATOM     23  O   UNL     1       2.245   2.900  21.243  0.00  0.00    +0.000 OA
ATOM     24  O   UNL     1       1.772   1.904  18.597  0.00  0.00    +0.000 OA
ENDROOT
TORSDOF 0
ENDMDL
MODEL 4
REMARK VINA RESULT:      -7.1      1.978      5.981
REMARK  Name = 
REMARK  0 active torsions:
REMARK  status: ('A' for Active; 'I' for Inactive)
REMARK                            x       y       z     vdW  Elec       q    Type
REMARK                         _______ _______ _______ _____ _____    ______ ____
ROOT
ATOM      1  O   UNL     1       7.132   5.487  13.912  0.00  0.00    +0.000 OA
ATOM      2  C   UNL     1       6.374   5.439  14.865  0.00  0.00    +0.000 C 
ATOM      3  C   UNL     1       5.047   4.745  14.799  0.00  0.00    +0.000 C 
ATOM      4  C   UNL     1       4.861   3.939  15.863  0.00  0.00    +0.000 C 
ATOM      5  C   UNL     1       5.061   4.518  17.252  0.00  0.00    +0.000 C 
ATOM      6  O   UNL     1       3.886   5.346  17.435  0.00  0.00    +0.000 OA
ATOM      7  C   UNL     1       3.020   4.986  18.417  0.00  0.00    +0.000 A 
ATOM      8  C   UNL     1       1.819   5.697  18.515  0.00  0.00    +0.000 A 
ATOM      9  C   UNL     1       0.917   5.409  19.534  0.00  0.00    +0.000 A 
ATOM     10  C   UNL     1       1.222   4.426  20.482  0.00  0.00    +0.000 A 
ATOM     11  C   UNL     1       2.431   3.713  20.402  0.00  0.00    +0.000 A 
ATOM     12  C   UNL     1       2.788   2.741  21.349  0.00  0.00    +0.000 A 
ATOM     13  C   UNL     1       3.990   2.044  21.225  0.00  0.00    +0.000 A 
ATOM     14  C   UNL     1       4.824   2.292  20.137  0.00  0.00    +0.000 A 
ATOM     15  C   UNL     1       4.479   3.262  19.196  0.00  0.00    +0.000 A 
ATOM     16  C   UNL     1       3.312   3.991  19.334  0.00  0.00    +0.000 A 
ATOM     17  O   UNL     1       5.313   3.417  18.139  0.00  0.00    +0.000 OA
ATOM     18  C   UNL     1       6.332   5.442  17.230  0.00  0.00    +0.000 C 
ATOM     19  C   UNL     1       6.370   6.396  18.445  0.00  0.00    +0.000 C 
ATOM     20  C   UNL     1       7.244   5.707  19.451  0.00  0.00    +0.000 C 
ATOM     21  C   UNL     1       7.999   4.736  18.932  0.00  0.00    +0.000 C 
ATOM     22  C   UNL     1       7.618   4.661  17.510  0.00  0.00    +0.000 C 
ATOM     23  O   UNL     1       8.301   4.060  16.695  0.00  0.00    +0.000 OA
ATOM     24  O   UNL     1       6.501   6.182  16.003  0.00  0.00    +0.000 OA
ENDROOT
TORSDOF 0
ENDMDL
MODEL 5
REMARK VINA RESULT:      -6.9      8.085     10.872
REMARK  Name = 
REMARK  0 active torsions:
REMARK  status: ('A' for Active; 'I' for Inactive)
REMARK                            x       y       z     vdW  Elec       q    Type
REMARK                         _______ _______ _______ _____ _____    ______ ____
ROOT
ATOM      1  O   UNL     1       3.281  14.080  20.351  0.00  0.00    +0.000 OA
ATOM      2  C   UNL     1       2.121  13.707  20.339  0.00  0.00    +0.000 C 
ATOM      3  C   UNL     1       0.980  14.642  20.078  0.00  0.00    +0.000 C 
ATOM      4  C   UNL     1       0.125  14.134  19.169  0.00  0.00    +0.000 C 
ATOM      5  C   UNL     1      -0.412  12.731  19.389  0.00  0.00    +0.000 C 
ATOM      6  O   UNL     1      -1.365  12.908  20.465  0.00  0.00    +0.000 OA
ATOM      7  C   UNL     1      -2.671  12.664  20.185  0.00  0.00    +0.000 A 
ATOM      8  C   UNL     1      -3.613  12.960  21.176  0.00  0.00    +0.000 A 
ATOM      9  C   UNL     1      -4.960  12.682  20.967  0.00  0.00    +0.000 A 
ATOM     10  C   UNL     1      -5.372  12.076  19.774  0.00  0.00    +0.000 A 
ATOM     11  C   UNL     1      -4.433  11.762  18.775  0.00  0.00    +0.000 A 
ATOM     12  C   UNL     1      -4.801  11.127  17.579  0.00  0.00    +0.000 A 
ATOM     13  C   UNL     1      -3.842  10.847  16.606  0.00  0.00    +0.000 A 
ATOM     14  C   UNL     1      -2.518  11.228  16.811  0.00  0.00    +0.000 A 
ATOM     15  C   UNL     1      -2.144  11.853  18.001  0.00  0.00    +0.000 A 
ATOM     16  C   UNL     1      -3.078  12.094  18.992  0.00  0.00    +0.000 A 
ATOM     17  O   UNL     1      -0.849  12.238  18.113  0.00  0.00    +0.000 OA
ATOM     18  C   UNL     1       0.763  11.820  19.899  0.00  0.00    +0.000 C 
ATOM     19  C   UNL     1       0.241  10.520  20.550  0.00  0.00    +0.000 C 
ATOM     20  C   UNL     1       0.301   9.490  19.462  0.00  0.00    +0.000 C 
ATOM     21  C   UNL     1       1.079   9.838  18.435  0.00  0.00    +0.000 C 
ATOM     22  C   UNL     1       1.554  11.198  18.746  0.00  0.00    +0.000 C 
ATOM     23  O   UNL     1       2.488  11.704  18.144  0.00  0.00    +0.000 OA
ATOM     24  O   UNL     1       1.687  12.490  20.782  0.00  0.00    +0.000 OA
ENDROOT
TORSDOF 0
ENDMDL
MODEL 6
REMARK VINA RESULT:      -6.8      8.493     11.244
REMARK  Name = 
REMARK  0 active torsions:
REMARK  status: ('A' for Active; 'I' for Inactive)
REMARK                            x       y       z     vdW  Elec       q    Type
REMARK                         _______ _______ _______ _____ _____    ______ ____
ROOT
ATOM      1  O   UNL     1       1.259  15.302  22.682  0.00  0.00    +0.000 OA
ATOM      2  C   UNL     1       0.328  14.687  22.191  0.00  0.00    +0.000 C 
ATOM      3  C   UNL     1      -0.574  15.290  21.157  0.00  0.00    +0.000 C 
ATOM      4  C   UNL     1      -0.755  14.454  20.115  0.00  0.00    +0.000 C 
ATOM      5  C   UNL     1      -1.194  13.029  20.401  0.00  0.00    +0.000 C 
ATOM      6  O   UNL     1      -2.588  13.181  20.765  0.00  0.00    +0.000 OA
ATOM      7  C   UNL     1      -3.509  12.611  19.946  0.00  0.00    +0.000 A 
ATOM      8  C   UNL     1      -4.859  12.864  20.214  0.00  0.00    +0.000 A 
ATOM      9  C   UNL     1      -5.849  12.265  19.442  0.00  0.00    +0.000 A 
ATOM     10  C   UNL     1      -5.498  11.384  18.413  0.00  0.00    +0.000 A 
ATOM     11  C   UNL     1      -4.145  11.111  18.143  0.00  0.00    +0.000 A 
ATOM     12  C   UNL     1      -3.751  10.211  17.141  0.00  0.00    +0.000 A 
ATOM     13  C   UNL     1      -2.399   9.980  16.893  0.00  0.00    +0.000 A 
ATOM     14  C   UNL     1      -1.434  10.671  17.622  0.00  0.00    +0.000 A 
ATOM     15  C   UNL     1      -1.818  11.563  18.625  0.00  0.00    +0.000 A 
ATOM     16  C   UNL     1      -3.156  11.765  18.910  0.00  0.00    +0.000 A 
ATOM     17  O   UNL     1      -0.829  12.235  19.261  0.00  0.00    +0.000 OA
ATOM     18  C   UNL     1      -0.400  12.502  21.650  0.00  0.00    +0.000 C 
ATOM     19  C   UNL     1      -1.067  11.255  22.272  0.00  0.00    +0.000 C 
ATOM     20  C   UNL     1      -0.337  10.088  21.678  0.00  0.00    +0.000 C 
ATOM     21  C   UNL     1       0.835  10.411  21.128  0.00  0.00    +0.000 C 
ATOM     22  C   UNL     1       0.940  11.875  21.260  0.00  0.00    +0.000 C 
ATOM     23  O   UNL     1       2.001  12.459  21.097  0.00  0.00    +0.000 OA
ATOM     24  O   UNL     1      -0.162  13.503  22.662  0.00  0.00    +0.000 OA
ENDROOT
TORSDOF 0
ENDMDL
MODEL 7
REMARK VINA RESULT:      -6.8     10.029     12.165
REMARK  Name = 
REMARK  0 active torsions:
REMARK  status: ('A' for Active; 'I' for Inactive)
REMARK                            x       y       z     vdW  Elec       q    Type
REMARK                         _______ _______ _______ _____ _____    ______ ____
ROOT
ATOM      1  O   UNL     1       3.493  15.703  19.285  0.00  0.00    +0.000 OA
ATOM      2  C   UNL     1       4.631  15.279  19.182  0.00  0.00    +0.000 C 
ATOM      3  C   UNL     1       5.097  14.520  17.978  0.00  0.00    +0.000 C 
ATOM      4  C   UNL     1       6.280  14.987  17.530  0.00  0.00    +0.000 C 
ATOM      5  C   UNL     1       7.424  15.121  18.518  0.00  0.00    +0.000 C 
ATOM      6  O   UNL     1       7.835  13.748  18.735  0.00  0.00    +0.000 OA
ATOM      7  C   UNL     1       9.083  13.402  18.329  0.00  0.00    +0.000 A 
ATOM      8  C   UNL     1       9.440  12.052  18.411  0.00  0.00    +0.000 A 
ATOM      9  C   UNL     1      10.723  11.645  18.060  0.00  0.00    +0.000 A 
ATOM     10  C   UNL     1      11.670  12.591  17.652  0.00  0.00    +0.000 A 
ATOM     11  C   UNL     1      11.328  13.953  17.579  0.00  0.00    +0.000 A 
ATOM     12  C   UNL     1      12.256  14.936  17.204  0.00  0.00    +0.000 A 
ATOM     13  C   UNL     1      11.873  16.275  17.127  0.00  0.00    +0.000 A 
ATOM     14  C   UNL     1      10.553  16.632  17.393  0.00  0.00    +0.000 A 
ATOM     15  C   UNL     1       9.626  15.660  17.773  0.00  0.00    +0.000 A 
ATOM     16  C   UNL     1      10.007  14.337  17.897  0.00  0.00    +0.000 A 
ATOM     17  O   UNL     1       8.350  16.072  17.970  0.00  0.00    +0.000 OA
ATOM     18  C   UNL     1       6.857  15.698  19.865  0.00  0.00    +0.000 C 
ATOM     19  C   UNL     1       7.830  15.469  21.043  0.00  0.00    +0.000 C 
ATOM     20  C   UNL     1       8.605  16.748  21.159  0.00  0.00    +0.000 C 
ATOM     21  C   UNL     1       8.037  17.780  20.532  0.00  0.00    +0.000 C 
ATOM     22  C   UNL     1       6.838  17.228  19.876  0.00  0.00    +0.000 C 
ATOM     23  O   UNL     1       5.956  17.951  19.440  0.00  0.00    +0.000 OA
ATOM     24  O   UNL     1       5.538  15.219  20.202  0.00  0.00    +0.000 OA
ENDROOT
TORSDOF 0
ENDMDL
MODEL 8
REMARK VINA RESULT:      -6.7      8.538     11.338
REMARK  Name = 
REMARK  0 active torsions:
REMARK  status: ('A' for Active; 'I' for Inactive)
REMARK                            x       y       z     vdW  Elec       q    Type
REMARK                         _______ _______ _______ _____ _____    ______ ____
ROOT
ATOM      1  O   UNL     1       1.871  14.586  22.015  0.00  0.00    +0.000 OA
ATOM      2  C   UNL     1       0.799  14.096  21.706  0.00  0.00    +0.000 C 
ATOM      3  C   UNL     1      -0.340  14.922  21.190  0.00  0.00    +0.000 C 
ATOM      4  C   UNL     1      -0.884  14.373  20.085  0.00  0.00    +0.000 C 
ATOM      5  C   UNL     1      -1.298  12.913  20.134  0.00  0.00    +0.000 C 
ATOM      6  O   UNL     1      -2.500  12.939  20.942  0.00  0.00    +0.000 OA
ATOM      7  C   UNL     1      -3.661  12.576  20.340  0.00  0.00    +0.000 A 
ATOM      8  C   UNL     1      -4.845  12.725  21.072  0.00  0.00    +0.000 A 
ATOM      9  C   UNL     1      -6.059  12.320  20.527  0.00  0.00    +0.000 A 
ATOM     10  C   UNL     1      -6.096  11.735  19.256  0.00  0.00    +0.000 A 
ATOM     11  C   UNL     1      -4.912  11.568  18.517  0.00  0.00    +0.000 A 
ATOM     12  C   UNL     1      -4.902  10.959  17.253  0.00  0.00    +0.000 A 
ATOM     13  C   UNL     1      -3.708  10.826  16.544  0.00  0.00    +0.000 A 
ATOM     14  C   UNL     1      -2.526  11.330  17.080  0.00  0.00    +0.000 A 
ATOM     15  C   UNL     1      -2.528  11.931  18.339  0.00  0.00    +0.000 A 
ATOM     16  C   UNL     1      -3.697  12.026  19.071  0.00  0.00    +0.000 A 
ATOM     17  O   UNL     1      -1.351  12.441  18.778  0.00  0.00    +0.000 OA
ATOM     18  C   UNL     1      -0.190  12.104  20.900  0.00  0.00    +0.000 C 
ATOM     19  C   UNL     1      -0.707  10.727  21.372  0.00  0.00    +0.000 C 
ATOM     20  C   UNL     1      -0.268   9.763  20.311  0.00  0.00    +0.000 C 
ATOM     21  C   UNL     1       0.695  10.239  19.518  0.00  0.00    +0.000 C 
ATOM     22  C   UNL     1       0.923  11.624  19.967  0.00  0.00    +0.000 C 
ATOM     23  O   UNL     1       1.915  12.252  19.628  0.00  0.00    +0.000 OA
ATOM     24  O   UNL     1       0.408  12.821  22.000  0.00  0.00    +0.000 OA
ENDROOT
TORSDOF 0
ENDMDL
MODEL 9
REMARK VINA RESULT:      -6.7     10.097     12.786
REMARK  Name = 
REMARK  0 active torsions:
REMARK  status: ('A' for Active; 'I' for Inactive)
REMARK                            x       y       z     vdW  Elec       q    Type
REMARK                         _______ _______ _______ _____ _____    ______ ____
ROOT
ATOM      1  O   UNL     1      12.007  13.029  16.315  0.00  0.00    +0.000 OA
ATOM      2  C   UNL     1      11.360  13.029  17.348  0.00  0.00    +0.000 C 
ATOM      3  C   UNL     1      11.823  12.317  18.582  0.00  0.00    +0.000 C 
ATOM      4  C   UNL     1      11.717  13.103  19.672  0.00  0.00    +0.000 C 
ATOM      5  C   UNL     1      10.386  13.780  19.947  0.00  0.00    +0.000 C 
ATOM      6  O   UNL     1       9.554  12.692  20.419  0.00  0.00    +0.000 OA
ATOM      7  C   UNL     1       9.114  12.757  21.701  0.00  0.00    +0.000 A 
ATOM      8  C   UNL     1       8.424  11.650  22.207  0.00  0.00    +0.000 A 
ATOM      9  C   UNL     1       7.903  11.681  23.497  0.00  0.00    +0.000 A 
ATOM     10  C   UNL     1       8.044  12.831  24.282  0.00  0.00    +0.000 A 
ATOM     11  C   UNL     1       8.724  13.955  23.780  0.00  0.00    +0.000 A 
ATOM     12  C   UNL     1       8.860  15.137  24.523  0.00  0.00    +0.000 A 
ATOM     13  C   UNL     1       9.557  16.224  23.996  0.00  0.00    +0.000 A 
ATOM     14  C   UNL     1      10.147  16.123  22.739  0.00  0.00    +0.000 A 
ATOM     15  C   UNL     1      10.010  14.953  21.992  0.00  0.00    +0.000 A 
ATOM     16  C   UNL     1       9.282  13.885  22.485  0.00  0.00    +0.000 A 
ATOM     17  O   UNL     1      10.650  14.907  20.798  0.00  0.00    +0.000 OA
ATOM     18  C   UNL     1       9.804  14.309  18.587  0.00  0.00    +0.000 C 
ATOM     19  C   UNL     1       8.293  14.619  18.689  0.00  0.00    +0.000 C 
ATOM     20  C   UNL     1       8.218  16.091  18.961  0.00  0.00    +0.000 C 
ATOM     21  C   UNL     1       9.344  16.749  18.680  0.00  0.00    +0.000 C 
ATOM     22  C   UNL     1      10.304  15.715  18.252  0.00  0.00    +0.000 C 
ATOM     23  O   UNL     1      11.343  16.004  17.677  0.00  0.00    +0.000 OA
ATOM     24  O   UNL     1      10.065  13.447  17.459  0.00  0.00    +0.000 OA
ENDROOT
TORSDOF 0
ENDMDL
