MODEL 1
REMARK VINA RESULT:      -8.1      0.000      0.000
REMARK  Name = 
REMARK  7 active torsions:
REMARK  status: ('A' for Active; 'I' for Inactive)
REMARK    1  A    between atoms: C_2  and  C_17
REMARK    2  A    between atoms: N_3  and  C_4
REMARK    3  A    between atoms: N_7  and  C_8
REMARK    4  A    between atoms: C_8  and  C_9
REMARK    5  A    between atoms: C_17  and  O_18
REMARK    6  A    between atoms: C_17  and  C_19
REMARK    7  A    between atoms: C_17  and  C_25
REMARK                            x       y       z     vdW  Elec       q    Type
REMARK                         _______ _______ _______ _____ _____    ______ ____
ROOT
ATOM      1  O   UNL     1       4.810   4.732  17.109  0.00  0.00    +0.000 OA
ATOM      2  C   UNL     1       4.783   5.253  18.229  0.00  0.00    +0.000 C 
ATOM      3  N   UNL     1       5.940   5.706  18.841  0.00  0.00    +0.000 N 
ATOM      4  H   UNL     1       5.852   6.316  19.640  0.00  0.00    +0.000 HD
ENDROOT
BRANCH   3   5
ATOM      5  C   UNL     1       7.237   5.694  18.147  0.00  0.00    +0.000 C 
ATOM      6  C   UNL     1       8.359   6.255  19.021  0.00  0.00    +0.000 C 
ATOM      7  C   UNL     1       8.284   7.774  19.179  0.00  0.00    +0.000 C 
ATOM      8  N   UNL     1       8.223   8.474  17.886  0.00  0.00    +0.000 NA
ATOM      9  C   UNL     1       7.111   7.974  17.058  0.00  0.00    +0.000 C 
ATOM     10  C   UNL     1       7.189   6.466  16.827  0.00  0.00    +0.000 C 
BRANCH   8  11
ATOM     11  C   UNL     1       8.067   9.934  18.069  0.00  0.00    +0.000 C 
BRANCH  11  12
ATOM     12  C   UNL     1       9.284  10.637  18.634  0.00  0.00    +0.000 A 
ATOM     13  C   UNL     1       9.388  10.899  20.005  0.00  0.00    +0.000 A 
ATOM     14  C   UNL     1      10.532  11.512  20.527  0.00  0.00    +0.000 A 
ATOM     15  C   UNL     1      11.581  11.867  19.680  0.00  0.00    +0.000 A 
ATOM     16  C   UNL     1      11.486  11.615  18.314  0.00  0.00    +0.000 A 
ATOM     17  C   UNL     1      10.346  11.002  17.791  0.00  0.00    +0.000 A 
ENDBRANCH  11  12
ENDBRANCH   8  11
ENDBRANCH   3   5
BRANCH   2  18
ATOM     18  C   UNL     1       3.419   5.348  19.023  0.00  0.00    +0.000 C 
BRANCH  18  19
ATOM     19  C   UNL     1       2.801   6.757  18.949  0.00  0.00    +0.000 A 
ATOM     20  C   UNL     1       2.808   7.533  17.782  0.00  0.00    +0.000 A 
ATOM     21  C   UNL     1       2.164   8.777  17.744  0.00  0.00    +0.000 A 
ATOM     22  C   UNL     1       1.484   9.259  18.861  0.00  0.00    +0.000 A 
ATOM     23  C   UNL     1       1.482   8.518  20.036  0.00  0.00    +0.000 A 
ATOM     24  C   UNL     1       2.155   7.298  20.083  0.00  0.00    +0.000 A 
ENDBRANCH  18  19
BRANCH  18  25
ATOM     25  C   UNL     1       2.379   4.243  18.660  0.00  0.00    +0.000 C 
ATOM     26  C   UNL     1       2.945   2.814  18.636  0.00  0.00    +0.000 C 
ATOM     27  C   UNL     1       1.719   1.903  18.696  0.00  0.00    +0.000 C 
ATOM     28  C   UNL     1       0.619   2.708  19.369  0.00  0.00    +0.000 C 
ATOM     29  C   UNL     1       1.230   4.069  19.670  0.00  0.00    +0.000 C 
ENDBRANCH  18  25
BRANCH  18  30
ATOM     30  O   UNL     1       3.811   5.152  20.402  0.00  0.00    +0.000 OA
ATOM     31  H   UNL     1       4.778   5.303  20.409  0.00  0.00    +0.000 HD
ENDBRANCH  18  30
ENDBRANCH   2  18
TORSDOF 7
ENDMDL
MODEL 2
REMARK VINA RESULT:      -8.0      0.895      1.179
REMARK  Name = 
REMARK  7 active torsions:
REMARK  status: ('A' for Active; 'I' for Inactive)
REMARK    1  A    between atoms: C_2  and  C_17
REMARK    2  A    between atoms: N_3  and  C_4
REMARK    3  A    between atoms: N_7  and  C_8
REMARK    4  A    between atoms: C_8  and  C_9
REMARK    5  A    between atoms: C_17  and  O_18
REMARK    6  A    between atoms: C_17  and  C_19
REMARK    7  A    between atoms: C_17  and  C_25
REMARK                            x       y       z     vdW  Elec       q    Type
REMARK                         _______ _______ _______ _____ _____    ______ ____
ROOT
ATOM      1  O   UNL     1       4.253   5.555  16.677  0.00  0.00    +0.000 OA
ATOM      2  C   UNL     1       4.397   5.838  17.871  0.00  0.00    +0.000 C 
ATOM      3  N   UNL     1       5.650   6.083  18.408  0.00  0.00    +0.000 N 
ATOM      4  H   UNL     1       5.704   6.523  19.315  0.00  0.00    +0.000 HD
ENDROOT
BRANCH   3   5
ATOM      5  C   UNL     1       6.856   6.130  17.567  0.00  0.00    +0.000 C 
ATOM      6  C   UNL     1       8.133   5.941  18.386  0.00  0.00    +0.000 C 
ATOM      7  C   UNL     1       8.484   7.168  19.227  0.00  0.00    +0.000 C 
ATOM      8  N   UNL     1       8.549   8.401  18.427  0.00  0.00    +0.000 NA
ATOM      9  C   UNL     1       7.302   8.618  17.674  0.00  0.00    +0.000 C 
ATOM     10  C   UNL     1       6.951   7.435  16.774  0.00  0.00    +0.000 C 
BRANCH   8  11
ATOM     11  C   UNL     1       8.809   9.584  19.277  0.00  0.00    +0.000 C 
BRANCH  11  12
ATOM     12  C   UNL     1       9.445  10.756  18.559  0.00  0.00    +0.000 A 
ATOM     13  C   UNL     1       8.654  11.764  17.994  0.00  0.00    +0.000 A 
ATOM     14  C   UNL     1       9.247  12.865  17.366  0.00  0.00    +0.000 A 
ATOM     15  C   UNL     1      10.636  12.965  17.300  0.00  0.00    +0.000 A 
ATOM     16  C   UNL     1      11.432  11.966  17.854  0.00  0.00    +0.000 A 
ATOM     17  C   UNL     1      10.843  10.867  18.482  0.00  0.00    +0.000 A 
ENDBRANCH  11  12
ENDBRANCH   8  11
ENDBRANCH   3   5
BRANCH   2  18
ATOM     18  C   UNL     1       3.142   5.857  18.834  0.00  0.00    +0.000 C 
BRANCH  18  19
ATOM     19  C   UNL     1       2.474   7.243  18.890  0.00  0.00    +0.000 A 
ATOM     20  C   UNL     1       2.383   8.093  17.778  0.00  0.00    +0.000 A 
ATOM     21  C   UNL     1       1.696   9.311  17.861  0.00  0.00    +0.000 A 
ATOM     22  C   UNL     1       1.070   9.694  19.045  0.00  0.00    +0.000 A 
ATOM     23  C   UNL     1       1.163   8.879  20.166  0.00  0.00    +0.000 A 
ATOM     24  C   UNL     1       1.880   7.685  20.093  0.00  0.00    +0.000 A 
ENDBRANCH  18  19
BRANCH  18  25
ATOM     25  C   UNL     1       2.102   4.726  18.565  0.00  0.00    +0.000 C 
ATOM     26  C   UNL     1       2.710   3.395  18.095  0.00  0.00    +0.000 C 
ATOM     27  C   UNL     1       1.609   2.357  18.315  0.00  0.00    +0.000 C 
ATOM     28  C   UNL     1       0.718   2.906  19.419  0.00  0.00    +0.000 C 
ATOM     29  C   UNL     1       1.318   4.251  19.802  0.00  0.00    +0.000 C 
ENDBRANCH  18  25
BRANCH  18  30
ATOM     30  O   UNL     1       3.713   5.631  20.144  0.00  0.00    +0.000 OA
ATOM     31  H   UNL     1       3.275   6.289  20.723  0.00  0.00    +0.000 HD
ENDBRANCH  18  30
ENDBRANCH   2  18
TORSDOF 7
ENDMDL
MODEL 3
REMARK VINA RESULT:      -7.7      0.462      1.007
REMARK  Name = 
REMARK  7 active torsions:
REMARK  status: ('A' for Active; 'I' for Inactive)
REMARK    1  A    between atoms: C_2  and  C_17
REMARK    2  A    between atoms: N_3  and  C_4
REMARK    3  A    between atoms: N_7  and  C_8
REMARK    4  A    between atoms: C_8  and  C_9
REMARK    5  A    between atoms: C_17  and  O_18
REMARK    6  A    between atoms: C_17  and  C_19
REMARK    7  A    between atoms: C_17  and  C_25
REMARK                            x       y       z     vdW  Elec       q    Type
REMARK                         _______ _______ _______ _____ _____    ______ ____
ROOT
ATOM      1  O   UNL     1       4.518   5.844  16.657  0.00  0.00    +0.000 OA
ATOM      2  C   UNL     1       4.605   5.796  17.888  0.00  0.00    +0.000 C 
ATOM      3  N   UNL     1       5.833   5.680  18.519  0.00  0.00    +0.000 N 
ATOM      4  H   UNL     1       5.881   5.867  19.510  0.00  0.00    +0.000 HD
ENDROOT
BRANCH   3   5
ATOM      5  C   UNL     1       7.096   5.723  17.766  0.00  0.00    +0.000 C 
ATOM      6  C   UNL     1       8.266   6.184  18.637  0.00  0.00    +0.000 C 
ATOM      7  C   UNL     1       8.220   7.681  18.946  0.00  0.00    +0.000 C 
ATOM      8  N   UNL     1       8.110   8.505  17.731  0.00  0.00    +0.000 NA
ATOM      9  C   UNL     1       6.954   8.100  16.913  0.00  0.00    +0.000 C 
ATOM     10  C   UNL     1       6.998   6.622  16.532  0.00  0.00    +0.000 C 
BRANCH   8  11
ATOM     11  C   UNL     1       7.985   9.942  18.063  0.00  0.00    +0.000 C 
BRANCH  11  12
ATOM     12  C   UNL     1       9.235  10.572  18.641  0.00  0.00    +0.000 A 
ATOM     13  C   UNL     1      10.267  11.011  17.803  0.00  0.00    +0.000 A 
ATOM     14  C   UNL     1      11.403  11.629  18.339  0.00  0.00    +0.000 A 
ATOM     15  C   UNL     1      11.513  11.812  19.716  0.00  0.00    +0.000 A 
ATOM     16  C   UNL     1      10.494  11.374  20.559  0.00  0.00    +0.000 A 
ATOM     17  C   UNL     1       9.360  10.759  20.027  0.00  0.00    +0.000 A 
ENDBRANCH  11  12
ENDBRANCH   8  11
ENDBRANCH   3   5
BRANCH   2  18
ATOM     18  C   UNL     1       3.295   5.794  18.774  0.00  0.00    +0.000 C 
BRANCH  18  19
ATOM     19  C   UNL     1       2.615   7.175  18.807  0.00  0.00    +0.000 A 
ATOM     20  C   UNL     1       2.539   8.017  17.688  0.00  0.00    +0.000 A 
ATOM     21  C   UNL     1       1.841   9.230  17.748  0.00  0.00    +0.000 A 
ATOM     22  C   UNL     1       1.188   9.615  18.918  0.00  0.00    +0.000 A 
ATOM     23  C   UNL     1       1.265   8.809  20.046  0.00  0.00    +0.000 A 
ATOM     24  C   UNL     1       1.993   7.621  19.995  0.00  0.00    +0.000 A 
ENDBRANCH  18  19
BRANCH  18  25
ATOM     25  C   UNL     1       2.281   4.660  18.428  0.00  0.00    +0.000 C 
ATOM     26  C   UNL     1       2.926   3.330  18.008  0.00  0.00    +0.000 C 
ATOM     27  C   UNL     1       1.814   2.290  18.145  0.00  0.00    +0.000 C 
ATOM     28  C   UNL     1       0.841   2.837  19.177  0.00  0.00    +0.000 C 
ATOM     29  C   UNL     1       1.407   4.184  19.604  0.00  0.00    +0.000 C 
ENDBRANCH  18  25
BRANCH  18  30
ATOM     30  O   UNL     1       3.787   5.555  20.114  0.00  0.00    +0.000 OA
ATOM     31  H   UNL     1       3.577   6.375  20.606  0.00  0.00    +0.000 HD
ENDBRANCH  18  30
ENDBRANCH   2  18
TORSDOF 7
ENDMDL
MODEL 4
REMARK VINA RESULT:      -7.7      0.377      1.319
REMARK  Name = 
REMARK  7 active torsions:
REMARK  status: ('A' for Active; 'I' for Inactive)
REMARK    1  A    between atoms: C_2  and  C_17
REMARK    2  A    between atoms: N_3  and  C_4
REMARK    3  A    between atoms: N_7  and  C_8
REMARK    4  A    between atoms: C_8  and  C_9
REMARK    5  A    between atoms: C_17  and  O_18
REMARK    6  A    between atoms: C_17  and  C_19
REMARK    7  A    between atoms: C_17  and  C_25
REMARK                            x       y       z     vdW  Elec       q    Type
REMARK                         _______ _______ _______ _____ _____    ______ ____
ROOT
ATOM      1  O   UNL     1       5.104   3.940  17.537  0.00  0.00    +0.000 OA
ATOM      2  C   UNL     1       4.922   4.816  18.388  0.00  0.00    +0.000 C 
ATOM      3  N   UNL     1       5.941   5.674  18.768  0.00  0.00    +0.000 N 
ATOM      4  H   UNL     1       5.698   6.504  19.290  0.00  0.00    +0.000 HD
ENDROOT
BRANCH   3   5
ATOM      5  C   UNL     1       7.252   5.661  18.102  0.00  0.00    +0.000 C 
ATOM      6  C   UNL     1       8.358   6.211  19.003  0.00  0.00    +0.000 C 
ATOM      7  C   UNL     1       8.286   7.729  19.169  0.00  0.00    +0.000 C 
ATOM      8  N   UNL     1       8.255   8.437  17.880  0.00  0.00    +0.000 NA
ATOM      9  C   UNL     1       7.159   7.948  17.025  0.00  0.00    +0.000 C 
ATOM     10  C   UNL     1       7.235   6.441  16.786  0.00  0.00    +0.000 C 
BRANCH   8  11
ATOM     11  C   UNL     1       8.102   9.897  18.069  0.00  0.00    +0.000 C 
BRANCH  11  12
ATOM     12  C   UNL     1       9.316  10.593  18.650  0.00  0.00    +0.000 A 
ATOM     13  C   UNL     1      10.356  11.028  17.821  0.00  0.00    +0.000 A 
ATOM     14  C   UNL     1      11.456  11.707  18.358  0.00  0.00    +0.000 A 
ATOM     15  C   UNL     1      11.521  11.955  19.728  0.00  0.00    +0.000 A 
ATOM     16  C   UNL     1      10.494  11.522  20.562  0.00  0.00    +0.000 A 
ATOM     17  C   UNL     1       9.395  10.846  20.029  0.00  0.00    +0.000 A 
ENDBRANCH  11  12
ENDBRANCH   8  11
ENDBRANCH   3   5
BRANCH   2  18
ATOM     18  C   UNL     1       3.523   4.930  19.118  0.00  0.00    +0.000 C 
BRANCH  18  19
ATOM     19  C   UNL     1       2.903   6.331  18.970  0.00  0.00    +0.000 A 
ATOM     20  C   UNL     1       2.271   7.002  20.026  0.00  0.00    +0.000 A 
ATOM     21  C   UNL     1       1.792   8.308  19.861  0.00  0.00    +0.000 A 
ATOM     22  C   UNL     1       1.953   8.976  18.649  0.00  0.00    +0.000 A 
ATOM     23  C   UNL     1       2.557   8.325  17.581  0.00  0.00    +0.000 A 
ATOM     24  C   UNL     1       2.999   7.012  17.735  0.00  0.00    +0.000 A 
ENDBRANCH  18  19
BRANCH  18  25
ATOM     25  C   UNL     1       2.506   3.807  18.746  0.00  0.00    +0.000 C 
ATOM     26  C   UNL     1       2.943   2.388  19.145  0.00  0.00    +0.000 C 
ATOM     27  C   UNL     1       1.665   1.551  19.093  0.00  0.00    +0.000 C 
ATOM     28  C   UNL     1       0.511   2.517  19.308  0.00  0.00    +0.000 C 
ATOM     29  C   UNL     1       1.147   3.891  19.467  0.00  0.00    +0.000 C 
ENDBRANCH  18  25
BRANCH  18  30
ATOM     30  O   UNL     1       3.855   4.781  20.518  0.00  0.00    +0.000 OA
ATOM     31  H   UNL     1       4.228   3.878  20.591  0.00  0.00    +0.000 HD
ENDBRANCH  18  30
ENDBRANCH   2  18
TORSDOF 7
ENDMDL
MODEL 5
REMARK VINA RESULT:      -7.6      6.530     11.323
REMARK  Name = 
REMARK  7 active torsions:
REMARK  status: ('A' for Active; 'I' for Inactive)
REMARK    1  A    between atoms: C_2  and  C_17
REMARK    2  A    between atoms: N_3  and  C_4
REMARK    3  A    between atoms: N_7  and  C_8
REMARK    4  A    between atoms: C_8  and  C_9
REMARK    5  A    between atoms: C_17  and  O_18
REMARK    6  A    between atoms: C_17  and  C_19
REMARK    7  A    between atoms: C_17  and  C_25
REMARK                            x       y       z     vdW  Elec       q    Type
REMARK                         _______ _______ _______ _____ _____    ______ ____
ROOT
ATOM      1  O   UNL     1       1.205  11.707  21.142  0.00  0.00    +0.000 OA
ATOM      2  C   UNL     1       0.121  11.565  20.567  0.00  0.00    +0.000 C 
ATOM      3  N   UNL     1      -1.072  11.897  21.186  0.00  0.00    +0.000 N 
ATOM      4  H   UNL     1      -1.902  11.978  20.616  0.00  0.00    +0.000 HD
ENDROOT
BRANCH   3   5
ATOM      5  C   UNL     1      -1.104  12.538  22.510  0.00  0.00    +0.000 C 
ATOM      6  C   UNL     1      -2.202  11.957  23.401  0.00  0.00    +0.000 C 
ATOM      7  C   UNL     1      -3.604  12.401  22.981  0.00  0.00    +0.000 C 
ATOM      8  N   UNL     1      -3.726  13.863  22.882  0.00  0.00    +0.000 NA
ATOM      9  C   UNL     1      -2.703  14.426  21.983  0.00  0.00    +0.000 C 
ATOM     10  C   UNL     1      -1.284  14.054  22.408  0.00  0.00    +0.000 C 
BRANCH   8  11
ATOM     11  C   UNL     1      -5.065  14.261  22.395  0.00  0.00    +0.000 C 
BRANCH  11  12
ATOM     12  C   UNL     1      -5.735  13.254  21.482  0.00  0.00    +0.000 A 
ATOM     13  C   UNL     1      -5.241  13.016  20.195  0.00  0.00    +0.000 A 
ATOM     14  C   UNL     1      -5.838  12.055  19.370  0.00  0.00    +0.000 A 
ATOM     15  C   UNL     1      -6.934  11.327  19.830  0.00  0.00    +0.000 A 
ATOM     16  C   UNL     1      -7.436  11.559  21.108  0.00  0.00    +0.000 A 
ATOM     17  C   UNL     1      -6.841  12.516  21.932  0.00  0.00    +0.000 A 
ENDBRANCH  11  12
ENDBRANCH   8  11
ENDBRANCH   3   5
BRANCH   2  18
ATOM     18  C   UNL     1       0.073  10.927  19.120  0.00  0.00    +0.000 C 
BRANCH  18  19
ATOM     19  C   UNL     1       0.949   9.665  19.012  0.00  0.00    +0.000 A 
ATOM     20  C   UNL     1       1.764   9.393  17.905  0.00  0.00    +0.000 A 
ATOM     21  C   UNL     1       2.602   8.271  17.889  0.00  0.00    +0.000 A 
ATOM     22  C   UNL     1       2.657   7.411  18.985  0.00  0.00    +0.000 A 
ATOM     23  C   UNL     1       1.844   7.647  20.085  0.00  0.00    +0.000 A 
ATOM     24  C   UNL     1       0.983   8.744  20.084  0.00  0.00    +0.000 A 
ENDBRANCH  18  19
BRANCH  18  25
ATOM     25  C   UNL     1      -1.366  10.679  18.570  0.00  0.00    +0.000 C 
ATOM     26  C   UNL     1      -2.031  11.912  17.937  0.00  0.00    +0.000 C 
ATOM     27  C   UNL     1      -3.189  11.355  17.108  0.00  0.00    +0.000 C 
ATOM     28  C   UNL     1      -2.813   9.925  16.755  0.00  0.00    +0.000 C 
ATOM     29  C   UNL     1      -1.455   9.684  17.397  0.00  0.00    +0.000 C 
ENDBRANCH  18  25
BRANCH  18  30
ATOM     30  O   UNL     1       0.701  11.927  18.284  0.00  0.00    +0.000 OA
ATOM     31  H   UNL     1       0.795  11.496  17.410  0.00  0.00    +0.000 HD
ENDBRANCH  18  30
ENDBRANCH   2  18
TORSDOF 7
ENDMDL
MODEL 6
REMARK VINA RESULT:      -7.5      4.337      8.251
REMARK  Name = 
REMARK  7 active torsions:
REMARK  status: ('A' for Active; 'I' for Inactive)
REMARK    1  A    between atoms: C_2  and  C_17
REMARK    2  A    between atoms: N_3  and  C_4
REMARK    3  A    between atoms: N_7  and  C_8
REMARK    4  A    between atoms: C_8  and  C_9
REMARK    5  A    between atoms: C_17  and  O_18
REMARK    6  A    between atoms: C_17  and  C_19
REMARK    7  A    between atoms: C_17  and  C_25
REMARK                            x       y       z     vdW  Elec       q    Type
REMARK                         _______ _______ _______ _____ _____    ______ ____
ROOT
ATOM      1  O   UNL     1       2.775   7.995  16.861  0.00  0.00    +0.000 OA
ATOM      2  C   UNL     1       2.505   7.757  18.043  0.00  0.00    +0.000 C 
ATOM      3  N   UNL     1       1.655   8.576  18.767  0.00  0.00    +0.000 N 
ATOM      4  H   UNL     1       1.288   8.231  19.642  0.00  0.00    +0.000 HD
ENDROOT
BRANCH   3   5
ATOM      5  C   UNL     1       0.943   9.699  18.139  0.00  0.00    +0.000 C 
ATOM      6  C   UNL     1       1.605  11.042  18.449  0.00  0.00    +0.000 C 
ATOM      7  C   UNL     1       1.372  11.499  19.889  0.00  0.00    +0.000 C 
ATOM      8  N   UNL     1      -0.053  11.519  20.251  0.00  0.00    +0.000 NA
ATOM      9  C   UNL     1      -0.687  10.212  20.003  0.00  0.00    +0.000 C 
ATOM     10  C   UNL     1      -0.528   9.752  18.556  0.00  0.00    +0.000 C 
BRANCH   8  11
ATOM     11  C   UNL     1      -0.245  11.884  21.672  0.00  0.00    +0.000 C 
BRANCH  11  12
ATOM     12  C   UNL     1      -1.646  12.338  22.029  0.00  0.00    +0.000 A 
ATOM     13  C   UNL     1      -2.406  13.088  21.124  0.00  0.00    +0.000 A 
ATOM     14  C   UNL     1      -3.715  13.470  21.441  0.00  0.00    +0.000 A 
ATOM     15  C   UNL     1      -4.270  13.104  22.666  0.00  0.00    +0.000 A 
ATOM     16  C   UNL     1      -3.521  12.362  23.575  0.00  0.00    +0.000 A 
ATOM     17  C   UNL     1      -2.216  11.978  23.260  0.00  0.00    +0.000 A 
ENDBRANCH  11  12
ENDBRANCH   8  11
ENDBRANCH   3   5
BRANCH   2  18
ATOM     18  C   UNL     1       3.191   6.536  18.779  0.00  0.00    +0.000 C 
BRANCH  18  19
ATOM     19  C   UNL     1       2.257   5.316  18.874  0.00  0.00    +0.000 A 
ATOM     20  C   UNL     1       1.848   4.578  17.755  0.00  0.00    +0.000 A 
ATOM     21  C   UNL     1       1.060   3.429  17.902  0.00  0.00    +0.000 A 
ATOM     22  C   UNL     1       0.684   2.983  19.168  0.00  0.00    +0.000 A 
ATOM     23  C   UNL     1       1.059   3.709  20.291  0.00  0.00    +0.000 A 
ATOM     24  C   UNL     1       1.811   4.874  20.140  0.00  0.00    +0.000 A 
ENDBRANCH  18  19
BRANCH  18  25
ATOM     25  C   UNL     1       4.594   6.146  18.217  0.00  0.00    +0.000 C 
ATOM     26  C   UNL     1       5.403   5.198  19.117  0.00  0.00    +0.000 C 
ATOM     27  C   UNL     1       6.491   4.625  18.210  0.00  0.00    +0.000 C 
ATOM     28  C   UNL     1       5.952   4.705  16.790  0.00  0.00    +0.000 C 
ATOM     29  C   UNL     1       4.571   5.333  16.909  0.00  0.00    +0.000 C 
ENDBRANCH  18  25
BRANCH  18  30
ATOM     30  O   UNL     1       3.373   7.012  20.134  0.00  0.00    +0.000 OA
ATOM     31  H   UNL     1       3.048   7.936  20.118  0.00  0.00    +0.000 HD
ENDBRANCH  18  30
ENDBRANCH   2  18
TORSDOF 7
ENDMDL
MODEL 7
REMARK VINA RESULT:      -7.5      7.167     12.115
REMARK  Name = 
REMARK  7 active torsions:
REMARK  status: ('A' for Active; 'I' for Inactive)
REMARK    1  A    between atoms: C_2  and  C_17
REMARK    2  A    between atoms: N_3  and  C_4
REMARK    3  A    between atoms: N_7  and  C_8
REMARK    4  A    between atoms: C_8  and  C_9
REMARK    5  A    between atoms: C_17  and  O_18
REMARK    6  A    between atoms: C_17  and  C_19
REMARK    7  A    between atoms: C_17  and  C_25
REMARK                            x       y       z     vdW  Elec       q    Type
REMARK                         _______ _______ _______ _____ _____    ______ ____
ROOT
ATOM      1  O   UNL     1      -0.408  13.509  20.138  0.00  0.00    +0.000 OA
ATOM      2  C   UNL     1      -1.126  12.503  20.131  0.00  0.00    +0.000 C 
ATOM      3  N   UNL     1      -2.181  12.365  21.018  0.00  0.00    +0.000 N 
ATOM      4  H   UNL     1      -2.868  11.648  20.836  0.00  0.00    +0.000 HD
ENDROOT
BRANCH   3   5
ATOM      5  C   UNL     1      -2.571  13.450  21.931  0.00  0.00    +0.000 C 
ATOM      6  C   UNL     1      -3.501  12.959  23.040  0.00  0.00    +0.000 C 
ATOM      7  C   UNL     1      -4.916  12.664  22.539  0.00  0.00    +0.000 C 
ATOM      8  N   UNL     1      -5.508  13.803  21.820  0.00  0.00    +0.000 NA
ATOM      9  C   UNL     1      -4.641  14.249  20.716  0.00  0.00    +0.000 C 
ATOM     10  C   UNL     1      -3.235  14.613  21.190  0.00  0.00    +0.000 C 
BRANCH   8  11
ATOM     11  C   UNL     1      -6.842  13.463  21.276  0.00  0.00    +0.000 C 
BRANCH  11  12
ATOM     12  C   UNL     1      -6.974  12.045  20.758  0.00  0.00    +0.000 A 
ATOM     13  C   UNL     1      -7.765  11.108  21.432  0.00  0.00    +0.000 A 
ATOM     14  C   UNL     1      -7.917   9.811  20.927  0.00  0.00    +0.000 A 
ATOM     15  C   UNL     1      -7.278   9.445  19.743  0.00  0.00    +0.000 A 
ATOM     16  C   UNL     1      -6.485  10.369  19.067  0.00  0.00    +0.000 A 
ATOM     17  C   UNL     1      -6.334  11.663  19.568  0.00  0.00    +0.000 A 
ENDBRANCH  11  12
ENDBRANCH   8  11
ENDBRANCH   3   5
BRANCH   2  18
ATOM     18  C   UNL     1      -0.803  11.309  19.145  0.00  0.00    +0.000 C 
BRANCH  18  19
ATOM     19  C   UNL     1       0.025  10.203  19.823  0.00  0.00    +0.000 A 
ATOM     20  C   UNL     1      -0.247   9.727  21.113  0.00  0.00    +0.000 A 
ATOM     21  C   UNL     1       0.488   8.664  21.655  0.00  0.00    +0.000 A 
ATOM     22  C   UNL     1       1.492   8.045  20.914  0.00  0.00    +0.000 A 
ATOM     23  C   UNL     1       1.795   8.512  19.642  0.00  0.00    +0.000 A 
ATOM     24  C   UNL     1       1.089   9.594  19.118  0.00  0.00    +0.000 A 
ENDBRANCH  18  19
BRANCH  18  25
ATOM     25  C   UNL     1      -2.048  10.726  18.405  0.00  0.00    +0.000 C 
ATOM     26  C   UNL     1      -3.003  11.783  17.827  0.00  0.00    +0.000 C 
ATOM     27  C   UNL     1      -3.864  11.027  16.815  0.00  0.00    +0.000 C 
ATOM     28  C   UNL     1      -3.042   9.829  16.365  0.00  0.00    +0.000 C 
ATOM     29  C   UNL     1      -1.732   9.914  17.135  0.00  0.00    +0.000 C 
ENDBRANCH  18  25
BRANCH  18  30
ATOM     30  O   UNL     1       0.061  11.910  18.151  0.00  0.00    +0.000 OA
ATOM     31  H   UNL     1      -0.268  11.566  17.296  0.00  0.00    +0.000 HD
ENDBRANCH  18  30
ENDBRANCH   2  18
TORSDOF 7
ENDMDL
MODEL 8
REMARK VINA RESULT:      -7.5      1.292      3.520
REMARK  Name = 
REMARK  7 active torsions:
REMARK  status: ('A' for Active; 'I' for Inactive)
REMARK    1  A    between atoms: C_2  and  C_17
REMARK    2  A    between atoms: N_3  and  C_4
REMARK    3  A    between atoms: N_7  and  C_8
REMARK    4  A    between atoms: C_8  and  C_9
REMARK    5  A    between atoms: C_17  and  O_18
REMARK    6  A    between atoms: C_17  and  C_19
REMARK    7  A    between atoms: C_17  and  C_25
REMARK                            x       y       z     vdW  Elec       q    Type
REMARK                         _______ _______ _______ _____ _____    ______ ____
ROOT
ATOM      1  O   UNL     1       4.908   3.363  16.798  0.00  0.00    +0.000 OA
ATOM      2  C   UNL     1       4.549   4.212  17.621  0.00  0.00    +0.000 C 
ATOM      3  N   UNL     1       5.469   5.010  18.280  0.00  0.00    +0.000 N 
ATOM      4  H   UNL     1       5.131   5.828  18.767  0.00  0.00    +0.000 HD
ENDROOT
BRANCH   3   5
ATOM      5  C   UNL     1       6.903   4.969  17.954  0.00  0.00    +0.000 C 
ATOM      6  C   UNL     1       7.754   5.643  19.030  0.00  0.00    +0.000 C 
ATOM      7  C   UNL     1       7.636   7.168  19.010  0.00  0.00    +0.000 C 
ATOM      8  N   UNL     1       7.915   7.738  17.683  0.00  0.00    +0.000 NA
ATOM      9  C   UNL     1       7.062   7.129  16.648  0.00  0.00    +0.000 C 
ATOM     10  C   UNL     1       7.201   5.609  16.597  0.00  0.00    +0.000 C 
BRANCH   8  11
ATOM     11  C   UNL     1       7.713   9.204  17.672  0.00  0.00    +0.000 C 
BRANCH  11  12
ATOM     12  C   UNL     1       8.834  10.004  18.302  0.00  0.00    +0.000 A 
ATOM     13  C   UNL     1       9.672  10.804  17.515  0.00  0.00    +0.000 A 
ATOM     14  C   UNL     1      10.681  11.573  18.107  0.00  0.00    +0.000 A 
ATOM     15  C   UNL     1      10.857  11.548  19.489  0.00  0.00    +0.000 A 
ATOM     16  C   UNL     1      10.032  10.752  20.281  0.00  0.00    +0.000 A 
ATOM     17  C   UNL     1       9.024   9.985  19.693  0.00  0.00    +0.000 A 
ENDBRANCH  11  12
ENDBRANCH   8  11
ENDBRANCH   3   5
BRANCH   2  18
ATOM     18  C   UNL     1       3.018   4.354  17.992  0.00  0.00    +0.000 C 
BRANCH  18  19
ATOM     19  C   UNL     1       2.664   3.606  19.290  0.00  0.00    +0.000 A 
ATOM     20  C   UNL     1       3.631   3.068  20.150  0.00  0.00    +0.000 A 
ATOM     21  C   UNL     1       3.261   2.465  21.360  0.00  0.00    +0.000 A 
ATOM     22  C   UNL     1       1.922   2.407  21.742  0.00  0.00    +0.000 A 
ATOM     23  C   UNL     1       0.943   2.913  20.898  0.00  0.00    +0.000 A 
ATOM     24  C   UNL     1       1.310   3.479  19.677  0.00  0.00    +0.000 A 
ENDBRANCH  18  19
BRANCH  18  25
ATOM     25  C   UNL     1       2.489   5.822  18.009  0.00  0.00    +0.000 C 
ATOM     26  C   UNL     1       2.386   6.449  19.409  0.00  0.00    +0.000 C 
ATOM     27  C   UNL     1       2.282   7.954  19.161  0.00  0.00    +0.000 C 
ATOM     28  C   UNL     1       2.939   8.213  17.815  0.00  0.00    +0.000 C 
ATOM     29  C   UNL     1       3.397   6.852  17.311  0.00  0.00    +0.000 C 
ENDBRANCH  18  25
BRANCH  18  30
ATOM     30  O   UNL     1       2.340   3.651  16.924  0.00  0.00    +0.000 OA
ATOM     31  H   UNL     1       1.396   3.890  17.029  0.00  0.00    +0.000 HD
ENDBRANCH  18  30
ENDBRANCH   2  18
TORSDOF 7
ENDMDL
MODEL 9
REMARK VINA RESULT:      -7.4      3.542      6.056
REMARK  Name = 
REMARK  7 active torsions:
REMARK  status: ('A' for Active; 'I' for Inactive)
REMARK    1  A    between atoms: C_2  and  C_17
REMARK    2  A    between atoms: N_3  and  C_4
REMARK    3  A    between atoms: N_7  and  C_8
REMARK    4  A    between atoms: C_8  and  C_9
REMARK    5  A    between atoms: C_17  and  O_18
REMARK    6  A    between atoms: C_17  and  C_19
REMARK    7  A    between atoms: C_17  and  C_25
REMARK                            x       y       z     vdW  Elec       q    Type
REMARK                         _______ _______ _______ _____ _____    ______ ____
ROOT
ATOM      1  O   UNL     1       4.774   4.557  20.051  0.00  0.00    +0.000 OA
ATOM      2  C   UNL     1       4.047   5.292  19.374  0.00  0.00    +0.000 C 
ATOM      3  N   UNL     1       4.535   5.962  18.265  0.00  0.00    +0.000 N 
ATOM      4  H   UNL     1       3.871   6.366  17.619  0.00  0.00    +0.000 HD
ENDROOT
BRANCH   3   5
ATOM      5  C   UNL     1       5.903   5.747  17.770  0.00  0.00    +0.000 C 
ATOM      6  C   UNL     1       6.246   6.681  16.609  0.00  0.00    +0.000 C 
ATOM      7  C   UNL     1       5.549   6.288  15.307  0.00  0.00    +0.000 C 
ATOM      8  N   UNL     1       5.788   4.884  14.941  0.00  0.00    +0.000 NA
ATOM      9  C   UNL     1       5.411   3.973  16.036  0.00  0.00    +0.000 C 
ATOM     10  C   UNL     1       6.136   4.297  17.340  0.00  0.00    +0.000 C 
BRANCH   8  11
ATOM     11  C   UNL     1       5.036   4.508  13.722  0.00  0.00    +0.000 C 
BRANCH  11  12
ATOM     12  C   UNL     1       5.779   3.588  12.776  0.00  0.00    +0.000 A 
ATOM     13  C   UNL     1       5.108   2.558  12.106  0.00  0.00    +0.000 A 
ATOM     14  C   UNL     1       5.791   1.736  11.201  0.00  0.00    +0.000 A 
ATOM     15  C   UNL     1       7.148   1.941  10.961  0.00  0.00    +0.000 A 
ATOM     16  C   UNL     1       7.826   2.959  11.626  0.00  0.00    +0.000 A 
ATOM     17  C   UNL     1       7.147   3.781  12.527  0.00  0.00    +0.000 A 
ENDBRANCH  11  12
ENDBRANCH   8  11
ENDBRANCH   3   5
BRANCH   2  18
ATOM     18  C   UNL     1       2.547   5.538  19.811  0.00  0.00    +0.000 C 
BRANCH  18  19
ATOM     19  C   UNL     1       2.073   6.965  19.479  0.00  0.00    +0.000 A 
ATOM     20  C   UNL     1       1.589   7.854  20.449  0.00  0.00    +0.000 A 
ATOM     21  C   UNL     1       1.243   9.168  20.109  0.00  0.00    +0.000 A 
ATOM     22  C   UNL     1       1.393   9.625  18.801  0.00  0.00    +0.000 A 
ATOM     23  C   UNL     1       1.850   8.758  17.818  0.00  0.00    +0.000 A 
ATOM     24  C   UNL     1       2.158   7.439  18.150  0.00  0.00    +0.000 A 
ENDBRANCH  18  19
BRANCH  18  25
ATOM     25  C   UNL     1       1.539   4.462  19.300  0.00  0.00    +0.000 C 
ATOM     26  C   UNL     1       2.080   3.557  18.181  0.00  0.00    +0.000 C 
ATOM     27  C   UNL     1       1.135   2.356  18.152  0.00  0.00    +0.000 C 
ATOM     28  C   UNL     1       0.531   2.253  19.543  0.00  0.00    +0.000 C 
ATOM     29  C   UNL     1       1.131   3.402  20.340  0.00  0.00    +0.000 C 
ENDBRANCH  18  25
BRANCH  18  30
ATOM     30  O   UNL     1       2.592   5.453  21.254  0.00  0.00    +0.000 OA
ATOM     31  H   UNL     1       1.983   4.720  21.479  0.00  0.00    +0.000 HD
ENDBRANCH  18  30
ENDBRANCH   2  18
TORSDOF 7
ENDMDL
