MODEL 1
REMARK VINA RESULT:      -7.6      0.000      0.000
REMARK  Name = 
REMARK  8 active torsions:
REMARK  status: ('A' for Active; 'I' for Inactive)
REMARK    1  A    between atoms: C_1  and  C_2
REMARK    2  A    between atoms: C_2  and  C_3
REMARK    3  A    between atoms: C_2  and  C_4
REMARK    4  A    between atoms: C_4  and  C_5
REMARK    5  A    between atoms: N_10  and  C_11
REMARK    6  A    between atoms: C_11  and  C_12
REMARK    7  A    between atoms: C_14  and  C_15
REMARK    8  A    between atoms: N_22  and  C_23
REMARK                            x       y       z     vdW  Elec       q    Type
REMARK                         _______ _______ _______ _____ _____    ______ ____
ROOT
ATOM      1  C   UNL     1       7.047   5.962  16.560  0.00  0.00    +0.000 C 
ENDROOT
BRANCH   1   7
ATOM      2  C   UNL     1       2.653   3.731  17.533  0.00  0.00    +0.000 C 
ATOM      3  O   UNL     1       2.486   2.584  17.128  0.00  0.00    +0.000 OA
ATOM      4  N   UNL     1       3.716   4.522  17.106  0.00  0.00    +0.000 N 
ATOM      5  C   UNL     1       4.606   4.024  16.056  0.00  0.00    +0.000 C 
ATOM      6  C   UNL     1       5.196   5.174  15.196  0.00  0.00    +0.000 C 
ATOM      7  N   UNL     1       5.755   6.327  15.957  0.00  0.00    +0.000 NA
ATOM      8  C   UNL     1       4.731   6.768  16.929  0.00  0.00    +0.000 C 
ATOM      9  C   UNL     1       4.236   5.661  17.867  0.00  0.00    +0.000 C 
BRANCH   2  10
ATOM     10  C   UNL     1       1.688   4.410  18.501  0.00  0.00    +0.000 C 
BRANCH  10  12
ATOM     11  C   UNL     1       1.697   5.449  20.763  0.00  0.00    +0.000 C 
ATOM     12  C   UNL     1       1.910   4.139  19.994  0.00  0.00    +0.000 C 
ATOM     13  C   UNL     1       0.968   3.073  20.554  0.00  0.00    +0.000 C 
ENDBRANCH  10  12
ENDBRANCH   2  10
ENDBRANCH   1   7
BRANCH   1  14
ATOM     14  C   UNL     1       7.625   7.004  17.459  0.00  0.00    +0.000 A 
ATOM     15  C   UNL     1       7.815   8.353  17.224  0.00  0.00    +0.000 A 
ATOM     16  C   UNL     1       8.445   8.872  18.382  0.00  0.00    +0.000 A 
ATOM     17  N   UNL     1       8.601   7.905  19.298  0.00  0.00    +0.000 NA
ATOM     18  N   UNL     1       8.083   6.798  18.734  0.00  0.00    +0.000 N 
ATOM     19  C   UNL     1       8.080   5.577  19.505  0.00  0.00    +0.000 C 
BRANCH  16  20
ATOM     20  C   UNL     1       8.922  10.233  18.616  0.00  0.00    +0.000 A 
ATOM     21  C   UNL     1       8.645  11.265  17.718  0.00  0.00    +0.000 A 
ATOM     22  C   UNL     1       9.156  12.525  17.984  0.00  0.00    +0.000 A 
ATOM     23  N   UNL     1       9.916  12.819  19.060  0.00  0.00    +0.000 NA
ATOM     24  C   UNL     1      10.164  11.807  19.920  0.00  0.00    +0.000 A 
ATOM     25  C   UNL     1       9.692  10.519  19.746  0.00  0.00    +0.000 A 
ENDBRANCH  16  20
ENDBRANCH   1  14
TORSDOF 5
ENDMDL
MODEL 2
REMARK VINA RESULT:      -7.5      0.973      1.466
REMARK  Name = 
REMARK  8 active torsions:
REMARK  status: ('A' for Active; 'I' for Inactive)
REMARK    1  A    between atoms: C_1  and  C_2
REMARK    2  A    between atoms: C_2  and  C_3
REMARK    3  A    between atoms: C_2  and  C_4
REMARK    4  A    between atoms: C_4  and  C_5
REMARK    5  A    between atoms: N_10  and  C_11
REMARK    6  A    between atoms: C_11  and  C_12
REMARK    7  A    between atoms: C_14  and  C_15
REMARK    8  A    between atoms: N_22  and  C_23
REMARK                            x       y       z     vdW  Elec       q    Type
REMARK                         _______ _______ _______ _____ _____    ______ ____
ROOT
ATOM      1  C   UNL     1       6.610   5.848  16.740  0.00  0.00    +0.000 C 
ENDROOT
BRANCH   1   7
ATOM      2  C   UNL     1       3.567   2.493  18.911  0.00  0.00    +0.000 C 
ATOM      3  O   UNL     1       3.438   1.397  18.371  0.00  0.00    +0.000 OA
ATOM      4  N   UNL     1       4.175   3.569  18.270  0.00  0.00    +0.000 N 
ATOM      5  C   UNL     1       4.575   3.438  16.867  0.00  0.00    +0.000 C 
ATOM      6  C   UNL     1       4.513   4.792  16.113  0.00  0.00    +0.000 C 
ATOM      7  N   UNL     1       5.144   5.950  16.809  0.00  0.00    +0.000 NA
ATOM      8  C   UNL     1       4.600   6.001  18.184  0.00  0.00    +0.000 C 
ATOM      9  C   UNL     1       4.774   4.702  18.979  0.00  0.00    +0.000 C 
BRANCH   2  10
ATOM     10  C   UNL     1       3.033   2.789  20.310  0.00  0.00    +0.000 C 
BRANCH  10  12
ATOM     11  C   UNL     1       1.456   4.702  20.537  0.00  0.00    +0.000 C 
ATOM     12  C   UNL     1       1.553   3.176  20.410  0.00  0.00    +0.000 C 
ATOM     13  C   UNL     1       0.734   2.724  19.200  0.00  0.00    +0.000 C 
ENDBRANCH  10  12
ENDBRANCH   2  10
ENDBRANCH   1   7
BRANCH   1  14
ATOM     14  C   UNL     1       7.338   6.883  17.531  0.00  0.00    +0.000 A 
ATOM     15  C   UNL     1       7.454   8.241  17.297  0.00  0.00    +0.000 A 
ATOM     16  C   UNL     1       8.294   8.749  18.318  0.00  0.00    +0.000 A 
ATOM     17  N   UNL     1       8.648   7.767  19.159  0.00  0.00    +0.000 NA
ATOM     18  N   UNL     1       8.047   6.661  18.683  0.00  0.00    +0.000 N 
ATOM     19  C   UNL     1       8.220   5.424  19.408  0.00  0.00    +0.000 C 
BRANCH  16  20
ATOM     20  C   UNL     1       8.784  10.115  18.487  0.00  0.00    +0.000 A 
ATOM     21  C   UNL     1       9.592  10.470  19.568  0.00  0.00    +0.000 A 
ATOM     22  C   UNL     1       9.994  11.790  19.685  0.00  0.00    +0.000 A 
ATOM     23  N   UNL     1       9.646  12.765  18.818  0.00  0.00    +0.000 NA
ATOM     24  C   UNL     1       8.870  12.398  17.776  0.00  0.00    +0.000 A 
ATOM     25  C   UNL     1       8.425  11.105  17.568  0.00  0.00    +0.000 A 
ENDBRANCH  16  20
ENDBRANCH   1  14
TORSDOF 5
ENDMDL
MODEL 3
REMARK VINA RESULT:      -7.4      0.946      1.230
REMARK  Name = 
REMARK  8 active torsions:
REMARK  status: ('A' for Active; 'I' for Inactive)
REMARK    1  A    between atoms: C_1  and  C_2
REMARK    2  A    between atoms: C_2  and  C_3
REMARK    3  A    between atoms: C_2  and  C_4
REMARK    4  A    between atoms: C_4  and  C_5
REMARK    5  A    between atoms: N_10  and  C_11
REMARK    6  A    between atoms: C_11  and  C_12
REMARK    7  A    between atoms: C_14  and  C_15
REMARK    8  A    between atoms: N_22  and  C_23
REMARK                            x       y       z     vdW  Elec       q    Type
REMARK                         _______ _______ _______ _____ _____    ______ ____
ROOT
ATOM      1  C   UNL     1       6.754   6.189  16.592  0.00  0.00    +0.000 C 
ENDROOT
BRANCH   1   7
ATOM      2  C   UNL     1       3.860   2.717  18.782  0.00  0.00    +0.000 C 
ATOM      3  O   UNL     1       3.751   1.625  18.231  0.00  0.00    +0.000 OA
ATOM      4  N   UNL     1       4.421   3.819  18.143  0.00  0.00    +0.000 N 
ATOM      5  C   UNL     1       4.794   3.717  16.731  0.00  0.00    +0.000 C 
ATOM      6  C   UNL     1       4.675   5.079  15.996  0.00  0.00    +0.000 C 
ATOM      7  N   UNL     1       5.287   6.246  16.694  0.00  0.00    +0.000 NA
ATOM      8  C   UNL     1       4.772   6.264  18.080  0.00  0.00    +0.000 C 
ATOM      9  C   UNL     1       5.002   4.960  18.854  0.00  0.00    +0.000 C 
BRANCH   2  10
ATOM     10  C   UNL     1       3.347   2.980  20.196  0.00  0.00    +0.000 C 
BRANCH  10  12
ATOM     11  C   UNL     1       1.311   2.658  21.592  0.00  0.00    +0.000 C 
ATOM     12  C   UNL     1       1.863   3.337  20.332  0.00  0.00    +0.000 C 
ATOM     13  C   UNL     1       1.618   4.844  20.430  0.00  0.00    +0.000 C 
ENDBRANCH  10  12
ENDBRANCH   2  10
ENDBRANCH   1   7
BRANCH   1  14
ATOM     14  C   UNL     1       7.472   7.135  17.496  0.00  0.00    +0.000 A 
ATOM     15  C   UNL     1       7.635   8.503  17.378  0.00  0.00    +0.000 A 
ATOM     16  C   UNL     1       8.440   8.901  18.473  0.00  0.00    +0.000 A 
ATOM     17  N   UNL     1       8.728   7.845  19.247  0.00  0.00    +0.000 NA
ATOM     18  N   UNL     1       8.119   6.799  18.656  0.00  0.00    +0.000 N 
ATOM     19  C   UNL     1       8.225   5.504  19.286  0.00  0.00    +0.000 C 
BRANCH  16  20
ATOM     20  C   UNL     1       8.959  10.234  18.774  0.00  0.00    +0.000 A 
ATOM     21  C   UNL     1       9.100  11.201  17.777  0.00  0.00    +0.000 A 
ATOM     22  C   UNL     1       9.630  12.433  18.124  0.00  0.00    +0.000 A 
ATOM     23  N   UNL     1      10.029  12.758  19.373  0.00  0.00    +0.000 NA
ATOM     24  C   UNL     1       9.876  11.810  20.322  0.00  0.00    +0.000 A 
ATOM     25  C   UNL     1       9.350  10.555  20.076  0.00  0.00    +0.000 A 
ENDBRANCH  16  20
ENDBRANCH   1  14
TORSDOF 5
ENDMDL
MODEL 4
REMARK VINA RESULT:      -7.1      4.073      6.506
REMARK  Name = 
REMARK  8 active torsions:
REMARK  status: ('A' for Active; 'I' for Inactive)
REMARK    1  A    between atoms: C_1  and  C_2
REMARK    2  A    between atoms: C_2  and  C_3
REMARK    3  A    between atoms: C_2  and  C_4
REMARK    4  A    between atoms: C_4  and  C_5
REMARK    5  A    between atoms: N_10  and  C_11
REMARK    6  A    between atoms: C_11  and  C_12
REMARK    7  A    between atoms: C_14  and  C_15
REMARK    8  A    between atoms: N_22  and  C_23
REMARK                            x       y       z     vdW  Elec       q    Type
REMARK                         _______ _______ _______ _____ _____    ______ ____
ROOT
ATOM      1  C   UNL     1       4.048   4.328  19.039  0.00  0.00    +0.000 C 
ENDROOT
BRANCH   1   7
ATOM      2  C   UNL     1       1.342   8.237  20.660  0.00  0.00    +0.000 C 
ATOM      3  O   UNL     1       1.050   8.281  21.853  0.00  0.00    +0.000 OA
ATOM      4  N   UNL     1       1.861   7.089  20.066  0.00  0.00    +0.000 N 
ATOM      5  C   UNL     1       1.962   5.857  20.849  0.00  0.00    +0.000 C 
ATOM      6  C   UNL     1       1.817   4.589  19.965  0.00  0.00    +0.000 C 
ATOM      7  N   UNL     1       2.634   4.574  18.718  0.00  0.00    +0.000 NA
ATOM      8  C   UNL     1       2.383   5.841  17.998  0.00  0.00    +0.000 C 
ATOM      9  C   UNL     1       2.648   7.101  18.831  0.00  0.00    +0.000 C 
BRANCH   2  10
ATOM     10  C   UNL     1       1.117   9.412  19.713  0.00  0.00    +0.000 C 
BRANCH  10  12
ATOM     11  C   UNL     1      -0.238  11.348  20.497  0.00  0.00    +0.000 C 
ATOM     12  C   UNL     1      -0.284  10.032  19.710  0.00  0.00    +0.000 C 
ATOM     13  C   UNL     1      -0.811  10.312  18.301  0.00  0.00    +0.000 C 
ENDBRANCH  10  12
ENDBRANCH   2  10
ENDBRANCH   1   7
BRANCH   1  14
ATOM     14  C   UNL     1       4.987   4.547  17.900  0.00  0.00    +0.000 A 
ATOM     15  C   UNL     1       4.809   4.274  16.556  0.00  0.00    +0.000 A 
ATOM     16  C   UNL     1       6.023   4.624  15.916  0.00  0.00    +0.000 A 
ATOM     17  N   UNL     1       6.891   5.122  16.809  0.00  0.00    +0.000 NA
ATOM     18  N   UNL     1       6.243   5.088  17.988  0.00  0.00    +0.000 N 
ATOM     19  C   UNL     1       6.923   5.598  19.155  0.00  0.00    +0.000 C 
BRANCH  16  20
ATOM     20  C   UNL     1       6.379   4.465  14.508  0.00  0.00    +0.000 A 
ATOM     21  C   UNL     1       5.687   3.581  13.678  0.00  0.00    +0.000 A 
ATOM     22  C   UNL     1       6.099   3.455  12.361  0.00  0.00    +0.000 A 
ATOM     23  N   UNL     1       7.138   4.132  11.827  0.00  0.00    +0.000 NA
ATOM     24  C   UNL     1       7.787   4.987  12.646  0.00  0.00    +0.000 A 
ATOM     25  C   UNL     1       7.447   5.188  13.971  0.00  0.00    +0.000 A 
ENDBRANCH  16  20
ENDBRANCH   1  14
TORSDOF 5
ENDMDL
MODEL 5
REMARK VINA RESULT:      -7.0      3.939      6.466
REMARK  Name = 
REMARK  8 active torsions:
REMARK  status: ('A' for Active; 'I' for Inactive)
REMARK    1  A    between atoms: C_1  and  C_2
REMARK    2  A    between atoms: C_2  and  C_3
REMARK    3  A    between atoms: C_2  and  C_4
REMARK    4  A    between atoms: C_4  and  C_5
REMARK    5  A    between atoms: N_10  and  C_11
REMARK    6  A    between atoms: C_11  and  C_12
REMARK    7  A    between atoms: C_14  and  C_15
REMARK    8  A    between atoms: N_22  and  C_23
REMARK                            x       y       z     vdW  Elec       q    Type
REMARK                         _______ _______ _______ _____ _____    ______ ____
ROOT
ATOM      1  C   UNL     1       4.406   5.033  19.096  0.00  0.00    +0.000 C 
ENDROOT
BRANCH   1   7
ATOM      2  C   UNL     1       1.150   8.570  20.551  0.00  0.00    +0.000 C 
ATOM      3  O   UNL     1       0.811   8.591  21.731  0.00  0.00    +0.000 OA
ATOM      4  N   UNL     1       1.837   7.494  19.995  0.00  0.00    +0.000 N 
ATOM      5  C   UNL     1       2.070   6.295  20.804  0.00  0.00    +0.000 C 
ATOM      6  C   UNL     1       2.127   5.009  19.938  0.00  0.00    +0.000 C 
ATOM      7  N   UNL     1       2.984   5.085  18.721  0.00  0.00    +0.000 NA
ATOM      8  C   UNL     1       2.596   6.299  17.970  0.00  0.00    +0.000 C 
ATOM      9  C   UNL     1       2.662   7.594  18.789  0.00  0.00    +0.000 C 
BRANCH   2  10
ATOM     10  C   UNL     1       0.808   9.693  19.575  0.00  0.00    +0.000 C 
BRANCH  10  12
ATOM     11  C   UNL     1      -0.707  11.540  20.276  0.00  0.00    +0.000 C 
ATOM     12  C   UNL     1      -0.646  10.178  19.571  0.00  0.00    +0.000 C 
ATOM     13  C   UNL     1      -1.224  10.320  18.162  0.00  0.00    +0.000 C 
ENDBRANCH  10  12
ENDBRANCH   2  10
ENDBRANCH   1   7
BRANCH   1  14
ATOM     14  C   UNL     1       5.350   5.040  17.940  0.00  0.00    +0.000 A 
ATOM     15  C   UNL     1       5.099   4.780  16.605  0.00  0.00    +0.000 A 
ATOM     16  C   UNL     1       6.348   4.872  15.942  0.00  0.00    +0.000 A 
ATOM     17  N   UNL     1       7.311   5.208  16.812  0.00  0.00    +0.000 NA
ATOM     18  N   UNL     1       6.689   5.326  17.999  0.00  0.00    +0.000 N 
ATOM     19  C   UNL     1       7.476   5.715  19.146  0.00  0.00    +0.000 C 
BRANCH  16  20
ATOM     20  C   UNL     1       6.642   4.618  14.534  0.00  0.00    +0.000 A 
ATOM     21  C   UNL     1       7.613   5.351  13.850  0.00  0.00    +0.000 A 
ATOM     22  C   UNL     1       7.818   5.082  12.507  0.00  0.00    +0.000 A 
ATOM     23  N   UNL     1       7.128   4.154  11.809  0.00  0.00    +0.000 NA
ATOM     24  C   UNL     1       6.199   3.452  12.492  0.00  0.00    +0.000 A 
ATOM     25  C   UNL     1       5.928   3.641  13.835  0.00  0.00    +0.000 A 
ENDBRANCH  16  20
ENDBRANCH   1  14
TORSDOF 5
ENDMDL
MODEL 6
REMARK VINA RESULT:      -6.5      3.871      6.622
REMARK  Name = 
REMARK  8 active torsions:
REMARK  status: ('A' for Active; 'I' for Inactive)
REMARK    1  A    between atoms: C_1  and  C_2
REMARK    2  A    between atoms: C_2  and  C_3
REMARK    3  A    between atoms: C_2  and  C_4
REMARK    4  A    between atoms: C_4  and  C_5
REMARK    5  A    between atoms: N_10  and  C_11
REMARK    6  A    between atoms: C_11  and  C_12
REMARK    7  A    between atoms: C_14  and  C_15
REMARK    8  A    between atoms: N_22  and  C_23
REMARK                            x       y       z     vdW  Elec       q    Type
REMARK                         _______ _______ _______ _____ _____    ______ ____
ROOT
ATOM      1  C   UNL     1       4.426   5.376  19.086  0.00  0.00    +0.000 C 
ENDROOT
BRANCH   1   7
ATOM      2  C   UNL     1       0.976   8.623  20.754  0.00  0.00    +0.000 C 
ATOM      3  O   UNL     1       0.687   8.595  21.947  0.00  0.00    +0.000 OA
ATOM      4  N   UNL     1       1.719   7.614  20.146  0.00  0.00    +0.000 N 
ATOM      5  C   UNL     1       2.077   6.422  20.918  0.00  0.00    +0.000 C 
ATOM      6  C   UNL     1       2.194   5.160  20.021  0.00  0.00    +0.000 C 
ATOM      7  N   UNL     1       2.990   5.326  18.772  0.00  0.00    +0.000 NA
ATOM      8  C   UNL     1       2.478   6.520  18.065  0.00  0.00    +0.000 C 
ATOM      9  C   UNL     1       2.480   7.800  18.909  0.00  0.00    +0.000 C 
BRANCH   2  10
ATOM     10  C   UNL     1       0.507   9.735  19.819  0.00  0.00    +0.000 C 
BRANCH  10  12
ATOM     11  C   UNL     1       0.954  12.029  18.962  0.00  0.00    +0.000 C 
ATOM     12  C   UNL     1       0.860  11.169  20.229  0.00  0.00    +0.000 C 
ATOM     13  C   UNL     1      -0.166  11.789  21.178  0.00  0.00    +0.000 C 
ENDBRANCH  10  12
ENDBRANCH   2  10
ENDBRANCH   1   7
BRANCH   1  14
ATOM     14  C   UNL     1       5.322   5.279  17.896  0.00  0.00    +0.000 A 
ATOM     15  C   UNL     1       5.004   4.973  16.586  0.00  0.00    +0.000 A 
ATOM     16  C   UNL     1       6.228   4.965  15.873  0.00  0.00    +0.000 A 
ATOM     17  N   UNL     1       7.243   5.284  16.689  0.00  0.00    +0.000 NA
ATOM     18  N   UNL     1       6.676   5.491  17.892  0.00  0.00    +0.000 N 
ATOM     19  C   UNL     1       7.528   5.886  18.989  0.00  0.00    +0.000 C 
BRANCH  16  20
ATOM     20  C   UNL     1       6.451   4.632  14.467  0.00  0.00    +0.000 A 
ATOM     21  C   UNL     1       5.600   3.762  13.782  0.00  0.00    +0.000 A 
ATOM     22  C   UNL     1       5.889   3.463  12.461  0.00  0.00    +0.000 A 
ATOM     23  N   UNL     1       6.952   3.957  11.790  0.00  0.00    +0.000 NA
ATOM     24  C   UNL     1       7.757   4.802  12.470  0.00  0.00    +0.000 A 
ATOM     25  C   UNL     1       7.548   5.168  13.787  0.00  0.00    +0.000 A 
ENDBRANCH  16  20
ENDBRANCH   1  14
TORSDOF 5
ENDMDL
MODEL 7
REMARK VINA RESULT:      -6.5      4.967      6.963
REMARK  Name = 
REMARK  8 active torsions:
REMARK  status: ('A' for Active; 'I' for Inactive)
REMARK    1  A    between atoms: C_1  and  C_2
REMARK    2  A    between atoms: C_2  and  C_3
REMARK    3  A    between atoms: C_2  and  C_4
REMARK    4  A    between atoms: C_4  and  C_5
REMARK    5  A    between atoms: N_10  and  C_11
REMARK    6  A    between atoms: C_11  and  C_12
REMARK    7  A    between atoms: C_14  and  C_15
REMARK    8  A    between atoms: N_22  and  C_23
REMARK                            x       y       z     vdW  Elec       q    Type
REMARK                         _______ _______ _______ _____ _____    ______ ____
ROOT
ATOM      1  C   UNL     1       3.890   5.947  18.799  0.00  0.00    +0.000 C 
ENDROOT
BRANCH   1   7
ATOM      2  C   UNL     1       0.869   9.832  19.803  0.00  0.00    +0.000 C 
ATOM      3  O   UNL     1       0.856  10.272  20.949  0.00  0.00    +0.000 OA
ATOM      4  N   UNL     1       1.467   8.616  19.480  0.00  0.00    +0.000 N 
ATOM      5  C   UNL     1       2.002   7.773  20.551  0.00  0.00    +0.000 C 
ATOM      6  C   UNL     1       1.928   6.264  20.197  0.00  0.00    +0.000 C 
ATOM      7  N   UNL     1       2.420   5.892  18.840  0.00  0.00    +0.000 NA
ATOM      8  C   UNL     1       1.750   6.774  17.859  0.00  0.00    +0.000 C 
ATOM      9  C   UNL     1       1.928   8.272  18.134  0.00  0.00    +0.000 C 
BRANCH   2  10
ATOM     10  C   UNL     1       0.190  10.549  18.638  0.00  0.00    +0.000 C 
BRANCH  10  12
ATOM     11  C   UNL     1      -1.988  11.726  18.898  0.00  0.00    +0.000 C 
ATOM     12  C   UNL     1      -1.330  10.390  18.528  0.00  0.00    +0.000 C 
ATOM     13  C   UNL     1      -1.788   9.980  17.128  0.00  0.00    +0.000 C 
ENDBRANCH  10  12
ENDBRANCH   2  10
ENDBRANCH   1   7
BRANCH   1  14
ATOM     14  C   UNL     1       4.506   5.173  17.681  0.00  0.00    +0.000 A 
ATOM     15  C   UNL     1       5.111   5.635  16.528  0.00  0.00    +0.000 A 
ATOM     16  C   UNL     1       5.475   4.486  15.784  0.00  0.00    +0.000 A 
ATOM     17  N   UNL     1       5.147   3.373  16.457  0.00  0.00    +0.000 NA
ATOM     18  N   UNL     1       4.588   3.807  17.602  0.00  0.00    +0.000 N 
ATOM     19  C   UNL     1       4.153   2.822  18.564  0.00  0.00    +0.000 C 
BRANCH  16  20
ATOM     20  C   UNL     1       6.085   4.426  14.457  0.00  0.00    +0.000 A 
ATOM     21  C   UNL     1       5.566   3.604  13.455  0.00  0.00    +0.000 A 
ATOM     22  C   UNL     1       6.214   3.569  12.231  0.00  0.00    +0.000 A 
ATOM     23  N   UNL     1       7.326   4.280  11.944  0.00  0.00    +0.000 NA
ATOM     24  C   UNL     1       7.805   5.073  12.926  0.00  0.00    +0.000 A 
ATOM     25  C   UNL     1       7.226   5.182  14.177  0.00  0.00    +0.000 A 
ENDBRANCH  16  20
ENDBRANCH   1  14
TORSDOF 5
ENDMDL
MODEL 8
REMARK VINA RESULT:      -6.5      5.359      8.118
REMARK  Name = 
REMARK  8 active torsions:
REMARK  status: ('A' for Active; 'I' for Inactive)
REMARK    1  A    between atoms: C_1  and  C_2
REMARK    2  A    between atoms: C_2  and  C_3
REMARK    3  A    between atoms: C_2  and  C_4
REMARK    4  A    between atoms: C_4  and  C_5
REMARK    5  A    between atoms: N_10  and  C_11
REMARK    6  A    between atoms: C_11  and  C_12
REMARK    7  A    between atoms: C_14  and  C_15
REMARK    8  A    between atoms: N_22  and  C_23
REMARK                            x       y       z     vdW  Elec       q    Type
REMARK                         _______ _______ _______ _____ _____    ______ ____
ROOT
ATOM      1  C   UNL     1       1.273   7.195  20.669  0.00  0.00    +0.000 C 
ENDROOT
BRANCH   1   7
ATOM      2  C   UNL     1      -1.423  11.354  21.487  0.00  0.00    +0.000 C 
ATOM      3  O   UNL     1      -2.072  11.814  20.551  0.00  0.00    +0.000 OA
ATOM      4  N   UNL     1      -0.456  10.369  21.307  0.00  0.00    +0.000 N 
ATOM      5  C   UNL     1      -0.112   9.940  19.949  0.00  0.00    +0.000 C 
ATOM      6  C   UNL     1       1.366   9.478  19.841  0.00  0.00    +0.000 C 
ATOM      7  N   UNL     1       1.829   8.538  20.900  0.00  0.00    +0.000 NA
ATOM      8  C   UNL     1       1.478   9.126  22.211  0.00  0.00    +0.000 C 
ATOM      9  C   UNL     1      -0.008   9.468  22.371  0.00  0.00    +0.000 C 
BRANCH   2  10
ATOM     10  C   UNL     1      -1.582  11.851  22.922  0.00  0.00    +0.000 C 
BRANCH  10  12
ATOM     11  C   UNL     1      -3.623  12.954  23.823  0.00  0.00    +0.000 C 
ATOM     12  C   UNL     1      -2.289  13.198  23.106  0.00  0.00    +0.000 C 
ATOM     13  C   UNL     1      -1.465  14.200  23.915  0.00  0.00    +0.000 C 
ENDBRANCH  10  12
ENDBRANCH   2  10
ENDBRANCH   1   7
BRANCH   1  14
ATOM     14  C   UNL     1       2.220   6.236  20.029  0.00  0.00    +0.000 A 
ATOM     15  C   UNL     1       3.434   6.485  19.416  0.00  0.00    +0.000 A 
ATOM     16  C   UNL     1       3.897   5.237  18.932  0.00  0.00    +0.000 A 
ATOM     17  N   UNL     1       3.035   4.263  19.260  0.00  0.00    +0.000 NA
ATOM     18  N   UNL     1       2.048   4.880  19.937  0.00  0.00    +0.000 N 
ATOM     19  C   UNL     1       0.968   4.073  20.455  0.00  0.00    +0.000 C 
BRANCH  16  20
ATOM     20  C   UNL     1       5.100   4.962  18.150  0.00  0.00    +0.000 A 
ATOM     21  C   UNL     1       6.375   5.132  18.694  0.00  0.00    +0.000 A 
ATOM     22  C   UNL     1       7.474   4.886  17.886  0.00  0.00    +0.000 A 
ATOM     23  N   UNL     1       7.390   4.497  16.596  0.00  0.00    +0.000 NA
ATOM     24  C   UNL     1       6.148   4.331  16.094  0.00  0.00    +0.000 A 
ATOM     25  C   UNL     1       4.991   4.543  16.822  0.00  0.00    +0.000 A 
ENDBRANCH  16  20
ENDBRANCH   1  14
TORSDOF 5
ENDMDL
MODEL 9
REMARK VINA RESULT:      -6.4      4.726      6.929
REMARK  Name = 
REMARK  8 active torsions:
REMARK  status: ('A' for Active; 'I' for Inactive)
REMARK    1  A    between atoms: C_1  and  C_2
REMARK    2  A    between atoms: C_2  and  C_3
REMARK    3  A    between atoms: C_2  and  C_4
REMARK    4  A    between atoms: C_4  and  C_5
REMARK    5  A    between atoms: N_10  and  C_11
REMARK    6  A    between atoms: C_11  and  C_12
REMARK    7  A    between atoms: C_14  and  C_15
REMARK    8  A    between atoms: N_22  and  C_23
REMARK                            x       y       z     vdW  Elec       q    Type
REMARK                         _______ _______ _______ _____ _____    ______ ____
ROOT
ATOM      1  C   UNL     1       3.998   6.963  18.390  0.00  0.00    +0.000 C 
ENDROOT
BRANCH   1   7
ATOM      2  C   UNL     1       0.555  10.187  20.115  0.00  0.00    +0.000 C 
ATOM      3  O   UNL     1       0.482  10.358  21.329  0.00  0.00    +0.000 OA
ATOM      4  N   UNL     1       1.287   9.143  19.555  0.00  0.00    +0.000 N 
ATOM      5  C   UNL     1       1.901   8.145  20.433  0.00  0.00    +0.000 C 
ATOM      6  C   UNL     1       1.999   6.752  19.754  0.00  0.00    +0.000 C 
ATOM      7  N   UNL     1       2.543   6.745  18.367  0.00  0.00    +0.000 NA
ATOM      8  C   UNL     1       1.790   7.745  17.580  0.00  0.00    +0.000 C 
ATOM      9  C   UNL     1       1.797   9.156  18.182  0.00  0.00    +0.000 C 
BRANCH   2  10
ATOM     10  C   UNL     1      -0.187  11.068  19.113  0.00  0.00    +0.000 C 
BRANCH  10  12
ATOM     11  C   UNL     1      -2.542  11.855  18.931  0.00  0.00    +0.000 C 
ATOM     12  C   UNL     1      -1.616  10.644  18.754  0.00  0.00    +0.000 C 
ATOM     13  C   UNL     1      -1.743  10.124  17.322  0.00  0.00    +0.000 C 
ENDBRANCH  10  12
ENDBRANCH   2  10
ENDBRANCH   1   7
BRANCH   1  14
ATOM     14  C   UNL     1       4.771   6.061  17.485  0.00  0.00    +0.000 A 
ATOM     15  C   UNL     1       5.148   6.257  16.170  0.00  0.00    +0.000 A 
ATOM     16  C   UNL     1       5.817   5.075  15.768  0.00  0.00    +0.000 A 
ATOM     17  N   UNL     1       5.884   4.210  16.791  0.00  0.00    +0.000 NA
ATOM     18  N   UNL     1       5.272   4.829  17.817  0.00  0.00    +0.000 N 
ATOM     19  C   UNL     1       5.211   4.146  19.088  0.00  0.00    +0.000 C 
BRANCH  16  20
ATOM     20  C   UNL     1       6.352   4.744  14.450  0.00  0.00    +0.000 A 
ATOM     21  C   UNL     1       7.477   5.393  13.938  0.00  0.00    +0.000 A 
ATOM     22  C   UNL     1       7.912   5.055  12.667  0.00  0.00    +0.000 A 
ATOM     23  N   UNL     1       7.308   4.136  11.882  0.00  0.00    +0.000 NA
ATOM     24  C   UNL     1       6.227   3.516  12.401  0.00  0.00    +0.000 A 
ATOM     25  C   UNL     1       5.722   3.778  13.662  0.00  0.00    +0.000 A 
ENDBRANCH  16  20
ENDBRANCH   1  14
TORSDOF 5
ENDMDL
