MODEL 1
REMARK VINA RESULT:      -7.8      0.000      0.000
REMARK  Name = 
REMARK  10 active torsions:
REMARK  status: ('A' for Active; 'I' for Inactive)
REMARK    1  A    between atoms: CB_1  and  CA_2
REMARK    2  A    between atoms: CA_2  and  C_3
REMARK    3  A    between atoms: CA_2  and  N_5
REMARK    4  A    between atoms: C_3  and  O_4
REMARK    5  A    between atoms: C_8  and  N_9
REMARK    6  A    between atoms: N_9  and  S_10
REMARK    7  A    between atoms: S_10  and  C_11
REMARK    8  A    between atoms: C_15  and  S_16
REMARK    9  A    between atoms: S_16  and  C_17
REMARK   10  A    between atoms: C_17  and  C_18
REMARK                            x       y       z     vdW  Elec       q    Type
REMARK                         _______ _______ _______ _____ _____    ______ ____
ROOT
ATOM      1  N   ALA A   1       3.684   3.792  19.649  0.00  0.00    +0.000 N 
ATOM      2  C   UNK A   0       3.896   4.881  18.771  0.00  0.00    +0.000 A 
ATOM      3  C   UNK A   0       5.079   4.932  18.078  0.00  0.00    +0.000 A 
ATOM      4  C   UNK A   0       5.277   6.055  17.315  0.00  0.00    +0.000 A 
ATOM      5  N   UNK A   0       4.409   7.063  17.178  0.00  0.00    +0.000 NA
ATOM      6  C   UNK A   0       3.291   6.927  17.905  0.00  0.00    +0.000 A 
ATOM      7  N   UNK A   0       3.009   5.884  18.707  0.00  0.00    +0.000 NA
ATOM      8  H   ALA A   1       4.000   2.944  19.174  0.00  0.00    +0.000 HD
ENDROOT
BRANCH   1  10
ATOM      9  CB  ALA A   1       2.326   3.005  21.505  0.00  0.00    +0.000 C 
ATOM     10  CA  ALA A   1       2.289   3.597  20.090  0.00  0.00    +0.000 C 
BRANCH  10  11
ATOM     11  C   ALA A   1       1.564   2.628  19.129  0.00  0.00    +0.000 C 
BRANCH  11  12
ATOM     12  O   ALA A   1       1.059   3.324  17.983  0.00  0.00    +0.000 OA
ATOM     13  H   ALA A   1       0.138   3.044  17.853  0.00  0.00    +0.000 HD
ENDBRANCH  11  12
ENDBRANCH  10  11
ENDBRANCH   1  10
BRANCH   4  14
ATOM     14  N   UNK A   0       6.506   6.275  16.659  0.00  0.00    +0.000 N 
ATOM     15  H   UNK A   0       6.548   7.158  16.156  0.00  0.00    +0.000 HD
BRANCH  14  16
ATOM     16  S   UNK A   0       7.191   5.010  15.811  0.00  0.00    +0.000 S 
ATOM     17  C   UNK A   0       5.777   4.083  15.244  0.00  0.00    +0.000 C 
ATOM     18  O   UNK A   0       7.803   5.608  14.643  0.00  0.00    +0.000 OA
ATOM     19  O   UNK A   0       7.958   4.183  16.718  0.00  0.00    +0.000 OA
ENDBRANCH  14  16
ENDBRANCH   4  14
BRANCH   6  20
ATOM     20  S   UNK A   0       2.126   8.267  17.959  0.00  0.00    +0.000 S 
BRANCH  20  21
ATOM     21  C   UNK A   0       1.765   8.343  19.741  0.00  0.00    +0.000 C 
BRANCH  21  22
ATOM     22  C   UNK A   0       0.766   9.439  20.031  0.00  0.00    +0.000 A 
ATOM     23  C   UNK A   0       0.369  10.340  19.033  0.00  0.00    +0.000 A 
ATOM     24  C   UNK A   0      -0.510  11.386  19.321  0.00  0.00    +0.000 A 
ATOM     25  C   UNK A   0      -1.003  11.550  20.616  0.00  0.00    +0.000 A 
ATOM     26  C   UNK A   0      -0.616  10.663  21.619  0.00  0.00    +0.000 A 
ATOM     27 CL   UNK A   0      -1.227  10.876  23.216  0.00  0.00    +0.000 Cl
ATOM     28  C   UNK A   0       0.259   9.616  21.325  0.00  0.00    +0.000 A 
ATOM     29  F   UNK A   0       0.628   8.759  22.292  0.00  0.00    +0.000 F 
ENDBRANCH  21  22
ENDBRANCH  20  21
ENDBRANCH   6  20
TORSDOF 8
ENDMDL
MODEL 2
REMARK VINA RESULT:      -7.4      2.238      2.560
REMARK  Name = 
REMARK  10 active torsions:
REMARK  status: ('A' for Active; 'I' for Inactive)
REMARK    1  A    between atoms: CB_1  and  CA_2
REMARK    2  A    between atoms: CA_2  and  C_3
REMARK    3  A    between atoms: CA_2  and  N_5
REMARK    4  A    between atoms: C_3  and  O_4
REMARK    5  A    between atoms: C_8  and  N_9
REMARK    6  A    between atoms: N_9  and  S_10
REMARK    7  A    between atoms: S_10  and  C_11
REMARK    8  A    between atoms: C_15  and  S_16
REMARK    9  A    between atoms: S_16  and  C_17
REMARK   10  A    between atoms: C_17  and  C_18
REMARK                            x       y       z     vdW  Elec       q    Type
REMARK                         _______ _______ _______ _____ _____    ______ ____
ROOT
ATOM      1  N   ALA A   1       2.887   3.621  19.374  0.00  0.00    +0.000 N 
ATOM      2  C   UNK A   0       3.059   4.896  18.788  0.00  0.00    +0.000 A 
ATOM      3  C   UNK A   0       4.000   5.033  17.799  0.00  0.00    +0.000 A 
ATOM      4  C   UNK A   0       4.196   6.308  17.332  0.00  0.00    +0.000 A 
ATOM      5  N   UNK A   0       3.531   7.394  17.739  0.00  0.00    +0.000 NA
ATOM      6  C   UNK A   0       2.643   7.160  18.716  0.00  0.00    +0.000 A 
ATOM      7  N   UNK A   0       2.393   5.958  19.266  0.00  0.00    +0.000 NA
ATOM      8  H   ALA A   1       2.897   2.930  18.620  0.00  0.00    +0.000 HD
ENDROOT
BRANCH   1  10
ATOM      9  CB  ALA A   1       2.033   2.794  21.495  0.00  0.00    +0.000 C 
ATOM     10  CA  ALA A   1       1.649   3.446  20.160  0.00  0.00    +0.000 C 
BRANCH  10  11
ATOM     11  C   ALA A   1       0.661   2.540  19.391  0.00  0.00    +0.000 C 
BRANCH  11  12
ATOM     12  O   ALA A   1       1.361   1.624  18.541  0.00  0.00    +0.000 OA
ATOM     13  H   ALA A   1       1.504   0.806  19.045  0.00  0.00    +0.000 HD
ENDBRANCH  11  12
ENDBRANCH  10  11
ENDBRANCH   1  10
BRANCH   4  14
ATOM     14  N   UNK A   0       5.223   6.589  16.407  0.00  0.00    +0.000 N 
ATOM     15  H   UNK A   0       5.140   6.074  15.535  0.00  0.00    +0.000 HD
BRANCH  14  16
ATOM     16  S   UNK A   0       6.794   6.671  16.968  0.00  0.00    +0.000 S 
ATOM     17  C   UNK A   0       6.735   5.745  18.491  0.00  0.00    +0.000 C 
ATOM     18  O   UNK A   0       7.584   5.898  16.031  0.00  0.00    +0.000 OA
ATOM     19  O   UNK A   0       7.126   8.047  17.269  0.00  0.00    +0.000 OA
ENDBRANCH  14  16
ENDBRANCH   4  14
BRANCH   6  20
ATOM     20  S   UNK A   0       1.810   8.534  19.475  0.00  0.00    +0.000 S 
BRANCH  20  21
ATOM     21  C   UNK A   0       1.043   9.320  18.024  0.00  0.00    +0.000 C 
BRANCH  21  22
ATOM     22  C   UNK A   0      -0.053  10.268  18.454  0.00  0.00    +0.000 A 
ATOM     23  C   UNK A   0       0.134  11.149  19.530  0.00  0.00    +0.000 A 
ATOM     24  C   UNK A   0      -0.902  11.982  19.961  0.00  0.00    +0.000 A 
ATOM     25  C   UNK A   0      -2.143  11.943  19.325  0.00  0.00    +0.000 A 
ATOM     26  C   UNK A   0      -2.343  11.071  18.255  0.00  0.00    +0.000 A 
ATOM     27 CL   UNK A   0      -3.881  11.027  17.478  0.00  0.00    +0.000 Cl
ATOM     28  C   UNK A   0      -1.304  10.244  17.825  0.00  0.00    +0.000 A 
ATOM     29  F   UNK A   0      -1.496   9.408  16.791  0.00  0.00    +0.000 F 
ENDBRANCH  21  22
ENDBRANCH  20  21
ENDBRANCH   6  20
TORSDOF 8
ENDMDL
MODEL 3
REMARK VINA RESULT:      -7.4      1.923      4.668
REMARK  Name = 
REMARK  10 active torsions:
REMARK  status: ('A' for Active; 'I' for Inactive)
REMARK    1  A    between atoms: CB_1  and  CA_2
REMARK    2  A    between atoms: CA_2  and  C_3
REMARK    3  A    between atoms: CA_2  and  N_5
REMARK    4  A    between atoms: C_3  and  O_4
REMARK    5  A    between atoms: C_8  and  N_9
REMARK    6  A    between atoms: N_9  and  S_10
REMARK    7  A    between atoms: S_10  and  C_11
REMARK    8  A    between atoms: C_15  and  S_16
REMARK    9  A    between atoms: S_16  and  C_17
REMARK   10  A    between atoms: C_17  and  C_18
REMARK                            x       y       z     vdW  Elec       q    Type
REMARK                         _______ _______ _______ _____ _____    ______ ____
ROOT
ATOM      1  N   ALA A   1       5.314   3.655  16.147  0.00  0.00    +0.000 N 
ATOM      2  C   UNK A   0       4.671   4.225  17.270  0.00  0.00    +0.000 A 
ATOM      3  C   UNK A   0       4.465   3.430  18.370  0.00  0.00    +0.000 A 
ATOM      4  C   UNK A   0       3.752   4.001  19.395  0.00  0.00    +0.000 A 
ATOM      5  N   UNK A   0       3.283   5.252  19.410  0.00  0.00    +0.000 NA
ATOM      6  C   UNK A   0       3.523   5.943  18.287  0.00  0.00    +0.000 A 
ATOM      7  N   UNK A   0       4.184   5.473  17.214  0.00  0.00    +0.000 NA
ATOM      8  H   ALA A   1       6.097   3.094  16.489  0.00  0.00    +0.000 HD
ENDROOT
BRANCH   1  10
ATOM      9  CB  ALA A   1       5.682   3.974  13.765  0.00  0.00    +0.000 C 
ATOM     10  CA  ALA A   1       5.820   4.619  15.150  0.00  0.00    +0.000 C 
BRANCH  10  11
ATOM     11  C   ALA A   1       7.304   4.944  15.439  0.00  0.00    +0.000 C 
BRANCH  11  12
ATOM     12  O   ALA A   1       7.441   5.660  16.672  0.00  0.00    +0.000 OA
ATOM     13  H   ALA A   1       8.388   5.833  16.806  0.00  0.00    +0.000 HD
ENDBRANCH  11  12
ENDBRANCH  10  11
ENDBRANCH   1  10
BRANCH   4  14
ATOM     14  N   UNK A   0       3.372   3.241  20.521  0.00  0.00    +0.000 N 
ATOM     15  H   UNK A   0       3.883   2.368  20.615  0.00  0.00    +0.000 HD
BRANCH  14  16
ATOM     16  S   UNK A   0       1.745   3.084  20.859  0.00  0.00    +0.000 S 
ATOM     17  C   UNK A   0       1.126   2.150  19.471  0.00  0.00    +0.000 C 
ATOM     18  O   UNK A   0       1.669   2.220  22.020  0.00  0.00    +0.000 OA
ATOM     19  O   UNK A   0       1.124   4.391  20.856  0.00  0.00    +0.000 OA
ENDBRANCH  14  16
ENDBRANCH   4  14
BRANCH   6  20
ATOM     20  S   UNK A   0       2.810   7.559  18.096  0.00  0.00    +0.000 S 
BRANCH  20  21
ATOM     21  C   UNK A   0       2.093   7.821  19.748  0.00  0.00    +0.000 C 
BRANCH  21  22
ATOM     22  C   UNK A   0       1.141   8.993  19.732  0.00  0.00    +0.000 A 
ATOM     23  C   UNK A   0       0.836   9.661  18.536  0.00  0.00    +0.000 A 
ATOM     24  C   UNK A   0       0.001  10.781  18.535  0.00  0.00    +0.000 A 
ATOM     25  C   UNK A   0      -0.539  11.253  19.732  0.00  0.00    +0.000 A 
ATOM     26  C   UNK A   0      -0.244  10.600  20.928  0.00  0.00    +0.000 A 
ATOM     27 CL   UNK A   0      -0.913  11.193  22.401  0.00  0.00    +0.000 Cl
ATOM     28  C   UNK A   0       0.587   9.479  20.923  0.00  0.00    +0.000 A 
ATOM     29  F   UNK A   0       0.867   8.847  22.076  0.00  0.00    +0.000 F 
ENDBRANCH  21  22
ENDBRANCH  20  21
ENDBRANCH   6  20
TORSDOF 8
ENDMDL
MODEL 4
REMARK VINA RESULT:      -7.2      2.529      4.777
REMARK  Name = 
REMARK  10 active torsions:
REMARK  status: ('A' for Active; 'I' for Inactive)
REMARK    1  A    between atoms: CB_1  and  CA_2
REMARK    2  A    between atoms: CA_2  and  C_3
REMARK    3  A    between atoms: CA_2  and  N_5
REMARK    4  A    between atoms: C_3  and  O_4
REMARK    5  A    between atoms: C_8  and  N_9
REMARK    6  A    between atoms: N_9  and  S_10
REMARK    7  A    between atoms: S_10  and  C_11
REMARK    8  A    between atoms: C_15  and  S_16
REMARK    9  A    between atoms: S_16  and  C_17
REMARK   10  A    between atoms: C_17  and  C_18
REMARK                            x       y       z     vdW  Elec       q    Type
REMARK                         _______ _______ _______ _____ _____    ______ ____
ROOT
ATOM      1  N   ALA A   1       5.017   4.523  16.988  0.00  0.00    +0.000 N 
ATOM      2  C   UNK A   0       4.218   5.267  17.887  0.00  0.00    +0.000 A 
ATOM      3  C   UNK A   0       3.875   4.685  19.082  0.00  0.00    +0.000 A 
ATOM      4  C   UNK A   0       3.020   5.409  19.875  0.00  0.00    +0.000 A 
ATOM      5  N   UNK A   0       2.534   6.620  19.589  0.00  0.00    +0.000 NA
ATOM      6  C   UNK A   0       2.916   7.097  18.395  0.00  0.00    +0.000 A 
ATOM      7  N   UNK A   0       3.725   6.461  17.528  0.00  0.00    +0.000 NA
ATOM      8  H   ALA A   1       5.754   4.069  17.532  0.00  0.00    +0.000 HD
ENDROOT
BRANCH   1  10
ATOM      9  CB  ALA A   1       5.853   4.357  14.711  0.00  0.00    +0.000 C 
ATOM     10  CA  ALA A   1       5.641   5.303  15.901  0.00  0.00    +0.000 C 
BRANCH  10  11
ATOM     11  C   ALA A   1       6.998   5.872  16.374  0.00  0.00    +0.000 C 
BRANCH  11  12
ATOM     12  O   ALA A   1       6.857   7.224  16.827  0.00  0.00    +0.000 OA
ATOM     13  H   ALA A   1       7.225   7.272  17.725  0.00  0.00    +0.000 HD
ENDBRANCH  11  12
ENDBRANCH  10  11
ENDBRANCH   1  10
BRANCH   4  14
ATOM     14  N   UNK A   0       2.501   4.859  21.065  0.00  0.00    +0.000 N 
ATOM     15  H   UNK A   0       3.006   5.142  21.901  0.00  0.00    +0.000 HD
BRANCH  14  16
ATOM     16  S   UNK A   0       2.080   3.243  21.076  0.00  0.00    +0.000 S 
ATOM     17  C   UNK A   0       0.837   3.135  19.802  0.00  0.00    +0.000 C 
ATOM     18  O   UNK A   0       3.247   2.533  20.592  0.00  0.00    +0.000 OA
ATOM     19  O   UNK A   0       1.476   2.911  22.348  0.00  0.00    +0.000 OA
ENDBRANCH  14  16
ENDBRANCH   4  14
BRANCH   6  20
ATOM     20  S   UNK A   0       2.212   8.618  17.806  0.00  0.00    +0.000 S 
BRANCH  20  21
ATOM     21  C   UNK A   0       1.272   9.156  19.269  0.00  0.00    +0.000 C 
BRANCH  21  22
ATOM     22  C   UNK A   0       0.265  10.217  18.889  0.00  0.00    +0.000 A 
ATOM     23  C   UNK A   0      -0.918   9.884  18.213  0.00  0.00    +0.000 A 
ATOM     24  C   UNK A   0      -1.817  10.875  17.813  0.00  0.00    +0.000 A 
ATOM     25  C   UNK A   0      -1.544  12.217  18.079  0.00  0.00    +0.000 A 
ATOM     26  C   UNK A   0      -0.371  12.564  18.750  0.00  0.00    +0.000 A 
ATOM     27 CL   UNK A   0      -0.041  14.224  19.070  0.00  0.00    +0.000 Cl
ATOM     28  C   UNK A   0       0.522  11.569  19.152  0.00  0.00    +0.000 A 
ATOM     29  F   UNK A   0       1.650  11.903  19.801  0.00  0.00    +0.000 F 
ENDBRANCH  21  22
ENDBRANCH  20  21
ENDBRANCH   6  20
TORSDOF 8
ENDMDL
MODEL 5
REMARK VINA RESULT:      -7.2      1.548      1.755
REMARK  Name = 
REMARK  10 active torsions:
REMARK  status: ('A' for Active; 'I' for Inactive)
REMARK    1  A    between atoms: CB_1  and  CA_2
REMARK    2  A    between atoms: CA_2  and  C_3
REMARK    3  A    between atoms: CA_2  and  N_5
REMARK    4  A    between atoms: C_3  and  O_4
REMARK    5  A    between atoms: C_8  and  N_9
REMARK    6  A    between atoms: N_9  and  S_10
REMARK    7  A    between atoms: S_10  and  C_11
REMARK    8  A    between atoms: C_15  and  S_16
REMARK    9  A    between atoms: S_16  and  C_17
REMARK   10  A    between atoms: C_17  and  C_18
REMARK                            x       y       z     vdW  Elec       q    Type
REMARK                         _______ _______ _______ _____ _____    ______ ____
ROOT
ATOM      1  N   ALA A   1       3.023   3.965  18.976  0.00  0.00    +0.000 N 
ATOM      2  C   UNK A   0       3.469   5.113  18.281  0.00  0.00    +0.000 A 
ATOM      3  C   UNK A   0       4.708   5.073  17.693  0.00  0.00    +0.000 A 
ATOM      4  C   UNK A   0       5.134   6.243  17.116  0.00  0.00    +0.000 A 
ATOM      5  N   UNK A   0       4.435   7.381  17.062  0.00  0.00    +0.000 NA
ATOM      6  C   UNK A   0       3.244   7.324  17.675  0.00  0.00    +0.000 A 
ATOM      7  N   UNK A   0       2.742   6.240  18.295  0.00  0.00    +0.000 NA
ATOM      8  H   ALA A   1       3.260   3.148  18.408  0.00  0.00    +0.000 HD
ENDROOT
BRANCH   1  10
ATOM      9  CB  ALA A   1       1.420   3.974  20.803  0.00  0.00    +0.000 C 
ATOM     10  CA  ALA A   1       1.578   3.929  19.278  0.00  0.00    +0.000 C 
BRANCH  10  11
ATOM     11  C   ALA A   1       0.956   2.630  18.718  0.00  0.00    +0.000 C 
BRANCH  11  12
ATOM     12  O   ALA A   1       1.970   1.746  18.225  0.00  0.00    +0.000 OA
ATOM     13  H   ALA A   1       2.514   2.248  17.594  0.00  0.00    +0.000 HD
ENDBRANCH  11  12
ENDBRANCH  10  11
ENDBRANCH   1  10
BRANCH   4  14
ATOM     14  N   UNK A   0       6.439   6.357  16.593  0.00  0.00    +0.000 N 
ATOM     15  H   UNK A   0       6.625   7.253  16.151  0.00  0.00    +0.000 HD
BRANCH  14  16
ATOM     16  S   UNK A   0       7.066   5.067  15.739  0.00  0.00    +0.000 S 
ATOM     17  C   UNK A   0       5.618   4.289  15.048  0.00  0.00    +0.000 C 
ATOM     18  O   UNK A   0       7.803   5.650  14.635  0.00  0.00    +0.000 OA
ATOM     19  O   UNK A   0       7.700   4.145  16.656  0.00  0.00    +0.000 OA
ENDBRANCH  14  16
ENDBRANCH   4  14
BRANCH   6  20
ATOM     20  S   UNK A   0       2.279   8.807  17.833  0.00  0.00    +0.000 S 
BRANCH  20  21
ATOM     21  C   UNK A   0       1.423   8.500  19.409  0.00  0.00    +0.000 C 
BRANCH  21  22
ATOM     22  C   UNK A   0       0.615   9.709  19.816  0.00  0.00    +0.000 A 
ATOM     23  C   UNK A   0       0.838  10.349  21.044  0.00  0.00    +0.000 A 
ATOM     24  C   UNK A   0       0.049  11.431  21.442  0.00  0.00    +0.000 A 
ATOM     25  C   UNK A   0      -0.980  11.888  20.618  0.00  0.00    +0.000 A 
ATOM     26  C   UNK A   0      -1.214  11.261  19.394  0.00  0.00    +0.000 A 
ATOM     27 CL   UNK A   0      -2.490  11.829  18.385  0.00  0.00    +0.000 Cl
ATOM     28  C   UNK A   0      -0.420  10.183  18.999  0.00  0.00    +0.000 A 
ATOM     29  F   UNK A   0      -0.644   9.583  17.818  0.00  0.00    +0.000 F 
ENDBRANCH  21  22
ENDBRANCH  20  21
ENDBRANCH   6  20
TORSDOF 8
ENDMDL
MODEL 6
REMARK VINA RESULT:      -7.2      2.397      4.755
REMARK  Name = 
REMARK  10 active torsions:
REMARK  status: ('A' for Active; 'I' for Inactive)
REMARK    1  A    between atoms: CB_1  and  CA_2
REMARK    2  A    between atoms: CA_2  and  C_3
REMARK    3  A    between atoms: CA_2  and  N_5
REMARK    4  A    between atoms: C_3  and  O_4
REMARK    5  A    between atoms: C_8  and  N_9
REMARK    6  A    between atoms: N_9  and  S_10
REMARK    7  A    between atoms: S_10  and  C_11
REMARK    8  A    between atoms: C_15  and  S_16
REMARK    9  A    between atoms: S_16  and  C_17
REMARK   10  A    between atoms: C_17  and  C_18
REMARK                            x       y       z     vdW  Elec       q    Type
REMARK                         _______ _______ _______ _____ _____    ______ ____
ROOT
ATOM      1  N   ALA A   1       5.188   4.604  17.228  0.00  0.00    +0.000 N 
ATOM      2  C   UNK A   0       4.288   5.302  18.066  0.00  0.00    +0.000 A 
ATOM      3  C   UNK A   0       3.915   4.713  19.248  0.00  0.00    +0.000 A 
ATOM      4  C   UNK A   0       2.968   5.386  19.979  0.00  0.00    +0.000 A 
ATOM      5  N   UNK A   0       2.419   6.559  19.644  0.00  0.00    +0.000 NA
ATOM      6  C   UNK A   0       2.838   7.046  18.467  0.00  0.00    +0.000 A 
ATOM      7  N   UNK A   0       3.738   6.456  17.660  0.00  0.00    +0.000 NA
ATOM      8  H   ALA A   1       5.920   4.208  17.821  0.00  0.00    +0.000 HD
ENDROOT
BRANCH   1  10
ATOM      9  CB  ALA A   1       5.557   4.709  14.827  0.00  0.00    +0.000 C 
ATOM     10  CA  ALA A   1       5.821   5.411  16.166  0.00  0.00    +0.000 C 
BRANCH  10  11
ATOM     11  C   ALA A   1       7.342   5.514  16.421  0.00  0.00    +0.000 C 
BRANCH  11  12
ATOM     12  O   ALA A   1       7.848   4.306  17.000  0.00  0.00    +0.000 OA
ATOM     13  H   ALA A   1       8.267   4.539  17.845  0.00  0.00    +0.000 HD
ENDBRANCH  11  12
ENDBRANCH  10  11
ENDBRANCH   1  10
BRANCH   4  14
ATOM     14  N   UNK A   0       2.417   4.817  21.145  0.00  0.00    +0.000 N 
ATOM     15  H   UNK A   0       2.876   5.116  22.002  0.00  0.00    +0.000 HD
BRANCH  14  16
ATOM     16  S   UNK A   0       2.051   3.188  21.137  0.00  0.00    +0.000 S 
ATOM     17  C   UNK A   0       0.910   3.032  19.775  0.00  0.00    +0.000 C 
ATOM     18  O   UNK A   0       3.273   2.515  20.747  0.00  0.00    +0.000 OA
ATOM     19  O   UNK A   0       1.364   2.843  22.363  0.00  0.00    +0.000 OA
ENDBRANCH  14  16
ENDBRANCH   4  14
BRANCH   6  20
ATOM     20  S   UNK A   0       2.069   8.507  17.813  0.00  0.00    +0.000 S 
BRANCH  20  21
ATOM     21  C   UNK A   0       1.360   9.233  19.324  0.00  0.00    +0.000 C 
BRANCH  21  22
ATOM     22  C   UNK A   0       0.691  10.552  19.013  0.00  0.00    +0.000 A 
ATOM     23  C   UNK A   0       1.443  11.726  18.857  0.00  0.00    +0.000 A 
ATOM     24  C   UNK A   0       0.816  12.953  18.628  0.00  0.00    +0.000 A 
ATOM     25  C   UNK A   0      -0.576  13.025  18.555  0.00  0.00    +0.000 A 
ATOM     26  C   UNK A   0      -1.337  11.866  18.710  0.00  0.00    +0.000 A 
ATOM     27 CL   UNK A   0      -3.055  11.966  18.623  0.00  0.00    +0.000 Cl
ATOM     28  C   UNK A   0      -0.705  10.642  18.934  0.00  0.00    +0.000 A 
ATOM     29  F   UNK A   0      -1.438   9.526  19.078  0.00  0.00    +0.000 F 
ENDBRANCH  21  22
ENDBRANCH  20  21
ENDBRANCH   6  20
TORSDOF 8
ENDMDL
MODEL 7
REMARK VINA RESULT:      -7.2      2.946      4.611
REMARK  Name = 
REMARK  10 active torsions:
REMARK  status: ('A' for Active; 'I' for Inactive)
REMARK    1  A    between atoms: CB_1  and  CA_2
REMARK    2  A    between atoms: CA_2  and  C_3
REMARK    3  A    between atoms: CA_2  and  N_5
REMARK    4  A    between atoms: C_3  and  O_4
REMARK    5  A    between atoms: C_8  and  N_9
REMARK    6  A    between atoms: N_9  and  S_10
REMARK    7  A    between atoms: S_10  and  C_11
REMARK    8  A    between atoms: C_15  and  S_16
REMARK    9  A    between atoms: S_16  and  C_17
REMARK   10  A    between atoms: C_17  and  C_18
REMARK                            x       y       z     vdW  Elec       q    Type
REMARK                         _______ _______ _______ _____ _____    ______ ____
ROOT
ATOM      1  N   ALA A   1       7.644   6.710  16.603  0.00  0.00    +0.000 N 
ATOM      2  C   UNK A   0       6.746   5.645  16.358  0.00  0.00    +0.000 A 
ATOM      3  C   UNK A   0       7.046   4.764  15.350  0.00  0.00    +0.000 A 
ATOM      4  C   UNK A   0       6.097   3.808  15.089  0.00  0.00    +0.000 A 
ATOM      5  N   UNK A   0       4.945   3.658  15.750  0.00  0.00    +0.000 NA
ATOM      6  C   UNK A   0       4.737   4.574  16.707  0.00  0.00    +0.000 A 
ATOM      7  N   UNK A   0       5.585   5.570  17.025  0.00  0.00    +0.000 NA
ATOM      8  H   ALA A   1       8.593   6.332  16.561  0.00  0.00    +0.000 HD
ENDROOT
BRANCH   1  10
ATOM      9  CB  ALA A   1       8.074   8.806  17.757  0.00  0.00    +0.000 C 
ATOM     10  CA  ALA A   1       7.466   7.404  17.894  0.00  0.00    +0.000 C 
BRANCH  10  11
ATOM     11  C   ALA A   1       8.186   6.621  19.015  0.00  0.00    +0.000 C 
BRANCH  11  12
ATOM     12  O   ALA A   1       7.360   5.563  19.513  0.00  0.00    +0.000 OA
ATOM     13  H   ALA A   1       6.461   5.707  19.171  0.00  0.00    +0.000 HD
ENDBRANCH  11  12
ENDBRANCH  10  11
ENDBRANCH   1  10
BRANCH   4  14
ATOM     14  N   UNK A   0       6.240   2.929  13.996  0.00  0.00    +0.000 N 
ATOM     15  H   UNK A   0       7.118   2.417  13.995  0.00  0.00    +0.000 HD
BRANCH  14  16
ATOM     16  S   UNK A   0       5.801   3.471  12.479  0.00  0.00    +0.000 S 
ATOM     17  C   UNK A   0       7.250   4.349  11.922  0.00  0.00    +0.000 C 
ATOM     18  O   UNK A   0       5.682   2.283  11.658  0.00  0.00    +0.000 OA
ATOM     19  O   UNK A   0       4.705   4.408  12.601  0.00  0.00    +0.000 OA
ENDBRANCH  14  16
ENDBRANCH   4  14
BRANCH   6  20
ATOM     20  S   UNK A   0       3.174   4.605  17.550  0.00  0.00    +0.000 S 
BRANCH  20  21
ATOM     21  C   UNK A   0       3.575   5.647  18.988  0.00  0.00    +0.000 C 
BRANCH  21  22
ATOM     22  C   UNK A   0       2.768   6.924  18.956  0.00  0.00    +0.000 A 
ATOM     23  C   UNK A   0       2.860   7.812  17.875  0.00  0.00    +0.000 A 
ATOM     24  C   UNK A   0       2.157   9.019  17.878  0.00  0.00    +0.000 A 
ATOM     25  C   UNK A   0       1.353   9.359  18.966  0.00  0.00    +0.000 A 
ATOM     26  C   UNK A   0       1.252   8.486  20.050  0.00  0.00    +0.000 A 
ATOM     27 CL   UNK A   0       0.260   8.916  21.391  0.00  0.00    +0.000 Cl
ATOM     28  C   UNK A   0       1.953   7.279  20.040  0.00  0.00    +0.000 A 
ATOM     29  F   UNK A   0       1.853   6.437  21.082  0.00  0.00    +0.000 F 
ENDBRANCH  21  22
ENDBRANCH  20  21
ENDBRANCH   6  20
TORSDOF 8
ENDMDL
MODEL 8
REMARK VINA RESULT:      -7.2      2.413      4.891
REMARK  Name = 
REMARK  10 active torsions:
REMARK  status: ('A' for Active; 'I' for Inactive)
REMARK    1  A    between atoms: CB_1  and  CA_2
REMARK    2  A    between atoms: CA_2  and  C_3
REMARK    3  A    between atoms: CA_2  and  N_5
REMARK    4  A    between atoms: C_3  and  O_4
REMARK    5  A    between atoms: C_8  and  N_9
REMARK    6  A    between atoms: N_9  and  S_10
REMARK    7  A    between atoms: S_10  and  C_11
REMARK    8  A    between atoms: C_15  and  S_16
REMARK    9  A    between atoms: S_16  and  C_17
REMARK   10  A    between atoms: C_17  and  C_18
REMARK                            x       y       z     vdW  Elec       q    Type
REMARK                         _______ _______ _______ _____ _____    ______ ____
ROOT
ATOM      1  N   ALA A   1       4.955   4.580  16.991  0.00  0.00    +0.000 N 
ATOM      2  C   UNK A   0       4.157   5.328  17.888  0.00  0.00    +0.000 A 
ATOM      3  C   UNK A   0       3.780   4.736  19.067  0.00  0.00    +0.000 A 
ATOM      4  C   UNK A   0       2.928   5.467  19.857  0.00  0.00    +0.000 A 
ATOM      5  N   UNK A   0       2.475   6.694  19.581  0.00  0.00    +0.000 NA
ATOM      6  C   UNK A   0       2.888   7.180  18.402  0.00  0.00    +0.000 A 
ATOM      7  N   UNK A   0       3.697   6.539  17.540  0.00  0.00    +0.000 NA
ATOM      8  H   ALA A   1       5.672   4.101  17.540  0.00  0.00    +0.000 HD
ENDROOT
BRANCH   1  10
ATOM      9  CB  ALA A   1       5.632   4.500  14.658  0.00  0.00    +0.000 C 
ATOM     10  CA  ALA A   1       5.615   5.362  15.928  0.00  0.00    +0.000 C 
BRANCH  10  11
ATOM     11  C   ALA A   1       7.061   5.710  16.351  0.00  0.00    +0.000 C 
BRANCH  11  12
ATOM     12  O   ALA A   1       7.870   4.531  16.428  0.00  0.00    +0.000 OA
ATOM     13  H   ALA A   1       7.631   3.962  15.677  0.00  0.00    +0.000 HD
ENDBRANCH  11  12
ENDBRANCH  10  11
ENDBRANCH   1  10
BRANCH   4  14
ATOM     14  N   UNK A   0       2.375   4.911  21.029  0.00  0.00    +0.000 N 
ATOM     15  H   UNK A   0       2.919   5.101  21.867  0.00  0.00    +0.000 HD
BRANCH  14  16
ATOM     16  S   UNK A   0       1.797   3.345  20.969  0.00  0.00    +0.000 S 
ATOM     17  C   UNK A   0       3.215   2.405  20.434  0.00  0.00    +0.000 C 
ATOM     18  O   UNK A   0       1.535   2.973  22.345  0.00  0.00    +0.000 OA
ATOM     19  O   UNK A   0       0.766   3.252  19.959  0.00  0.00    +0.000 OA
ENDBRANCH  14  16
ENDBRANCH   4  14
BRANCH   6  20
ATOM     20  S   UNK A   0       2.229   8.725  17.825  0.00  0.00    +0.000 S 
BRANCH  20  21
ATOM     21  C   UNK A   0       1.239   9.240  19.263  0.00  0.00    +0.000 C 
BRANCH  21  22
ATOM     22  C   UNK A   0       0.203  10.260  18.853  0.00  0.00    +0.000 A 
ATOM     23  C   UNK A   0      -1.008   9.865  18.265  0.00  0.00    +0.000 A 
ATOM     24  C   UNK A   0      -1.938  10.815  17.834  0.00  0.00    +0.000 A 
ATOM     25  C   UNK A   0      -1.668  12.176  17.981  0.00  0.00    +0.000 A 
ATOM     26  C   UNK A   0      -0.468  12.583  18.564  0.00  0.00    +0.000 A 
ATOM     27 CL   UNK A   0      -0.143  14.266  18.737  0.00  0.00    +0.000 Cl
ATOM     28  C   UNK A   0       0.455  11.631  18.997  0.00  0.00    +0.000 A 
ATOM     29  F   UNK A   0       1.610  12.024  19.561  0.00  0.00    +0.000 F 
ENDBRANCH  21  22
ENDBRANCH  20  21
ENDBRANCH   6  20
TORSDOF 8
ENDMDL
MODEL 9
REMARK VINA RESULT:      -7.1      1.923      4.670
REMARK  Name = 
REMARK  10 active torsions:
REMARK  status: ('A' for Active; 'I' for Inactive)
REMARK    1  A    between atoms: CB_1  and  CA_2
REMARK    2  A    between atoms: CA_2  and  C_3
REMARK    3  A    between atoms: CA_2  and  N_5
REMARK    4  A    between atoms: C_3  and  O_4
REMARK    5  A    between atoms: C_8  and  N_9
REMARK    6  A    between atoms: N_9  and  S_10
REMARK    7  A    between atoms: S_10  and  C_11
REMARK    8  A    between atoms: C_15  and  S_16
REMARK    9  A    between atoms: S_16  and  C_17
REMARK   10  A    between atoms: C_17  and  C_18
REMARK                            x       y       z     vdW  Elec       q    Type
REMARK                         _______ _______ _______ _____ _____    ______ ____
ROOT
ATOM      1  N   ALA A   1       5.097   3.753  15.919  0.00  0.00    +0.000 N 
ATOM      2  C   UNK A   0       4.634   4.452  17.058  0.00  0.00    +0.000 A 
ATOM      3  C   UNK A   0       4.350   3.730  18.190  0.00  0.00    +0.000 A 
ATOM      4  C   UNK A   0       3.813   4.440  19.234  0.00  0.00    +0.000 A 
ATOM      5  N   UNK A   0       3.581   5.757  19.238  0.00  0.00    +0.000 NA
ATOM      6  C   UNK A   0       3.878   6.371  18.084  0.00  0.00    +0.000 A 
ATOM      7  N   UNK A   0       4.380   5.767  16.991  0.00  0.00    +0.000 NA
ATOM      8  H   ALA A   1       5.783   3.065  16.236  0.00  0.00    +0.000 HD
ENDROOT
BRANCH   1  10
ATOM      9  CB  ALA A   1       5.590   3.834  13.540  0.00  0.00    +0.000 C 
ATOM     10  CA  ALA A   1       5.712   4.590  14.870  0.00  0.00    +0.000 C 
BRANCH  10  11
ATOM     11  C   ALA A   1       7.201   4.840  15.203  0.00  0.00    +0.000 C 
BRANCH  11  12
ATOM     12  O   ALA A   1       7.377   6.111  15.841  0.00  0.00    +0.000 OA
ATOM     13  H   ALA A   1       8.119   6.026  16.462  0.00  0.00    +0.000 HD
ENDBRANCH  11  12
ENDBRANCH  10  11
ENDBRANCH   1  10
BRANCH   4  14
ATOM     14  N   UNK A   0       3.366   3.785  20.400  0.00  0.00    +0.000 N 
ATOM     15  H   UNK A   0       3.995   3.055  20.725  0.00  0.00    +0.000 HD
BRANCH  14  16
ATOM     16  S   UNK A   0       1.757   3.349  20.498  0.00  0.00    +0.000 S 
ATOM     17  C   UNK A   0       1.635   1.975  19.368  0.00  0.00    +0.000 C 
ATOM     18  O   UNK A   0       1.577   2.818  21.834  0.00  0.00    +0.000 OA
ATOM     19  O   UNK A   0       0.934   4.433  20.006  0.00  0.00    +0.000 OA
ENDBRANCH  14  16
ENDBRANCH   4  14
BRANCH   6  20
ATOM     20  S   UNK A   0       3.461   8.086  17.884  0.00  0.00    +0.000 S 
BRANCH  20  21
ATOM     21  C   UNK A   0       1.663   8.042  18.168  0.00  0.00    +0.000 C 
BRANCH  21  22
ATOM     22  C   UNK A   0       1.257   9.118  19.147  0.00  0.00    +0.000 A 
ATOM     23  C   UNK A   0       1.134  10.456  18.743  0.00  0.00    +0.000 A 
ATOM     24  C   UNK A   0       0.816  11.456  19.665  0.00  0.00    +0.000 A 
ATOM     25  C   UNK A   0       0.618  11.133  21.008  0.00  0.00    +0.000 A 
ATOM     26  C   UNK A   0       0.737   9.807  21.425  0.00  0.00    +0.000 A 
ATOM     27 CL   UNK A   0       0.496   9.420  23.086  0.00  0.00    +0.000 Cl
ATOM     28  C   UNK A   0       1.052   8.811  20.499  0.00  0.00    +0.000 A 
ATOM     29  F   UNK A   0       1.162   7.534  20.900  0.00  0.00    +0.000 F 
ENDBRANCH  21  22
ENDBRANCH  20  21
ENDBRANCH   6  20
TORSDOF 8
ENDMDL
