MODEL 1
REMARK VINA RESULT:      -7.9      0.000      0.000
REMARK  Name = 
REMARK  0 active torsions:
REMARK  status: ('A' for Active; 'I' for Inactive)
REMARK                            x       y       z     vdW  Elec       q    Type
REMARK                         _______ _______ _______ _____ _____    ______ ____
ROOT
ATOM      1  O   UNL     1       8.508   3.985  17.886  0.00  0.00    +0.000 OA
ATOM      2  C   UNL     1       7.456   4.577  17.699  0.00  0.00    +0.000 C 
ATOM      3  N   UNL     1       6.258   4.011  18.036  0.00  0.00    +0.000 N 
ATOM      4  C   UNL     1       5.081   4.748  18.311  0.00  0.00    +0.000 A 
ATOM      5  C   UNL     1       4.896   6.012  17.744  0.00  0.00    +0.000 A 
ATOM      6  C   UNL     1       3.816   6.824  18.072  0.00  0.00    +0.000 A 
ATOM      7  C   UNL     1       2.881   6.354  18.986  0.00  0.00    +0.000 A 
ATOM      8  C   UNL     1       3.008   5.076  19.556  0.00  0.00    +0.000 A 
ATOM      9  C   UNL     1       2.045   4.628  20.472  0.00  0.00    +0.000 A 
ATOM     10  C   UNL     1       2.142   3.367  21.058  0.00  0.00    +0.000 A 
ATOM     11  C   UNL     1       3.218   2.546  20.754  0.00  0.00    +0.000 A 
ATOM     12  C   UNL     1       4.194   2.981  19.856  0.00  0.00    +0.000 A 
ATOM     13  C   UNL     1       4.112   4.245  19.221  0.00  0.00    +0.000 A 
ATOM     14  S   UNL     1       6.098   6.565  16.602  0.00  0.00    +0.000 S 
ATOM     15  O   UNL     1       5.819   5.952  15.325  0.00  0.00    +0.000 OA
ATOM     16  O   UNL     1       6.244   8.000  16.750  0.00  0.00    +0.000 OA
ATOM     17  N   UNL     1       7.448   5.882  17.247  0.00  0.00    +0.000 N 
ATOM     18  H   UNL     1       6.363   3.075  18.402  0.00  0.00    +0.000 HD
ATOM     19  H   UNL     1       8.274   6.460  17.350  0.00  0.00    +0.000 HD
ENDROOT
TORSDOF 0
ENDMDL
MODEL 2
REMARK VINA RESULT:      -7.9      1.348      1.388
REMARK  Name = 
REMARK  0 active torsions:
REMARK  status: ('A' for Active; 'I' for Inactive)
REMARK                            x       y       z     vdW  Elec       q    Type
REMARK                         _______ _______ _______ _____ _____    ______ ____
ROOT
ATOM      1  O   UNL     1       8.640   5.076  20.188  0.00  0.00    +0.000 OA
ATOM      2  C   UNL     1       7.812   5.407  19.353  0.00  0.00    +0.000 C 
ATOM      3  N   UNL     1       6.697   4.649  19.125  0.00  0.00    +0.000 N 
ATOM      4  C   UNL     1       5.495   5.152  18.574  0.00  0.00    +0.000 A 
ATOM      5  C   UNL     1       5.520   6.270  17.735  0.00  0.00    +0.000 A 
ATOM      6  C   UNL     1       4.360   6.873  17.262  0.00  0.00    +0.000 A 
ATOM      7  C   UNL     1       3.132   6.334  17.626  0.00  0.00    +0.000 A 
ATOM      8  C   UNL     1       3.058   5.190  18.439  0.00  0.00    +0.000 A 
ATOM      9  C   UNL     1       1.803   4.667  18.785  0.00  0.00    +0.000 A 
ATOM     10  C   UNL     1       1.694   3.536  19.591  0.00  0.00    +0.000 A 
ATOM     11  C   UNL     1       2.839   2.927  20.085  0.00  0.00    +0.000 A 
ATOM     12  C   UNL     1       4.095   3.442  19.764  0.00  0.00    +0.000 A 
ATOM     13  C   UNL     1       4.245   4.573  18.923  0.00  0.00    +0.000 A 
ATOM     14  S   UNL     1       7.086   6.917  17.307  0.00  0.00    +0.000 S 
ATOM     15  O   UNL     1       7.630   6.107  16.242  0.00  0.00    +0.000 OA
ATOM     16  O   UNL     1       6.970   8.358  17.193  0.00  0.00    +0.000 OA
ATOM     17  N   UNL     1       7.916   6.616  18.694  0.00  0.00    +0.000 N 
ATOM     18  H   UNL     1       6.682   3.808  19.685  0.00  0.00    +0.000 HD
ATOM     19  H   UNL     1       8.478   7.362  19.087  0.00  0.00    +0.000 HD
ENDROOT
TORSDOF 0
ENDMDL
MODEL 3
REMARK VINA RESULT:      -7.8      3.365      4.790
REMARK  Name = 
REMARK  0 active torsions:
REMARK  status: ('A' for Active; 'I' for Inactive)
REMARK                            x       y       z     vdW  Elec       q    Type
REMARK                         _______ _______ _______ _____ _____    ______ ____
ROOT
ATOM      1  O   UNL     1       5.203   1.230  20.508  0.00  0.00    +0.000 OA
ATOM      2  C   UNL     1       4.625   2.179  20.003  0.00  0.00    +0.000 C 
ATOM      3  N   UNL     1       5.186   3.426  19.996  0.00  0.00    +0.000 N 
ATOM      4  C   UNL     1       4.859   4.439  19.062  0.00  0.00    +0.000 A 
ATOM      5  C   UNL     1       3.601   4.453  18.453  0.00  0.00    +0.000 A 
ATOM      6  C   UNL     1       3.270   5.353  17.447  0.00  0.00    +0.000 A 
ATOM      7  C   UNL     1       4.222   6.282  17.044  0.00  0.00    +0.000 A 
ATOM      8  C   UNL     1       5.488   6.328  17.652  0.00  0.00    +0.000 A 
ATOM      9  C   UNL     1       6.426   7.280  17.225  0.00  0.00    +0.000 A 
ATOM     10  C   UNL     1       7.691   7.351  17.804  0.00  0.00    +0.000 A 
ATOM     11  C   UNL     1       8.046   6.453  18.800  0.00  0.00    +0.000 A 
ATOM     12  C   UNL     1       7.131   5.489  19.227  0.00  0.00    +0.000 A 
ATOM     13  C   UNL     1       5.827   5.406  18.681  0.00  0.00    +0.000 A 
ATOM     14  S   UNL     1       2.436   3.264  18.989  0.00  0.00    +0.000 S 
ATOM     15  O   UNL     1       1.845   3.737  20.219  0.00  0.00    +0.000 OA
ATOM     16  O   UNL     1       1.628   2.870  17.851  0.00  0.00    +0.000 OA
ATOM     17  N   UNL     1       3.437   2.003  19.320  0.00  0.00    +0.000 N 
ATOM     18  H   UNL     1       6.075   3.451  20.475  0.00  0.00    +0.000 HD
ATOM     19  H   UNL     1       3.184   1.087  18.969  0.00  0.00    +0.000 HD
ENDROOT
TORSDOF 0
ENDMDL
MODEL 4
REMARK VINA RESULT:      -7.7      1.710      2.777
REMARK  Name = 
REMARK  0 active torsions:
REMARK  status: ('A' for Active; 'I' for Inactive)
REMARK                            x       y       z     vdW  Elec       q    Type
REMARK                         _______ _______ _______ _____ _____    ______ ____
ROOT
ATOM      1  O   UNL     1       7.290   8.199  17.638  0.00  0.00    +0.000 OA
ATOM      2  C   UNL     1       6.911   7.058  17.427  0.00  0.00    +0.000 C 
ATOM      3  N   UNL     1       6.045   6.432  18.282  0.00  0.00    +0.000 N 
ATOM      4  C   UNL     1       5.198   5.362  17.909  0.00  0.00    +0.000 A 
ATOM      5  C   UNL     1       5.552   4.520  16.851  0.00  0.00    +0.000 A 
ATOM      6  C   UNL     1       4.703   3.529  16.371  0.00  0.00    +0.000 A 
ATOM      7  C   UNL     1       3.464   3.361  16.977  0.00  0.00    +0.000 A 
ATOM      8  C   UNL     1       3.079   4.161  18.067  0.00  0.00    +0.000 A 
ATOM      9  C   UNL     1       1.823   3.964  18.660  0.00  0.00    +0.000 A 
ATOM     10  C   UNL     1       1.409   4.741  19.740  0.00  0.00    +0.000 A 
ATOM     11  C   UNL     1       2.235   5.744  20.226  0.00  0.00    +0.000 A 
ATOM     12  C   UNL     1       3.481   5.965  19.638  0.00  0.00    +0.000 A 
ATOM     13  C   UNL     1       3.947   5.175  18.558  0.00  0.00    +0.000 A 
ATOM     14  S   UNL     1       7.118   4.769  16.116  0.00  0.00    +0.000 S 
ATOM     15  O   UNL     1       8.112   4.136  16.951  0.00  0.00    +0.000 OA
ATOM     16  O   UNL     1       7.010   4.482  14.699  0.00  0.00    +0.000 OA
ATOM     17  N   UNL     1       7.251   6.402  16.260  0.00  0.00    +0.000 N 
ATOM     18  H   UNL     1       5.814   7.003  19.082  0.00  0.00    +0.000 HD
ATOM     19  H   UNL     1       7.550   6.931  15.449  0.00  0.00    +0.000 HD
ENDROOT
TORSDOF 0
ENDMDL
MODEL 5
REMARK VINA RESULT:      -7.6      1.461      1.553
REMARK  Name = 
REMARK  0 active torsions:
REMARK  status: ('A' for Active; 'I' for Inactive)
REMARK                            x       y       z     vdW  Elec       q    Type
REMARK                         _______ _______ _______ _____ _____    ______ ____
ROOT
ATOM      1  O   UNL     1       7.731   5.352  19.783  0.00  0.00    +0.000 OA
ATOM      2  C   UNL     1       6.777   5.179  19.040  0.00  0.00    +0.000 C 
ATOM      3  N   UNL     1       5.807   4.263  19.338  0.00  0.00    +0.000 N 
ATOM      4  C   UNL     1       4.483   4.319  18.841  0.00  0.00    +0.000 A 
ATOM      5  C   UNL     1       4.214   4.954  17.626  0.00  0.00    +0.000 A 
ATOM      6  C   UNL     1       2.921   5.138  17.151  0.00  0.00    +0.000 A 
ATOM      7  C   UNL     1       1.858   4.660  17.907  0.00  0.00    +0.000 A 
ATOM      8  C   UNL     1       2.081   3.984  19.119  0.00  0.00    +0.000 A 
ATOM      9  C   UNL     1       0.987   3.509  19.858  0.00  0.00    +0.000 A 
ATOM     10  C   UNL     1       1.173   2.837  21.065  0.00  0.00    +0.000 A 
ATOM     11  C   UNL     1       2.455   2.654  21.563  0.00  0.00    +0.000 A 
ATOM     12  C   UNL     1       3.554   3.134  20.849  0.00  0.00    +0.000 A 
ATOM     13  C   UNL     1       3.405   3.796  19.605  0.00  0.00    +0.000 A 
ATOM     14  S   UNL     1       5.581   5.543  16.709  0.00  0.00    +0.000 S 
ATOM     15  O   UNL     1       6.159   4.428  15.998  0.00  0.00    +0.000 OA
ATOM     16  O   UNL     1       5.186   6.764  16.033  0.00  0.00    +0.000 OA
ATOM     17  N   UNL     1       6.585   5.984  17.933  0.00  0.00    +0.000 N 
ATOM     18  H   UNL     1       6.005   3.755  20.188  0.00  0.00    +0.000 HD
ATOM     19  H   UNL     1       7.034   6.891  17.882  0.00  0.00    +0.000 HD
ENDROOT
TORSDOF 0
ENDMDL
MODEL 6
REMARK VINA RESULT:      -7.5      1.775      2.107
REMARK  Name = 
REMARK  0 active torsions:
REMARK  status: ('A' for Active; 'I' for Inactive)
REMARK                            x       y       z     vdW  Elec       q    Type
REMARK                         _______ _______ _______ _____ _____    ______ ____
ROOT
ATOM      1  O   UNL     1       7.674   5.816  20.369  0.00  0.00    +0.000 OA
ATOM      2  C   UNL     1       7.113   5.376  19.378  0.00  0.00    +0.000 C 
ATOM      3  N   UNL     1       6.191   4.370  19.476  0.00  0.00    +0.000 N 
ATOM      4  C   UNL     1       5.173   4.131  18.522  0.00  0.00    +0.000 A 
ATOM      5  C   UNL     1       5.352   4.518  17.191  0.00  0.00    +0.000 A 
ATOM      6  C   UNL     1       4.342   4.412  16.242  0.00  0.00    +0.000 A 
ATOM      7  C   UNL     1       3.114   3.889  16.630  0.00  0.00    +0.000 A 
ATOM      8  C   UNL     1       2.900   3.455  17.949  0.00  0.00    +0.000 A 
ATOM      9  C   UNL     1       1.650   2.926  18.309  0.00  0.00    +0.000 A 
ATOM     10  C   UNL     1       1.402   2.489  19.608  0.00  0.00    +0.000 A 
ATOM     11  C   UNL     1       2.393   2.598  20.574  0.00  0.00    +0.000 A 
ATOM     12  C   UNL     1       3.636   3.135  20.238  0.00  0.00    +0.000 A 
ATOM     13  C   UNL     1       3.933   3.563  18.920  0.00  0.00    +0.000 A 
ATOM     14  S   UNL     1       6.911   5.174  16.748  0.00  0.00    +0.000 S 
ATOM     15  O   UNL     1       7.822   4.072  16.550  0.00  0.00    +0.000 OA
ATOM     16  O   UNL     1       6.707   6.194  15.737  0.00  0.00    +0.000 OA
ATOM     17  N   UNL     1       7.303   5.958  18.139  0.00  0.00    +0.000 N 
ATOM     18  H   UNL     1       6.082   4.039  20.423  0.00  0.00    +0.000 HD
ATOM     19  H   UNL     1       7.651   6.906  18.072  0.00  0.00    +0.000 HD
ENDROOT
TORSDOF 0
ENDMDL
MODEL 7
REMARK VINA RESULT:      -7.5      3.548      4.818
REMARK  Name = 
REMARK  0 active torsions:
REMARK  status: ('A' for Active; 'I' for Inactive)
REMARK                            x       y       z     vdW  Elec       q    Type
REMARK                         _______ _______ _______ _____ _____    ______ ____
ROOT
ATOM      1  O   UNL     1       4.115   0.558  18.648  0.00  0.00    +0.000 OA
ATOM      2  C   UNL     1       3.684   1.699  18.684  0.00  0.00    +0.000 C 
ATOM      3  N   UNL     1       4.510   2.759  18.939  0.00  0.00    +0.000 N 
ATOM      4  C   UNL     1       4.239   4.090  18.541  0.00  0.00    +0.000 A 
ATOM      5  C   UNL     1       2.920   4.516  18.363  0.00  0.00    +0.000 A 
ATOM      6  C   UNL     1       2.605   5.774  17.863  0.00  0.00    +0.000 A 
ATOM      7  C   UNL     1       3.640   6.644  17.543  0.00  0.00    +0.000 A 
ATOM      8  C   UNL     1       4.981   6.272  17.738  0.00  0.00    +0.000 A 
ATOM      9  C   UNL     1       6.004   7.174  17.409  0.00  0.00    +0.000 A 
ATOM     10  C   UNL     1       7.344   6.836  17.587  0.00  0.00    +0.000 A 
ATOM     11  C   UNL     1       7.682   5.581  18.072  0.00  0.00    +0.000 A 
ATOM     12  C   UNL     1       6.677   4.665  18.390  0.00  0.00    +0.000 A 
ATOM     13  C   UNL     1       5.304   4.984  18.249  0.00  0.00    +0.000 A 
ATOM     14  S   UNL     1       1.650   3.388  18.775  0.00  0.00    +0.000 S 
ATOM     15  O   UNL     1       1.467   3.422  20.207  0.00  0.00    +0.000 OA
ATOM     16  O   UNL     1       0.547   3.585  17.855  0.00  0.00    +0.000 OA
ATOM     17  N   UNL     1       2.370   1.971  18.355  0.00  0.00    +0.000 N 
ATOM     18  H   UNL     1       5.461   2.471  19.122  0.00  0.00    +0.000 HD
ATOM     19  H   UNL     1       1.838   1.309  17.803  0.00  0.00    +0.000 HD
ENDROOT
TORSDOF 0
ENDMDL
MODEL 8
REMARK VINA RESULT:      -7.4      1.792      1.875
REMARK  Name = 
REMARK  0 active torsions:
REMARK  status: ('A' for Active; 'I' for Inactive)
REMARK                            x       y       z     vdW  Elec       q    Type
REMARK                         _______ _______ _______ _____ _____    ______ ____
ROOT
ATOM      1  O   UNL     1       6.303   3.187  15.302  0.00  0.00    +0.000 OA
ATOM      2  C   UNL     1       5.698   4.085  15.866  0.00  0.00    +0.000 C 
ATOM      3  N   UNL     1       4.404   3.916  16.274  0.00  0.00    +0.000 N 
ATOM      4  C   UNL     1       3.797   4.661  17.314  0.00  0.00    +0.000 A 
ATOM      5  C   UNL     1       4.254   5.946  17.618  0.00  0.00    +0.000 A 
ATOM      6  C   UNL     1       3.772   6.672  18.701  0.00  0.00    +0.000 A 
ATOM      7  C   UNL     1       2.788   6.103  19.501  0.00  0.00    +0.000 A 
ATOM      8  C   UNL     1       2.274   4.827  19.213  0.00  0.00    +0.000 A 
ATOM      9  C   UNL     1       1.278   4.281  20.037  0.00  0.00    +0.000 A 
ATOM     10  C   UNL     1       0.747   3.018  19.783  0.00  0.00    +0.000 A 
ATOM     11  C   UNL     1       1.224   2.271  18.715  0.00  0.00    +0.000 A 
ATOM     12  C   UNL     1       2.225   2.792  17.894  0.00  0.00    +0.000 A 
ATOM     13  C   UNL     1       2.767   4.084  18.106  0.00  0.00    +0.000 A 
ATOM     14  S   UNL     1       5.494   6.622  16.587  0.00  0.00    +0.000 S 
ATOM     15  O   UNL     1       4.859   7.130  15.394  0.00  0.00    +0.000 OA
ATOM     16  O   UNL     1       6.368   7.443  17.402  0.00  0.00    +0.000 OA
ATOM     17  N   UNL     1       6.336   5.260  16.213  0.00  0.00    +0.000 N 
ATOM     18  H   UNL     1       4.035   3.012  16.020  0.00  0.00    +0.000 HD
ATOM     19  H   UNL     1       7.346   5.287  16.286  0.00  0.00    +0.000 HD
ENDROOT
TORSDOF 0
ENDMDL
MODEL 9
REMARK VINA RESULT:      -7.2      2.631      4.401
REMARK  Name = 
REMARK  0 active torsions:
REMARK  status: ('A' for Active; 'I' for Inactive)
REMARK                            x       y       z     vdW  Elec       q    Type
REMARK                         _______ _______ _______ _____ _____    ______ ____
ROOT
ATOM      1  O   UNL     1       4.817   4.242  15.536  0.00  0.00    +0.000 OA
ATOM      2  C   UNL     1       4.536   4.373  16.716  0.00  0.00    +0.000 C 
ATOM      3  N   UNL     1       4.309   5.610  17.255  0.00  0.00    +0.000 N 
ATOM      4  C   UNL     1       3.537   5.839  18.419  0.00  0.00    +0.000 A 
ATOM      5  C   UNL     1       3.414   4.841  19.389  0.00  0.00    +0.000 A 
ATOM      6  C   UNL     1       2.577   4.971  20.491  0.00  0.00    +0.000 A 
ATOM      7  C   UNL     1       1.846   6.144  20.639  0.00  0.00    +0.000 A 
ATOM      8  C   UNL     1       1.963   7.189  19.706  0.00  0.00    +0.000 A 
ATOM      9  C   UNL     1       1.216   8.363  19.885  0.00  0.00    +0.000 A 
ATOM     10  C   UNL     1       1.306   9.417  18.979  0.00  0.00    +0.000 A 
ATOM     11  C   UNL     1       2.126   9.302  17.865  0.00  0.00    +0.000 A 
ATOM     12  C   UNL     1       2.865   8.136  17.663  0.00  0.00    +0.000 A 
ATOM     13  C   UNL     1       2.820   7.056  18.579  0.00  0.00    +0.000 A 
ATOM     14  S   UNL     1       4.348   3.381  19.162  0.00  0.00    +0.000 S 
ATOM     15  O   UNL     1       5.700   3.640  19.599  0.00  0.00    +0.000 OA
ATOM     16  O   UNL     1       3.578   2.261  19.668  0.00  0.00    +0.000 OA
ATOM     17  N   UNL     1       4.322   3.271  17.522  0.00  0.00    +0.000 N 
ATOM     18  H   UNL     1       4.441   6.352  16.583  0.00  0.00    +0.000 HD
ATOM     19  H   UNL     1       4.100   2.375  17.105  0.00  0.00    +0.000 HD
ENDROOT
TORSDOF 0
ENDMDL
