MODEL 1
REMARK VINA RESULT:      -7.7      0.000      0.000
REMARK  Name = 
REMARK  9 active torsions:
REMARK  status: ('A' for Active; 'I' for Inactive)
REMARK    1  A    between atoms: C_1  and  C_2
REMARK    2  A    between atoms: C_2  and  C_3
REMARK    3  A    between atoms: C_2  and  N_4
REMARK    4  A    between atoms: C_8  and  C_9
REMARK    5  A    between atoms: C_19  and  C_20
REMARK    6  A    between atoms: N_23  and  C_24
REMARK    7  A    between atoms: C_24  and  C_25
REMARK    8  A    between atoms: C_24  and  C_26
REMARK    9  A    between atoms: C_24  and  C_27
REMARK                            x       y       z     vdW  Elec       q    Type
REMARK                         _______ _______ _______ _____ _____    ______ ____
ROOT
ATOM      1  C   UNL     1       1.744  13.450  20.226  0.00  0.00    +0.000 A 
ATOM      2  N   UNL     1       1.479  12.479  19.371  0.00  0.00    +0.000 NA
ATOM      3  C   UNL     1       0.624  11.531  19.954  0.00  0.00    +0.000 A 
ATOM      4  C   UNL     1       0.165  11.884  21.208  0.00  0.00    +0.000 A 
ATOM      5  S   UNL     1       0.734  13.425  21.620  0.00  0.00    +0.000 S 
ATOM      6  C   UNL     1      -0.430  11.002  22.239  0.00  0.00    +0.000 C 
ATOM      7  C   UNL     1       0.586   9.890  22.474  0.00  0.00    +0.000 C 
ATOM      8  O   UNL     1       0.398   8.836  21.542  0.00  0.00    +0.000 OA
ATOM      9  C   UNL     1       0.830   9.050  20.262  0.00  0.00    +0.000 A 
ATOM     10  C   UNL     1       1.582   7.991  19.767  0.00  0.00    +0.000 A 
ATOM     11  C   UNL     1       2.036   8.031  18.453  0.00  0.00    +0.000 A 
ATOM     12  C   UNL     1       1.427   8.909  17.550  0.00  0.00    +0.000 A 
ATOM     13  C   UNL     1       0.719   9.998  18.047  0.00  0.00    +0.000 A 
ATOM     14  C   UNL     1       0.591  10.163  19.435  0.00  0.00    +0.000 A 
ENDROOT
BRANCH   1  19
ATOM     15  N   UNL     1       2.983  15.484  19.336  0.00  0.00    +0.000 N 
ATOM     16  N   UNL     1       4.119  16.162  19.621  0.00  0.00    +0.000 NA
ATOM     17  C   UNL     1       4.692  15.362  20.519  0.00  0.00    +0.000 A 
ATOM     18  N   UNL     1       3.981  14.244  20.836  0.00  0.00    +0.000 NA
ATOM     19  C   UNL     1       2.878  14.342  20.106  0.00  0.00    +0.000 A 
BRANCH  15  21
ATOM     20  C   UNL     1       0.917  16.766  18.873  0.00  0.00    +0.000 C 
ATOM     21  C   UNL     1       2.108  15.996  18.290  0.00  0.00    +0.000 C 
ATOM     22  C   UNL     1       2.858  16.842  17.260  0.00  0.00    +0.000 C 
ENDBRANCH  15  21
ENDBRANCH   1  19
BRANCH  11  23
ATOM     23  C   UNL     1       3.337   7.461  18.150  0.00  0.00    +0.000 A 
ATOM     24  C   UNL     1       4.352   7.841  17.249  0.00  0.00    +0.000 A 
ATOM     25  N   UNL     1       5.240   6.866  17.025  0.00  0.00    +0.000 NA
ATOM     26  N   UNL     1       4.795   5.830  17.783  0.00  0.00    +0.000 N 
ATOM     27  C   UNL     1       3.615   6.135  18.410  0.00  0.00    +0.000 A 
BRANCH  26  28
ATOM     28  C   UNL     1       5.458   4.508  17.777  0.00  0.00    +0.000 C 
ATOM     29  C   UNL     1       5.264   3.813  19.145  0.00  0.00    +0.000 C 
ATOM     30  C   UNL     1       4.831   3.633  16.674  0.00  0.00    +0.000 C 
BRANCH  28  31
ATOM     31  C   UNL     1       6.982   4.549  17.529  0.00  0.00    +0.000 C 
ATOM     32  N   UNL     1       7.453   4.726  16.263  0.00  0.00    +0.000 N 
ATOM     33  O   UNL     1       7.801   4.464  18.448  0.00  0.00    +0.000 OA
ATOM     34  H   UNL     1       6.837   4.445  15.494  0.00  0.00    +0.000 HD
ATOM     35  H   UNL     1       8.446   4.610  16.125  0.00  0.00    +0.000 HD
ENDBRANCH  28  31
ENDBRANCH  26  28
ENDBRANCH  11  23
TORSDOF 5
ENDMDL
MODEL 2
REMARK VINA RESULT:      -7.6      4.152      7.100
REMARK  Name = 
REMARK  9 active torsions:
REMARK  status: ('A' for Active; 'I' for Inactive)
REMARK    1  A    between atoms: C_1  and  C_2
REMARK    2  A    between atoms: C_2  and  C_3
REMARK    3  A    between atoms: C_2  and  N_4
REMARK    4  A    between atoms: C_8  and  C_9
REMARK    5  A    between atoms: C_19  and  C_20
REMARK    6  A    between atoms: N_23  and  C_24
REMARK    7  A    between atoms: C_24  and  C_25
REMARK    8  A    between atoms: C_24  and  C_26
REMARK    9  A    between atoms: C_24  and  C_27
REMARK                            x       y       z     vdW  Elec       q    Type
REMARK                         _______ _______ _______ _____ _____    ______ ____
ROOT
ATOM      1  C   UNL     1       2.055   7.067  19.615  0.00  0.00    +0.000 A 
ATOM      2  N   UNL     1       2.914   7.253  18.629  0.00  0.00    +0.000 NA
ATOM      3  C   UNL     1       3.618   6.069  18.360  0.00  0.00    +0.000 A 
ATOM      4  C   UNL     1       3.174   4.977  19.080  0.00  0.00    +0.000 A 
ATOM      5  S   UNL     1       1.837   5.409  20.025  0.00  0.00    +0.000 S 
ATOM      6  C   UNL     1       3.887   3.701  19.325  0.00  0.00    +0.000 C 
ATOM      7  C   UNL     1       5.226   4.083  19.945  0.00  0.00    +0.000 C 
ATOM      8  O   UNL     1       6.183   4.360  18.935  0.00  0.00    +0.000 OA
ATOM      9  C   UNL     1       6.072   5.556  18.280  0.00  0.00    +0.000 A 
ATOM     10  C   UNL     1       7.282   6.234  18.192  0.00  0.00    +0.000 A 
ATOM     11  C   UNL     1       7.343   7.435  17.494  0.00  0.00    +0.000 A 
ATOM     12  C   UNL     1       6.327   7.745  16.584  0.00  0.00    +0.000 A 
ATOM     13  C   UNL     1       5.098   7.104  16.707  0.00  0.00    +0.000 A 
ATOM     14  C   UNL     1       4.924   6.130  17.704  0.00  0.00    +0.000 A 
ENDROOT
BRANCH   1  19
ATOM     15  N   UNL     1       0.907   9.312  19.944  0.00  0.00    +0.000 N 
ATOM     16  N   UNL     1       0.316   9.989  20.955  0.00  0.00    +0.000 NA
ATOM     17  C   UNL     1       0.613   9.223  22.003  0.00  0.00    +0.000 A 
ATOM     18  N   UNL     1       1.327   8.099  21.715  0.00  0.00    +0.000 NA
ATOM     19  C   UNL     1       1.484   8.142  20.399  0.00  0.00    +0.000 A 
BRANCH  15  21
ATOM     20  C   UNL     1      -0.526  10.002  18.048  0.00  0.00    +0.000 C 
ATOM     21  C   UNL     1       0.897   9.897  18.610  0.00  0.00    +0.000 C 
ATOM     22  C   UNL     1       1.608  11.250  18.558  0.00  0.00    +0.000 C 
ENDBRANCH  15  21
ENDBRANCH   1  19
BRANCH  11  23
ATOM     23  C   UNL     1       8.225   8.479  17.984  0.00  0.00    +0.000 A 
ATOM     24  C   UNL     1       8.936   8.629  19.192  0.00  0.00    +0.000 A 
ATOM     25  N   UNL     1       9.355   9.884  19.396  0.00  0.00    +0.000 NA
ATOM     26  N   UNL     1       8.904  10.565  18.311  0.00  0.00    +0.000 N 
ATOM     27  C   UNL     1       8.161   9.764  17.485  0.00  0.00    +0.000 A 
BRANCH  26  28
ATOM     28  C   UNL     1       9.093  12.025  18.164  0.00  0.00    +0.000 C 
ATOM     29  C   UNL     1       7.982  12.613  17.262  0.00  0.00    +0.000 C 
ATOM     30  C   UNL     1       9.017  12.687  19.554  0.00  0.00    +0.000 C 
BRANCH  28  31
ATOM     31  C   UNL     1      10.433  12.444  17.521  0.00  0.00    +0.000 C 
ATOM     32  N   UNL     1      11.444  11.537  17.423  0.00  0.00    +0.000 N 
ATOM     33  O   UNL     1      10.615  13.571  17.053  0.00  0.00    +0.000 OA
ATOM     34  H   UNL     1      11.441  10.762  18.093  0.00  0.00    +0.000 HD
ATOM     35  H   UNL     1      12.343  11.885  17.124  0.00  0.00    +0.000 HD
ENDBRANCH  28  31
ENDBRANCH  26  28
ENDBRANCH  11  23
TORSDOF 5
ENDMDL
MODEL 3
REMARK VINA RESULT:      -7.4      4.073      7.139
REMARK  Name = 
REMARK  9 active torsions:
REMARK  status: ('A' for Active; 'I' for Inactive)
REMARK    1  A    between atoms: C_1  and  C_2
REMARK    2  A    between atoms: C_2  and  C_3
REMARK    3  A    between atoms: C_2  and  N_4
REMARK    4  A    between atoms: C_8  and  C_9
REMARK    5  A    between atoms: C_19  and  C_20
REMARK    6  A    between atoms: N_23  and  C_24
REMARK    7  A    between atoms: C_24  and  C_25
REMARK    8  A    between atoms: C_24  and  C_26
REMARK    9  A    between atoms: C_24  and  C_27
REMARK                            x       y       z     vdW  Elec       q    Type
REMARK                         _______ _______ _______ _____ _____    ______ ____
ROOT
ATOM      1  C   UNL     1       2.053   7.043  19.625  0.00  0.00    +0.000 A 
ATOM      2  N   UNL     1       2.912   7.228  18.639  0.00  0.00    +0.000 NA
ATOM      3  C   UNL     1       3.616   6.043  18.372  0.00  0.00    +0.000 A 
ATOM      4  C   UNL     1       3.172   4.952  19.093  0.00  0.00    +0.000 A 
ATOM      5  S   UNL     1       1.835   5.386  20.037  0.00  0.00    +0.000 S 
ATOM      6  C   UNL     1       3.884   3.676  19.340  0.00  0.00    +0.000 C 
ATOM      7  C   UNL     1       5.223   4.059  19.960  0.00  0.00    +0.000 C 
ATOM      8  O   UNL     1       6.181   4.335  18.950  0.00  0.00    +0.000 OA
ATOM      9  C   UNL     1       6.070   5.529  18.293  0.00  0.00    +0.000 A 
ATOM     10  C   UNL     1       7.281   6.207  18.205  0.00  0.00    +0.000 A 
ATOM     11  C   UNL     1       7.342   7.407  17.505  0.00  0.00    +0.000 A 
ATOM     12  C   UNL     1       6.326   7.716  16.595  0.00  0.00    +0.000 A 
ATOM     13  C   UNL     1       5.097   7.076  16.718  0.00  0.00    +0.000 A 
ATOM     14  C   UNL     1       4.923   6.104  17.716  0.00  0.00    +0.000 A 
ENDROOT
BRANCH   1  19
ATOM     15  N   UNL     1       0.813   9.239  19.952  0.00  0.00    +0.000 N 
ATOM     16  N   UNL     1       0.259   9.926  20.978  0.00  0.00    +0.000 NA
ATOM     17  C   UNL     1       0.669   9.220  22.029  0.00  0.00    +0.000 A 
ATOM     18  N   UNL     1       1.420   8.122  21.733  0.00  0.00    +0.000 NA
ATOM     19  C   UNL     1       1.482   8.119  20.408  0.00  0.00    +0.000 A 
BRANCH  15  21
ATOM     20  C   UNL     1      -0.707  10.381  18.369  0.00  0.00    +0.000 C 
ATOM     21  C   UNL     1       0.678   9.767  18.602  0.00  0.00    +0.000 C 
ATOM     22  C   UNL     1       1.785  10.763  18.248  0.00  0.00    +0.000 C 
ENDBRANCH  15  21
ENDBRANCH   1  19
BRANCH  11  23
ATOM     23  C   UNL     1       8.224   8.452  17.995  0.00  0.00    +0.000 A 
ATOM     24  C   UNL     1       8.919   8.612  19.210  0.00  0.00    +0.000 A 
ATOM     25  N   UNL     1       9.344   9.866  19.405  0.00  0.00    +0.000 NA
ATOM     26  N   UNL     1       8.912  10.537  18.305  0.00  0.00    +0.000 N 
ATOM     27  C   UNL     1       8.175   9.731  17.479  0.00  0.00    +0.000 A 
BRANCH  26  28
ATOM     28  C   UNL     1       9.112  11.995  18.144  0.00  0.00    +0.000 C 
ATOM     29  C   UNL     1      10.465  12.268  17.447  0.00  0.00    +0.000 C 
ATOM     30  C   UNL     1       7.974  12.567  17.276  0.00  0.00    +0.000 C 
BRANCH  28  31
ATOM     31  C   UNL     1       9.139  12.795  19.464  0.00  0.00    +0.000 C 
ATOM     32  N   UNL     1      10.075  12.501  20.409  0.00  0.00    +0.000 N 
ATOM     33  O   UNL     1       8.360  13.726  19.685  0.00  0.00    +0.000 OA
ATOM     34  H   UNL     1      10.464  11.554  20.400  0.00  0.00    +0.000 HD
ATOM     35  H   UNL     1       9.974  12.951  21.307  0.00  0.00    +0.000 HD
ENDBRANCH  28  31
ENDBRANCH  26  28
ENDBRANCH  11  23
TORSDOF 5
ENDMDL
MODEL 4
REMARK VINA RESULT:      -7.3      0.863      1.759
REMARK  Name = 
REMARK  9 active torsions:
REMARK  status: ('A' for Active; 'I' for Inactive)
REMARK    1  A    between atoms: C_1  and  C_2
REMARK    2  A    between atoms: C_2  and  C_3
REMARK    3  A    between atoms: C_2  and  N_4
REMARK    4  A    between atoms: C_8  and  C_9
REMARK    5  A    between atoms: C_19  and  C_20
REMARK    6  A    between atoms: N_23  and  C_24
REMARK    7  A    between atoms: C_24  and  C_25
REMARK    8  A    between atoms: C_24  and  C_26
REMARK    9  A    between atoms: C_24  and  C_27
REMARK                            x       y       z     vdW  Elec       q    Type
REMARK                         _______ _______ _______ _____ _____    ______ ____
ROOT
ATOM      1  C   UNL     1       1.590  13.468  19.797  0.00  0.00    +0.000 A 
ATOM      2  N   UNL     1       1.307  12.419  19.046  0.00  0.00    +0.000 NA
ATOM      3  C   UNL     1       0.545  11.489  19.769  0.00  0.00    +0.000 A 
ATOM      4  C   UNL     1       0.166  11.927  21.023  0.00  0.00    +0.000 A 
ATOM      5  S   UNL     1       0.691  13.519  21.264  0.00  0.00    +0.000 S 
ATOM      6  C   UNL     1      -0.307  11.111  22.166  0.00  0.00    +0.000 C 
ATOM      7  C   UNL     1       0.774  10.064  22.408  0.00  0.00    +0.000 C 
ATOM      8  O   UNL     1       0.566   8.930  21.581  0.00  0.00    +0.000 OA
ATOM      9  C   UNL     1       0.889   9.052  20.258  0.00  0.00    +0.000 A 
ATOM     10  C   UNL     1       1.651   7.987  19.792  0.00  0.00    +0.000 A 
ATOM     11  C   UNL     1       2.001   7.936  18.447  0.00  0.00    +0.000 A 
ATOM     12  C   UNL     1       1.284   8.709  17.527  0.00  0.00    +0.000 A 
ATOM     13  C   UNL     1       0.566   9.807  17.990  0.00  0.00    +0.000 A 
ATOM     14  C   UNL     1       0.536  10.082  19.367  0.00  0.00    +0.000 A 
ENDROOT
BRANCH   1  19
ATOM     15  N   UNL     1       3.712  14.758  20.344  0.00  0.00    +0.000 N 
ATOM     16  N   UNL     1       4.630  15.495  19.676  0.00  0.00    +0.000 NA
ATOM     17  C   UNL     1       4.070  15.597  18.472  0.00  0.00    +0.000 A 
ATOM     18  N   UNL     1       2.878  14.952  18.331  0.00  0.00    +0.000 NA
ATOM     19  C   UNL     1       2.669  14.392  19.515  0.00  0.00    +0.000 A 
BRANCH  15  21
ATOM     20  C   UNL     1       5.359  14.095  22.068  0.00  0.00    +0.000 C 
ATOM     21  C   UNL     1       3.915  14.509  21.765  0.00  0.00    +0.000 C 
ATOM     22  C   UNL     1       3.491  15.695  22.634  0.00  0.00    +0.000 C 
ENDBRANCH  15  21
ENDBRANCH   1  19
BRANCH  11  23
ATOM     23  C   UNL     1       3.300   7.395  18.088  0.00  0.00    +0.000 A 
ATOM     24  C   UNL     1       4.257   7.785  17.129  0.00  0.00    +0.000 A 
ATOM     25  N   UNL     1       5.160   6.830  16.878  0.00  0.00    +0.000 NA
ATOM     26  N   UNL     1       4.783   5.798  17.677  0.00  0.00    +0.000 N 
ATOM     27  C   UNL     1       3.629   6.083  18.358  0.00  0.00    +0.000 A 
BRANCH  26  28
ATOM     28  C   UNL     1       5.483   4.494  17.661  0.00  0.00    +0.000 C 
ATOM     29  C   UNL     1       5.225   3.741  18.987  0.00  0.00    +0.000 C 
ATOM     30  C   UNL     1       4.948   3.648  16.489  0.00  0.00    +0.000 C 
BRANCH  28  31
ATOM     31  C   UNL     1       7.017   4.584  17.510  0.00  0.00    +0.000 C 
ATOM     32  N   UNL     1       7.559   4.818  16.282  0.00  0.00    +0.000 N 
ATOM     33  O   UNL     1       7.780   4.488  18.475  0.00  0.00    +0.000 OA
ATOM     34  H   UNL     1       7.000   4.549  15.468  0.00  0.00    +0.000 HD
ATOM     35  H   UNL     1       8.562   4.734  16.202  0.00  0.00    +0.000 HD
ENDBRANCH  28  31
ENDBRANCH  26  28
ENDBRANCH  11  23
TORSDOF 5
ENDMDL
MODEL 5
REMARK VINA RESULT:      -7.3      4.175      7.478
REMARK  Name = 
REMARK  9 active torsions:
REMARK  status: ('A' for Active; 'I' for Inactive)
REMARK    1  A    between atoms: C_1  and  C_2
REMARK    2  A    between atoms: C_2  and  C_3
REMARK    3  A    between atoms: C_2  and  N_4
REMARK    4  A    between atoms: C_8  and  C_9
REMARK    5  A    between atoms: C_19  and  C_20
REMARK    6  A    between atoms: N_23  and  C_24
REMARK    7  A    between atoms: C_24  and  C_25
REMARK    8  A    between atoms: C_24  and  C_26
REMARK    9  A    between atoms: C_24  and  C_27
REMARK                            x       y       z     vdW  Elec       q    Type
REMARK                         _______ _______ _______ _____ _____    ______ ____
ROOT
ATOM      1  C   UNL     1       1.779  12.949  19.392  0.00  0.00    +0.000 A 
ATOM      2  N   UNL     1       2.776  13.488  20.069  0.00  0.00    +0.000 NA
ATOM      3  C   UNL     1       2.818  14.875  19.859  0.00  0.00    +0.000 A 
ATOM      4  C   UNL     1       1.760  15.364  19.119  0.00  0.00    +0.000 A 
ATOM      5  S   UNL     1       0.680  14.111  18.754  0.00  0.00    +0.000 S 
ATOM      6  C   UNL     1       1.669  16.663  18.412  0.00  0.00    +0.000 C 
ATOM      7  C   UNL     1       2.878  16.720  17.485  0.00  0.00    +0.000 C 
ATOM      8  O   UNL     1       4.009  17.233  18.170  0.00  0.00    +0.000 OA
ATOM      9  C   UNL     1       4.641  16.397  19.049  0.00  0.00    +0.000 A 
ATOM     10  C   UNL     1       6.020  16.382  18.877  0.00  0.00    +0.000 A 
ATOM     11  C   UNL     1       6.808  15.629  19.742  0.00  0.00    +0.000 A 
ATOM     12  C   UNL     1       6.274  15.226  20.971  0.00  0.00    +0.000 A 
ATOM     13  C   UNL     1       4.891  15.191  21.123  0.00  0.00    +0.000 A 
ATOM     14  C   UNL     1       4.070  15.606  20.063  0.00  0.00    +0.000 A 
ENDROOT
BRANCH   1  19
ATOM     15  N   UNL     1       0.994  10.552  19.716  0.00  0.00    +0.000 N 
ATOM     16  N   UNL     1       1.003   9.396  19.011  0.00  0.00    +0.000 NA
ATOM     17  C   UNL     1       1.772   9.720  17.973  0.00  0.00    +0.000 A 
ATOM     18  N   UNL     1       2.223  11.006  17.965  0.00  0.00    +0.000 NA
ATOM     19  C   UNL     1       1.699  11.541  19.060  0.00  0.00    +0.000 A 
BRANCH  15  21
ATOM     20  C   UNL     1      -0.997  11.349  20.952  0.00  0.00    +0.000 C 
ATOM     21  C   UNL     1       0.325  10.576  21.010  0.00  0.00    +0.000 C 
ATOM     22  C   UNL     1       0.116   9.175  21.588  0.00  0.00    +0.000 C 
ENDBRANCH  15  21
ENDBRANCH   1  19
BRANCH  11  23
ATOM     23  C   UNL     1       7.990  14.974  19.212  0.00  0.00    +0.000 A 
ATOM     24  C   UNL     1       8.731  15.169  18.029  0.00  0.00    +0.000 A 
ATOM     25  N   UNL     1       9.540  14.141  17.747  0.00  0.00    +0.000 NA
ATOM     26  N   UNL     1       9.319  13.258  18.755  0.00  0.00    +0.000 N 
ATOM     27  C   UNL     1       8.341  13.699  19.607  0.00  0.00    +0.000 A 
BRANCH  26  28
ATOM     28  C   UNL     1       9.971  11.930  18.796  0.00  0.00    +0.000 C 
ATOM     29  C   UNL     1       9.002  10.849  18.263  0.00  0.00    +0.000 C 
ATOM     30  C   UNL     1      11.232  11.958  17.909  0.00  0.00    +0.000 C 
BRANCH  28  31
ATOM     31  C   UNL     1      10.402  11.464  20.204  0.00  0.00    +0.000 C 
ATOM     32  N   UNL     1       9.556  10.699  20.947  0.00  0.00    +0.000 N 
ATOM     33  O   UNL     1      11.511  11.730  20.674  0.00  0.00    +0.000 OA
ATOM     34  H   UNL     1       8.555  10.774  20.739  0.00  0.00    +0.000 HD
ATOM     35  H   UNL     1       9.816  10.531  21.908  0.00  0.00    +0.000 HD
ENDBRANCH  28  31
ENDBRANCH  26  28
ENDBRANCH  11  23
TORSDOF 5
ENDMDL
MODEL 6
REMARK VINA RESULT:      -7.2      0.960      1.046
REMARK  Name = 
REMARK  9 active torsions:
REMARK  status: ('A' for Active; 'I' for Inactive)
REMARK    1  A    between atoms: C_1  and  C_2
REMARK    2  A    between atoms: C_2  and  C_3
REMARK    3  A    between atoms: C_2  and  N_4
REMARK    4  A    between atoms: C_8  and  C_9
REMARK    5  A    between atoms: C_19  and  C_20
REMARK    6  A    between atoms: N_23  and  C_24
REMARK    7  A    between atoms: C_24  and  C_25
REMARK    8  A    between atoms: C_24  and  C_26
REMARK    9  A    between atoms: C_24  and  C_27
REMARK                            x       y       z     vdW  Elec       q    Type
REMARK                         _______ _______ _______ _____ _____    ______ ____
ROOT
ATOM      1  C   UNL     1       1.530  13.306  19.690  0.00  0.00    +0.000 A 
ATOM      2  N   UNL     1       1.277  12.235  18.961  0.00  0.00    +0.000 NA
ATOM      3  C   UNL     1       0.569  11.285  19.713  0.00  0.00    +0.000 A 
ATOM      4  C   UNL     1       0.195  11.727  20.967  0.00  0.00    +0.000 A 
ATOM      5  S   UNL     1       0.658  13.343  21.174  0.00  0.00    +0.000 S 
ATOM      6  C   UNL     1      -0.221  10.910  22.131  0.00  0.00    +0.000 C 
ATOM      7  C   UNL     1       0.909   9.913  22.368  0.00  0.00    +0.000 C 
ATOM      8  O   UNL     1       0.732   8.758  21.562  0.00  0.00    +0.000 OA
ATOM      9  C   UNL     1       1.025   8.873  20.231  0.00  0.00    +0.000 A 
ATOM     10  C   UNL     1       1.822   7.834  19.766  0.00  0.00    +0.000 A 
ATOM     11  C   UNL     1       2.149   7.776  18.415  0.00  0.00    +0.000 A 
ATOM     12  C   UNL     1       1.383   8.504  17.499  0.00  0.00    +0.000 A 
ATOM     13  C   UNL     1       0.627   9.578  17.959  0.00  0.00    +0.000 A 
ATOM     14  C   UNL     1       0.613   9.873  19.331  0.00  0.00    +0.000 A 
ENDROOT
BRANCH   1  19
ATOM     15  N   UNL     1       2.418  15.620  19.121  0.00  0.00    +0.000 N 
ATOM     16  N   UNL     1       3.621  16.236  19.050  0.00  0.00    +0.000 NA
ATOM     17  C   UNL     1       4.457  15.212  19.206  0.00  0.00    +0.000 A 
ATOM     18  N   UNL     1       3.862  14.001  19.396  0.00  0.00    +0.000 NA
ATOM     19  C   UNL     1       2.564  14.270  19.374  0.00  0.00    +0.000 A 
BRANCH  15  21
ATOM     20  C   UNL     1       0.671  17.012  20.186  0.00  0.00    +0.000 C 
ATOM     21  C   UNL     1       1.214  16.407  18.887  0.00  0.00    +0.000 C 
ATOM     22  C   UNL     1       1.417  17.487  17.822  0.00  0.00    +0.000 C 
ENDBRANCH  15  21
ENDBRANCH   1  19
BRANCH  11  23
ATOM     23  C   UNL     1       3.463   7.285  18.040  0.00  0.00    +0.000 A 
ATOM     24  C   UNL     1       4.628   7.941  17.595  0.00  0.00    +0.000 A 
ATOM     25  N   UNL     1       5.509   7.108  17.028  0.00  0.00    +0.000 NA
ATOM     26  N   UNL     1       4.908   5.892  17.095  0.00  0.00    +0.000 N 
ATOM     27  C   UNL     1       3.649   5.980  17.629  0.00  0.00    +0.000 A 
BRANCH  26  28
ATOM     28  C   UNL     1       5.519   4.678  16.509  0.00  0.00    +0.000 C 
ATOM     29  C   UNL     1       4.844   3.415  17.091  0.00  0.00    +0.000 C 
ATOM     30  C   UNL     1       5.319   4.699  14.981  0.00  0.00    +0.000 C 
BRANCH  28  31
ATOM     31  C   UNL     1       7.031   4.520  16.780  0.00  0.00    +0.000 C 
ATOM     32  N   UNL     1       7.472   4.349  18.057  0.00  0.00    +0.000 N 
ATOM     33  O   UNL     1       7.864   4.505  15.870  0.00  0.00    +0.000 OA
ATOM     34  H   UNL     1       6.873   4.705  18.808  0.00  0.00    +0.000 HD
ATOM     35  H   UNL     1       8.469   4.386  18.205  0.00  0.00    +0.000 HD
ENDBRANCH  28  31
ENDBRANCH  26  28
ENDBRANCH  11  23
TORSDOF 5
ENDMDL
MODEL 7
REMARK VINA RESULT:      -7.2      3.772      5.391
REMARK  Name = 
REMARK  9 active torsions:
REMARK  status: ('A' for Active; 'I' for Inactive)
REMARK    1  A    between atoms: C_1  and  C_2
REMARK    2  A    between atoms: C_2  and  C_3
REMARK    3  A    between atoms: C_2  and  N_4
REMARK    4  A    between atoms: C_8  and  C_9
REMARK    5  A    between atoms: C_19  and  C_20
REMARK    6  A    between atoms: N_23  and  C_24
REMARK    7  A    between atoms: C_24  and  C_25
REMARK    8  A    between atoms: C_24  and  C_26
REMARK    9  A    between atoms: C_24  and  C_27
REMARK                            x       y       z     vdW  Elec       q    Type
REMARK                         _______ _______ _______ _____ _____    ______ ____
ROOT
ATOM      1  C   UNL     1      -2.344  11.501  18.759  0.00  0.00    +0.000 A 
ATOM      2  N   UNL     1      -2.008  10.562  19.624  0.00  0.00    +0.000 NA
ATOM      3  C   UNL     1      -1.104  11.068  20.572  0.00  0.00    +0.000 A 
ATOM      4  C   UNL     1      -0.879  12.426  20.464  0.00  0.00    +0.000 A 
ATOM      5  S   UNL     1      -1.850  13.078  19.238  0.00  0.00    +0.000 S 
ATOM      6  C   UNL     1       0.246  13.208  21.027  0.00  0.00    +0.000 C 
ATOM      7  C   UNL     1       1.517  12.541  20.513  0.00  0.00    +0.000 C 
ATOM      8  O   UNL     1       1.901  11.475  21.367  0.00  0.00    +0.000 OA
ATOM      9  C   UNL     1       1.181  10.315  21.283  0.00  0.00    +0.000 A 
ATOM     10  C   UNL     1       1.989   9.188  21.192  0.00  0.00    +0.000 A 
ATOM     11  C   UNL     1       1.401   7.927  21.167  0.00  0.00    +0.000 A 
ATOM     12  C   UNL     1       0.084   7.782  21.616  0.00  0.00    +0.000 A 
ATOM     13  C   UNL     1      -0.739   8.903  21.656  0.00  0.00    +0.000 A 
ATOM     14  C   UNL     1      -0.217  10.155  21.293  0.00  0.00    +0.000 A 
ENDROOT
BRANCH   1  19
ATOM     15  N   UNL     1      -4.182  11.523  17.002  0.00  0.00    +0.000 N 
ATOM     16  N   UNL     1      -4.292  11.291  15.673  0.00  0.00    +0.000 NA
ATOM     17  C   UNL     1      -3.088  10.803  15.383  0.00  0.00    +0.000 A 
ATOM     18  N   UNL     1      -2.221  10.738  16.433  0.00  0.00    +0.000 NA
ATOM     19  C   UNL     1      -2.911  11.228  17.454  0.00  0.00    +0.000 A 
BRANCH  15  21
ATOM     20  C   UNL     1      -6.213  12.933  16.893  0.00  0.00    +0.000 C 
ATOM     21  C   UNL     1      -5.358  11.976  17.732  0.00  0.00    +0.000 C 
ATOM     22  C   UNL     1      -6.198  10.816  18.269  0.00  0.00    +0.000 C 
ENDBRANCH  15  21
ENDBRANCH   1  19
BRANCH  11  23
ATOM     23  C   UNL     1       2.011   6.894  20.349  0.00  0.00    +0.000 A 
ATOM     24  C   UNL     1       2.438   6.876  19.006  0.00  0.00    +0.000 A 
ATOM     25  N   UNL     1       2.625   5.638  18.536  0.00  0.00    +0.000 NA
ATOM     26  N   UNL     1       2.309   4.833  19.584  0.00  0.00    +0.000 N 
ATOM     27  C   UNL     1       1.866   5.557  20.660  0.00  0.00    +0.000 A 
BRANCH  26  28
ATOM     28  C   UNL     1       2.314   3.358  19.473  0.00  0.00    +0.000 C 
ATOM     29  C   UNL     1       2.104   2.723  20.868  0.00  0.00    +0.000 C 
ATOM     30  C   UNL     1       1.168   2.917  18.540  0.00  0.00    +0.000 C 
BRANCH  28  31
ATOM     31  C   UNL     1       3.624   2.754  18.919  0.00  0.00    +0.000 C 
ATOM     32  N   UNL     1       4.818   3.314  19.258  0.00  0.00    +0.000 N 
ATOM     33  O   UNL     1       3.634   1.750  18.203  0.00  0.00    +0.000 OA
ATOM     34  H   UNL     1       4.808   4.302  19.531  0.00  0.00    +0.000 HD
ATOM     35  H   UNL     1       5.635   2.978  18.770  0.00  0.00    +0.000 HD
ENDBRANCH  28  31
ENDBRANCH  26  28
ENDBRANCH  11  23
TORSDOF 5
ENDMDL
MODEL 8
REMARK VINA RESULT:      -7.2      4.677      7.441
REMARK  Name = 
REMARK  9 active torsions:
REMARK  status: ('A' for Active; 'I' for Inactive)
REMARK    1  A    between atoms: C_1  and  C_2
REMARK    2  A    between atoms: C_2  and  C_3
REMARK    3  A    between atoms: C_2  and  N_4
REMARK    4  A    between atoms: C_8  and  C_9
REMARK    5  A    between atoms: C_19  and  C_20
REMARK    6  A    between atoms: N_23  and  C_24
REMARK    7  A    between atoms: C_24  and  C_25
REMARK    8  A    between atoms: C_24  and  C_26
REMARK    9  A    between atoms: C_24  and  C_27
REMARK                            x       y       z     vdW  Elec       q    Type
REMARK                         _______ _______ _______ _____ _____    ______ ____
ROOT
ATOM      1  C   UNL     1       0.967  13.304  20.712  0.00  0.00    +0.000 A 
ATOM      2  N   UNL     1       2.160  13.701  21.115  0.00  0.00    +0.000 NA
ATOM      3  C   UNL     1       2.304  15.086  20.938  0.00  0.00    +0.000 A 
ATOM      4  C   UNL     1       1.152  15.720  20.516  0.00  0.00    +0.000 A 
ATOM      5  S   UNL     1      -0.120  14.606  20.417  0.00  0.00    +0.000 S 
ATOM      6  C   UNL     1       1.028  17.058  19.892  0.00  0.00    +0.000 C 
ATOM      7  C   UNL     1       1.954  17.042  18.681  0.00  0.00    +0.000 C 
ATOM      8  O   UNL     1       3.275  17.399  19.057  0.00  0.00    +0.000 OA
ATOM      9  C   UNL     1       4.014  16.455  19.716  0.00  0.00    +0.000 A 
ATOM     10  C   UNL     1       5.291  16.308  19.186  0.00  0.00    +0.000 A 
ATOM     11  C   UNL     1       6.185  15.432  19.793  0.00  0.00    +0.000 A 
ATOM     12  C   UNL     1       5.946  15.020  21.108  0.00  0.00    +0.000 A 
ATOM     13  C   UNL     1       4.656  15.118  21.619  0.00  0.00    +0.000 A 
ATOM     14  C   UNL     1       3.640  15.672  20.823  0.00  0.00    +0.000 A 
ENDROOT
BRANCH   1  19
ATOM     15  N   UNL     1      -0.038  11.008  21.141  0.00  0.00    +0.000 N 
ATOM     16  N   UNL     1      -0.314   9.892  20.427  0.00  0.00    +0.000 NA
ATOM     17  C   UNL     1       0.271  10.166  19.263  0.00  0.00    +0.000 A 
ATOM     18  N   UNL     1       0.872  11.386  19.188  0.00  0.00    +0.000 NA
ATOM     19  C   UNL     1       0.645  11.933  20.375  0.00  0.00    +0.000 A 
BRANCH  15  21
ATOM     20  C   UNL     1      -1.798  11.724  22.726  0.00  0.00    +0.000 C 
ATOM     21  C   UNL     1      -0.430  11.056  22.543  0.00  0.00    +0.000 C 
ATOM     22  C   UNL     1      -0.400   9.679  23.209  0.00  0.00    +0.000 C 
ENDBRANCH  15  21
ENDBRANCH   1  19
BRANCH  11  23
ATOM     23  C   UNL     1       7.107  14.690  18.952  0.00  0.00    +0.000 A 
ATOM     24  C   UNL     1       6.975  14.127  17.667  0.00  0.00    +0.000 A 
ATOM     25  N   UNL     1       7.933  13.234  17.390  0.00  0.00    +0.000 NA
ATOM     26  N   UNL     1       8.697  13.207  18.513  0.00  0.00    +0.000 N 
ATOM     27  C   UNL     1       8.183  14.014  19.493  0.00  0.00    +0.000 A 
BRANCH  26  28
ATOM     28  C   UNL     1       9.846  12.286  18.661  0.00  0.00    +0.000 C 
ATOM     29  C   UNL     1       9.361  10.820  18.575  0.00  0.00    +0.000 C 
ATOM     30  C   UNL     1      10.856  12.551  17.527  0.00  0.00    +0.000 C 
BRANCH  28  31
ATOM     31  C   UNL     1      10.605  12.409  20.000  0.00  0.00    +0.000 C 
ATOM     32  N   UNL     1      10.256  11.611  21.047  0.00  0.00    +0.000 N 
ATOM     33  O   UNL     1      11.552  13.186  20.150  0.00  0.00    +0.000 OA
ATOM     34  H   UNL     1       9.298  11.248  21.057  0.00  0.00    +0.000 HD
ATOM     35  H   UNL     1      10.682  11.816  21.939  0.00  0.00    +0.000 HD
ENDBRANCH  28  31
ENDBRANCH  26  28
ENDBRANCH  11  23
TORSDOF 5
ENDMDL
MODEL 9
REMARK VINA RESULT:      -7.2      4.400      7.551
REMARK  Name = 
REMARK  9 active torsions:
REMARK  status: ('A' for Active; 'I' for Inactive)
REMARK    1  A    between atoms: C_1  and  C_2
REMARK    2  A    between atoms: C_2  and  C_3
REMARK    3  A    between atoms: C_2  and  N_4
REMARK    4  A    between atoms: C_8  and  C_9
REMARK    5  A    between atoms: C_19  and  C_20
REMARK    6  A    between atoms: N_23  and  C_24
REMARK    7  A    between atoms: C_24  and  C_25
REMARK    8  A    between atoms: C_24  and  C_26
REMARK    9  A    between atoms: C_24  and  C_27
REMARK                            x       y       z     vdW  Elec       q    Type
REMARK                         _______ _______ _______ _____ _____    ______ ____
ROOT
ATOM      1  C   UNL     1       1.304  12.555  20.759  0.00  0.00    +0.000 A 
ATOM      2  N   UNL     1       2.279  13.211  21.361  0.00  0.00    +0.000 NA
ATOM      3  C   UNL     1       2.547  14.415  20.693  0.00  0.00    +0.000 A 
ATOM      4  C   UNL     1       1.670  14.693  19.663  0.00  0.00    +0.000 A 
ATOM      5  S   UNL     1       0.473  13.498  19.582  0.00  0.00    +0.000 S 
ATOM      6  C   UNL     1       1.856  15.646  18.543  0.00  0.00    +0.000 C 
ATOM      7  C   UNL     1       3.166  15.250  17.870  0.00  0.00    +0.000 C 
ATOM      8  O   UNL     1       4.267  15.873  18.513  0.00  0.00    +0.000 OA
ATOM      9  C   UNL     1       4.657  15.362  19.720  0.00  0.00    +0.000 A 
ATOM     10  C   UNL     1       6.030  15.159  19.797  0.00  0.00    +0.000 A 
ATOM     11  C   UNL     1       6.588  14.707  20.989  0.00  0.00    +0.000 A 
ATOM     12  C   UNL     1       5.854  14.833  22.173  0.00  0.00    +0.000 A 
ATOM     13  C   UNL     1       4.473  14.982  22.095  0.00  0.00    +0.000 A 
ATOM     14  C   UNL     1       3.857  15.052  20.835  0.00  0.00    +0.000 A 
ENDROOT
BRANCH   1  19
ATOM     15  N   UNL     1       0.997  10.164  19.951  0.00  0.00    +0.000 N 
ATOM     16  N   UNL     1       0.944   8.927  20.497  0.00  0.00    +0.000 NA
ATOM     17  C   UNL     1       0.920   9.208  21.799  0.00  0.00    +0.000 A 
ATOM     18  N   UNL     1       0.980  10.533  22.106  0.00  0.00    +0.000 NA
ATOM     19  C   UNL     1       1.063  11.137  20.928  0.00  0.00    +0.000 A 
BRANCH  15  21
ATOM     20  C   UNL     1       1.939   9.368  17.805  0.00  0.00    +0.000 C 
ATOM     21  C   UNL     1       0.933  10.291  18.501  0.00  0.00    +0.000 C 
ATOM     22  C   UNL     1      -0.480  10.072  17.955  0.00  0.00    +0.000 C 
ENDBRANCH  15  21
ENDBRANCH   1  19
BRANCH  11  23
ATOM     23  C   UNL     1       7.719  13.799  20.925  0.00  0.00    +0.000 A 
ATOM     24  C   UNL     1       8.591  13.300  21.913  0.00  0.00    +0.000 A 
ATOM     25  N   UNL     1       9.705  12.765  21.401  0.00  0.00    +0.000 NA
ATOM     26  N   UNL     1       9.565  12.924  20.060  0.00  0.00    +0.000 N 
ATOM     27  C   UNL     1       8.418  13.607  19.750  0.00  0.00    +0.000 A 
BRANCH  26  28
ATOM     28  C   UNL     1      10.622  12.526  19.104  0.00  0.00    +0.000 C 
ATOM     29  C   UNL     1      11.882  12.067  19.873  0.00  0.00    +0.000 C 
ATOM     30  C   UNL     1      10.107  11.360  18.237  0.00  0.00    +0.000 C 
BRANCH  28  31
ATOM     31  C   UNL     1      11.087  13.648  18.149  0.00  0.00    +0.000 C 
ATOM     32  N   UNL     1      10.703  13.620  16.842  0.00  0.00    +0.000 N 
ATOM     33  O   UNL     1      11.770  14.599  18.535  0.00  0.00    +0.000 OA
ATOM     34  H   UNL     1      10.462  12.706  16.447  0.00  0.00    +0.000 HD
ATOM     35  H   UNL     1      11.137  14.290  16.225  0.00  0.00    +0.000 HD
ENDBRANCH  28  31
ENDBRANCH  26  28
ENDBRANCH  11  23
TORSDOF 5
ENDMDL
