MODEL 1
REMARK VINA RESULT:      -7.3      0.000      0.000
REMARK  Name = 
REMARK  8 active torsions:
REMARK  status: ('A' for Active; 'I' for Inactive)
REMARK    1  A    between atoms: C_1  and  O_2
REMARK    2  A    between atoms: O_2  and  C_3
REMARK    3  A    between atoms: C_8  and  C_9
REMARK    4  A    between atoms: C_9  and  C_10
REMARK    5  A    between atoms: C_10  and  N_11
REMARK    6  A    between atoms: N_11  and  C_12
REMARK    7  A    between atoms: C_18  and  C_19
REMARK    8  A    between atoms: C_26  and  C_27
REMARK                            x       y       z     vdW  Elec       q    Type
REMARK                         _______ _______ _______ _____ _____    ______ ____
ROOT
ATOM      1  C   UNL     1       1.851   7.934  19.905  0.00  0.00    +0.000 A 
ATOM      2  N   UNL     1       2.689   7.554  18.907  0.00  0.00    +0.000 NA
ATOM      3  C   UNL     1       2.784   8.279  17.791  0.00  0.00    +0.000 A 
ATOM      4  N   UNL     1       2.126   9.395  17.518  0.00  0.00    +0.000 NA
ATOM      5  C   UNL     1       1.277   9.740  18.494  0.00  0.00    +0.000 A 
ATOM      6  S   UNL     1       0.422  11.177  18.357  0.00  0.00    +0.000 S 
ATOM      7  C   UNL     1      -0.550  10.859  19.724  0.00  0.00    +0.000 A 
ATOM      8  C   UNL     1       0.000   9.787  20.452  0.00  0.00    +0.000 A 
ATOM      9  C   UNL     1      -0.407   9.379  21.839  0.00  0.00    +0.000 C 
ATOM     10  C   UNL     1       1.039   9.079  19.689  0.00  0.00    +0.000 A 
ENDROOT
BRANCH   7  11
ATOM     11  C   UNL     1      -1.640  11.777  20.100  0.00  0.00    +0.000 C 
ATOM     12  O   UNL     1      -2.716  11.748  19.491  0.00  0.00    +0.000 OA
ATOM     13  N   UNL     1      -1.522  12.694  21.152  0.00  0.00    +0.000 N 
ATOM     14  C   UNL     1      -0.385  13.141  21.949  0.00  0.00    +0.000 C 
ATOM     15  C   UNL     1      -1.026  13.463  23.288  0.00  0.00    +0.000 C 
ATOM     16  C   UNL     1      -2.323  14.143  22.873  0.00  0.00    +0.000 C 
ATOM     17  C   UNL     1      -2.699  13.454  21.558  0.00  0.00    +0.000 C 
ENDBRANCH   7  11
BRANCH   1  18
ATOM     18  N   UNL     1       1.879   7.165  21.089  0.00  0.00    +0.000 N 
ATOM     19  H   UNL     1       2.801   7.144  21.503  0.00  0.00    +0.000 HD
BRANCH  18  20
ATOM     20  C   UNL     1       1.325   5.826  20.833  0.00  0.00    +0.000 C 
BRANCH  20  21
ATOM     21  C   UNL     1       2.300   4.704  21.178  0.00  0.00    +0.000 C 
BRANCH  21  27
ATOM     22  C   UNL     1       3.590   3.807  19.158  0.00  0.00    +0.000 A 
ATOM     23  C   UNL     1       3.687   2.925  18.076  0.00  0.00    +0.000 A 
ATOM     24  C   UNL     1       2.611   2.107  17.734  0.00  0.00    +0.000 A 
ATOM     25  C   UNL     1       1.443   2.142  18.489  0.00  0.00    +0.000 A 
ATOM     26  C   UNL     1       1.370   2.959  19.618  0.00  0.00    +0.000 A 
ATOM     27  C   UNL     1       2.450   3.781  19.979  0.00  0.00    +0.000 A 
BRANCH  22  29
ATOM     28  C   UNL     1       5.402   5.107  18.376  0.00  0.00    +0.000 C 
ATOM     29  O   UNL     1       4.564   4.721  19.466  0.00  0.00    +0.000 OA
ENDBRANCH  22  29
ENDBRANCH  21  27
ENDBRANCH  20  21
ENDBRANCH  18  20
ENDBRANCH   1  18
TORSDOF 6
ENDMDL
MODEL 2
REMARK VINA RESULT:      -7.1      3.637      9.483
REMARK  Name = 
REMARK  8 active torsions:
REMARK  status: ('A' for Active; 'I' for Inactive)
REMARK    1  A    between atoms: C_1  and  O_2
REMARK    2  A    between atoms: O_2  and  C_3
REMARK    3  A    between atoms: C_8  and  C_9
REMARK    4  A    between atoms: C_9  and  C_10
REMARK    5  A    between atoms: C_10  and  N_11
REMARK    6  A    between atoms: N_11  and  C_12
REMARK    7  A    between atoms: C_18  and  C_19
REMARK    8  A    between atoms: C_26  and  C_27
REMARK                            x       y       z     vdW  Elec       q    Type
REMARK                         _______ _______ _______ _____ _____    ______ ____
ROOT
ATOM      1  C   UNL     1       2.891   5.826  19.135  0.00  0.00    +0.000 A 
ATOM      2  N   UNL     1       1.898   5.012  19.577  0.00  0.00    +0.000 NA
ATOM      3  C   UNL     1       1.781   3.770  19.106  0.00  0.00    +0.000 A 
ATOM      4  N   UNL     1       2.564   3.190  18.209  0.00  0.00    +0.000 NA
ATOM      5  C   UNL     1       3.517   4.013  17.755  0.00  0.00    +0.000 A 
ATOM      6  S   UNL     1       4.656   3.420  16.674  0.00  0.00    +0.000 S 
ATOM      7  C   UNL     1       5.337   4.957  16.376  0.00  0.00    +0.000 A 
ATOM      8  C   UNL     1       4.877   5.870  17.344  0.00  0.00    +0.000 A 
ATOM      9  C   UNL     1       5.441   7.243  17.580  0.00  0.00    +0.000 C 
ATOM     10  C   UNL     1       3.747   5.333  18.115  0.00  0.00    +0.000 A 
ENDROOT
BRANCH   7  11
ATOM     11  C   UNL     1       6.404   5.123  15.373  0.00  0.00    +0.000 C 
ATOM     12  O   UNL     1       7.462   5.685  15.677  0.00  0.00    +0.000 OA
ATOM     13  N   UNL     1       6.283   4.647  14.060  0.00  0.00    +0.000 N 
ATOM     14  C   UNL     1       5.154   4.122  13.301  0.00  0.00    +0.000 C 
ATOM     15  C   UNL     1       5.821   3.138  12.355  0.00  0.00    +0.000 C 
ATOM     16  C   UNL     1       7.082   3.886  11.942  0.00  0.00    +0.000 C 
ATOM     17  C   UNL     1       7.444   4.713  13.179  0.00  0.00    +0.000 C 
ENDBRANCH   7  11
BRANCH   1  18
ATOM     18  N   UNL     1       3.000   7.091  19.751  0.00  0.00    +0.000 N 
ATOM     19  H   UNL     1       3.750   7.117  20.429  0.00  0.00    +0.000 HD
BRANCH  18  20
ATOM     20  C   UNL     1       1.699   7.495  20.306  0.00  0.00    +0.000 C 
BRANCH  20  21
ATOM     21  C   UNL     1       1.234   8.857  19.800  0.00  0.00    +0.000 C 
BRANCH  21  27
ATOM     22  C   UNL     1      -0.138  10.822  20.696  0.00  0.00    +0.000 A 
ATOM     23  C   UNL     1      -0.873  11.417  21.728  0.00  0.00    +0.000 A 
ATOM     24  C   UNL     1      -0.933  10.820  22.987  0.00  0.00    +0.000 A 
ATOM     25  C   UNL     1      -0.285   9.610  23.214  0.00  0.00    +0.000 A 
ATOM     26  C   UNL     1       0.381   8.971  22.167  0.00  0.00    +0.000 A 
ATOM     27  C   UNL     1       0.441   9.557  20.892  0.00  0.00    +0.000 A 
BRANCH  22  29
ATOM     28  C   UNL     1      -1.124  11.657  18.718  0.00  0.00    +0.000 C 
ATOM     29  O   UNL     1       0.060  11.421  19.480  0.00  0.00    +0.000 OA
ENDBRANCH  22  29
ENDBRANCH  21  27
ENDBRANCH  20  21
ENDBRANCH  18  20
ENDBRANCH   1  18
TORSDOF 6
ENDMDL
MODEL 3
REMARK VINA RESULT:      -7.1      1.805      2.417
REMARK  Name = 
REMARK  8 active torsions:
REMARK  status: ('A' for Active; 'I' for Inactive)
REMARK    1  A    between atoms: C_1  and  O_2
REMARK    2  A    between atoms: O_2  and  C_3
REMARK    3  A    between atoms: C_8  and  C_9
REMARK    4  A    between atoms: C_9  and  C_10
REMARK    5  A    between atoms: C_10  and  N_11
REMARK    6  A    between atoms: N_11  and  C_12
REMARK    7  A    between atoms: C_18  and  C_19
REMARK    8  A    between atoms: C_26  and  C_27
REMARK                            x       y       z     vdW  Elec       q    Type
REMARK                         _______ _______ _______ _____ _____    ______ ____
ROOT
ATOM      1  C   UNL     1       1.321   8.724  20.219  0.00  0.00    +0.000 A 
ATOM      2  N   UNL     1       1.802   8.579  18.958  0.00  0.00    +0.000 NA
ATOM      3  C   UNL     1       1.785   9.605  18.106  0.00  0.00    +0.000 A 
ATOM      4  N   UNL     1       1.336  10.827  18.351  0.00  0.00    +0.000 NA
ATOM      5  C   UNL     1       0.833  10.946  19.586  0.00  0.00    +0.000 A 
ATOM      6  S   UNL     1       0.296  12.451  20.102  0.00  0.00    +0.000 S 
ATOM      7  C   UNL     1      -0.374  11.840  21.548  0.00  0.00    +0.000 A 
ATOM      8  C   UNL     1       0.090  10.528  21.763  0.00  0.00    +0.000 A 
ATOM      9  C   UNL     1      -0.060   9.752  23.041  0.00  0.00    +0.000 C 
ATOM     10  C   UNL     1       0.745   9.973  20.570  0.00  0.00    +0.000 A 
ENDROOT
BRANCH   7  11
ATOM     11  C   UNL     1      -1.123  12.723  22.459  0.00  0.00    +0.000 C 
ATOM     12  O   UNL     1      -0.590  13.149  23.491  0.00  0.00    +0.000 OA
ATOM     13  N   UNL     1      -2.438  13.131  22.201  0.00  0.00    +0.000 N 
ATOM     14  C   UNL     1      -3.430  12.701  21.222  0.00  0.00    +0.000 C 
ATOM     15  C   UNL     1      -4.227  13.971  20.979  0.00  0.00    +0.000 C 
ATOM     16  C   UNL     1      -4.348  14.554  22.380  0.00  0.00    +0.000 C 
ATOM     17  C   UNL     1      -3.049  14.129  23.072  0.00  0.00    +0.000 C 
ENDBRANCH   7  11
BRANCH   1  18
ATOM     18  N   UNL     1       1.460   7.617  21.085  0.00  0.00    +0.000 N 
ATOM     19  H   UNL     1       1.995   7.850  21.911  0.00  0.00    +0.000 HD
BRANCH  18  20
ATOM     20  C   UNL     1       2.000   6.465  20.348  0.00  0.00    +0.000 C 
BRANCH  20  21
ATOM     21  C   UNL     1       1.062   5.262  20.354  0.00  0.00    +0.000 C 
BRANCH  21  27
ATOM     22  C   UNL     1       1.646   2.862  19.688  0.00  0.00    +0.000 A 
ATOM     23  C   UNL     1       2.099   1.945  18.733  0.00  0.00    +0.000 A 
ATOM     24  C   UNL     1       2.585   2.389  17.503  0.00  0.00    +0.000 A 
ATOM     25  C   UNL     1       2.591   3.748  17.209  0.00  0.00    +0.000 A 
ATOM     26  C   UNL     1       2.065   4.661  18.124  0.00  0.00    +0.000 A 
ATOM     27  C   UNL     1       1.563   4.226  19.362  0.00  0.00    +0.000 A 
BRANCH  22  29
ATOM     28  C   UNL     1       2.332   2.467  21.914  0.00  0.00    +0.000 C 
ATOM     29  O   UNL     1       1.275   2.497  20.956  0.00  0.00    +0.000 OA
ENDBRANCH  22  29
ENDBRANCH  21  27
ENDBRANCH  20  21
ENDBRANCH  18  20
ENDBRANCH   1  18
TORSDOF 6
ENDMDL
MODEL 4
REMARK VINA RESULT:      -7.1      1.451      1.855
REMARK  Name = 
REMARK  8 active torsions:
REMARK  status: ('A' for Active; 'I' for Inactive)
REMARK    1  A    between atoms: C_1  and  O_2
REMARK    2  A    between atoms: O_2  and  C_3
REMARK    3  A    between atoms: C_8  and  C_9
REMARK    4  A    between atoms: C_9  and  C_10
REMARK    5  A    between atoms: C_10  and  N_11
REMARK    6  A    between atoms: N_11  and  C_12
REMARK    7  A    between atoms: C_18  and  C_19
REMARK    8  A    between atoms: C_26  and  C_27
REMARK                            x       y       z     vdW  Elec       q    Type
REMARK                         _______ _______ _______ _____ _____    ______ ____
ROOT
ATOM      1  C   UNL     1       1.339   8.700  20.116  0.00  0.00    +0.000 A 
ATOM      2  N   UNL     1       1.882   8.643  18.872  0.00  0.00    +0.000 NA
ATOM      3  C   UNL     1       1.830   9.702  18.063  0.00  0.00    +0.000 A 
ATOM      4  N   UNL     1       1.287  10.878  18.338  0.00  0.00    +0.000 NA
ATOM      5  C   UNL     1       0.725  10.910  19.552  0.00  0.00    +0.000 A 
ATOM      6  S   UNL     1       0.063  12.351  20.104  0.00  0.00    +0.000 S 
ATOM      7  C   UNL     1      -0.623  11.633  21.493  0.00  0.00    +0.000 A 
ATOM      8  C   UNL     1      -0.079  10.348  21.675  0.00  0.00    +0.000 A 
ATOM      9  C   UNL     1      -0.228   9.508  22.912  0.00  0.00    +0.000 C 
ATOM     10  C   UNL     1       0.663   9.891  20.491  0.00  0.00    +0.000 A 
ENDROOT
BRANCH   7  11
ATOM     11  C   UNL     1      -1.470  12.423  22.404  0.00  0.00    +0.000 C 
ATOM     12  O   UNL     1      -1.061  12.719  23.533  0.00  0.00    +0.000 OA
ATOM     13  N   UNL     1      -2.742  12.884  22.041  0.00  0.00    +0.000 N 
ATOM     14  C   UNL     1      -3.613  12.587  20.909  0.00  0.00    +0.000 C 
ATOM     15  C   UNL     1      -4.366  13.893  20.721  0.00  0.00    +0.000 C 
ATOM     16  C   UNL     1      -4.650  14.316  22.156  0.00  0.00    +0.000 C 
ATOM     17  C   UNL     1      -3.445  13.790  22.942  0.00  0.00    +0.000 C 
ENDBRANCH   7  11
BRANCH   1  18
ATOM     18  N   UNL     1       1.518   7.569  20.942  0.00  0.00    +0.000 N 
ATOM     19  H   UNL     1       2.045   7.791  21.775  0.00  0.00    +0.000 HD
BRANCH  18  20
ATOM     20  C   UNL     1       2.098   6.463  20.164  0.00  0.00    +0.000 C 
BRANCH  20  21
ATOM     21  C   UNL     1       2.239   5.177  20.972  0.00  0.00    +0.000 C 
BRANCH  21  27
ATOM     22  C   UNL     1       3.360   3.501  19.397  0.00  0.00    +0.000 A 
ATOM     23  C   UNL     1       3.276   2.388  18.552  0.00  0.00    +0.000 A 
ATOM     24  C   UNL     1       2.037   1.832  18.238  0.00  0.00    +0.000 A 
ATOM     25  C   UNL     1       0.877   2.364  18.791  0.00  0.00    +0.000 A 
ATOM     26  C   UNL     1       0.959   3.421  19.698  0.00  0.00    +0.000 A 
ATOM     27  C   UNL     1       2.203   3.984  20.031  0.00  0.00    +0.000 A 
BRANCH  22  29
ATOM     28  C   UNL     1       5.205   4.661  18.485  0.00  0.00    +0.000 C 
ATOM     29  O   UNL     1       4.533   4.165  19.642  0.00  0.00    +0.000 OA
ENDBRANCH  22  29
ENDBRANCH  21  27
ENDBRANCH  20  21
ENDBRANCH  18  20
ENDBRANCH   1  18
TORSDOF 6
ENDMDL
MODEL 5
REMARK VINA RESULT:      -7.0      1.861      2.305
REMARK  Name = 
REMARK  8 active torsions:
REMARK  status: ('A' for Active; 'I' for Inactive)
REMARK    1  A    between atoms: C_1  and  O_2
REMARK    2  A    between atoms: O_2  and  C_3
REMARK    3  A    between atoms: C_8  and  C_9
REMARK    4  A    between atoms: C_9  and  C_10
REMARK    5  A    between atoms: C_10  and  N_11
REMARK    6  A    between atoms: N_11  and  C_12
REMARK    7  A    between atoms: C_18  and  C_19
REMARK    8  A    between atoms: C_26  and  C_27
REMARK                            x       y       z     vdW  Elec       q    Type
REMARK                         _______ _______ _______ _____ _____    ______ ____
ROOT
ATOM      1  C   UNL     1       0.945   9.241  20.496  0.00  0.00    +0.000 A 
ATOM      2  N   UNL     1       1.270   9.223  19.177  0.00  0.00    +0.000 NA
ATOM      3  C   UNL     1       0.802  10.160  18.352  0.00  0.00    +0.000 A 
ATOM      4  N   UNL     1       0.013  11.173  18.676  0.00  0.00    +0.000 NA
ATOM      5  C   UNL     1      -0.329  11.160  19.970  0.00  0.00    +0.000 A 
ATOM      6  S   UNL     1      -1.256  12.420  20.578  0.00  0.00    +0.000 S 
ATOM      7  C   UNL     1      -1.485  11.669  22.094  0.00  0.00    +0.000 A 
ATOM      8  C   UNL     1      -0.591  10.589  22.222  0.00  0.00    +0.000 A 
ATOM      9  C   UNL     1      -0.301   9.847  23.497  0.00  0.00    +0.000 C 
ATOM     10  C   UNL     1       0.043  10.243  20.941  0.00  0.00    +0.000 A 
ENDROOT
BRANCH   7  11
ATOM     11  C   UNL     1      -2.352  12.285  23.113  0.00  0.00    +0.000 C 
ATOM     12  O   UNL     1      -3.291  11.645  23.601  0.00  0.00    +0.000 OA
ATOM     13  N   UNL     1      -2.150  13.589  23.585  0.00  0.00    +0.000 N 
ATOM     14  C   UNL     1      -1.298  14.682  23.130  0.00  0.00    +0.000 C 
ATOM     15  C   UNL     1      -0.984  15.415  24.423  0.00  0.00    +0.000 C 
ATOM     16  C   UNL     1      -2.322  15.387  25.148  0.00  0.00    +0.000 C 
ATOM     17  C   UNL     1      -2.956  14.064  24.704  0.00  0.00    +0.000 C 
ENDBRANCH   7  11
BRANCH   1  18
ATOM     18  N   UNL     1       1.556   8.269  21.317  0.00  0.00    +0.000 N 
ATOM     19  H   UNL     1       2.543   8.450  21.444  0.00  0.00    +0.000 HD
BRANCH  18  20
ATOM     20  C   UNL     1       1.273   6.922  20.800  0.00  0.00    +0.000 C 
BRANCH  20  21
ATOM     21  C   UNL     1       2.445   6.324  20.027  0.00  0.00    +0.000 C 
BRANCH  21  27
ATOM     22  C   UNL     1       2.572   4.380  18.367  0.00  0.00    +0.000 A 
ATOM     23  C   UNL     1       2.221   3.076  17.997  0.00  0.00    +0.000 A 
ATOM     24  C   UNL     1       1.294   2.355  18.749  0.00  0.00    +0.000 A 
ATOM     25  C   UNL     1       0.737   2.919  19.892  0.00  0.00    +0.000 A 
ATOM     26  C   UNL     1       1.143   4.187  20.311  0.00  0.00    +0.000 A 
ATOM     27  C   UNL     1       2.083   4.920  19.569  0.00  0.00    +0.000 A 
BRANCH  22  29
ATOM     28  C   UNL     1       4.382   4.497  16.853  0.00  0.00    +0.000 C 
ATOM     29  O   UNL     1       3.378   5.182  17.602  0.00  0.00    +0.000 OA
ENDBRANCH  22  29
ENDBRANCH  21  27
ENDBRANCH  20  21
ENDBRANCH  18  20
ENDBRANCH   1  18
TORSDOF 6
ENDMDL
MODEL 6
REMARK VINA RESULT:      -7.0      1.969      9.137
REMARK  Name = 
REMARK  8 active torsions:
REMARK  status: ('A' for Active; 'I' for Inactive)
REMARK    1  A    between atoms: C_1  and  O_2
REMARK    2  A    between atoms: O_2  and  C_3
REMARK    3  A    between atoms: C_8  and  C_9
REMARK    4  A    between atoms: C_9  and  C_10
REMARK    5  A    between atoms: C_10  and  N_11
REMARK    6  A    between atoms: N_11  and  C_12
REMARK    7  A    between atoms: C_18  and  C_19
REMARK    8  A    between atoms: C_26  and  C_27
REMARK                            x       y       z     vdW  Elec       q    Type
REMARK                         _______ _______ _______ _____ _____    ______ ____
ROOT
ATOM      1  C   UNL     1       0.826   9.516  20.112  0.00  0.00    +0.000 A 
ATOM      2  N   UNL     1       0.741  10.732  19.514  0.00  0.00    +0.000 NA
ATOM      3  C   UNL     1       1.394  10.974  18.376  0.00  0.00    +0.000 A 
ATOM      4  N   UNL     1       2.158  10.122  17.710  0.00  0.00    +0.000 NA
ATOM      5  C   UNL     1       2.263   8.939  18.327  0.00  0.00    +0.000 A 
ATOM      6  S   UNL     1       3.124   7.706  17.581  0.00  0.00    +0.000 S 
ATOM      7  C   UNL     1       3.042   6.676  18.940  0.00  0.00    +0.000 A 
ATOM      8  C   UNL     1       2.090   7.172  19.849  0.00  0.00    +0.000 A 
ATOM      9  C   UNL     1       1.542   6.422  21.031  0.00  0.00    +0.000 C 
ATOM     10  C   UNL     1       1.680   8.546  19.523  0.00  0.00    +0.000 A 
ENDROOT
BRANCH   7  11
ATOM     11  C   UNL     1       3.741   5.378  18.940  0.00  0.00    +0.000 C 
ATOM     12  O   UNL     1       4.912   5.302  19.330  0.00  0.00    +0.000 OA
ATOM     13  N   UNL     1       3.124   4.190  18.526  0.00  0.00    +0.000 N 
ATOM     14  C   UNL     1       1.864   3.919  17.845  0.00  0.00    +0.000 C 
ATOM     15  C   UNL     1       1.478   2.557  18.395  0.00  0.00    +0.000 C 
ATOM     16  C   UNL     1       2.812   1.825  18.421  0.00  0.00    +0.000 C 
ATOM     17  C   UNL     1       3.835   2.929  18.707  0.00  0.00    +0.000 C 
ENDBRANCH   7  11
BRANCH   1  18
ATOM     18  N   UNL     1       0.032   9.313  21.261  0.00  0.00    +0.000 N 
ATOM     19  H   UNL     1      -0.919   9.066  21.024  0.00  0.00    +0.000 HD
BRANCH  18  20
ATOM     20  C   UNL     1       0.125  10.482  22.150  0.00  0.00    +0.000 C 
BRANCH  20  21
ATOM     21  C   UNL     1      -1.167  10.751  22.915  0.00  0.00    +0.000 C 
BRANCH  21  27
ATOM     22  C   UNL     1      -2.648  12.779  23.409  0.00  0.00    +0.000 A 
ATOM     23  C   UNL     1      -2.837  14.166  23.433  0.00  0.00    +0.000 A 
ATOM     24  C   UNL     1      -1.877  15.018  22.888  0.00  0.00    +0.000 A 
ATOM     25  C   UNL     1      -0.709  14.492  22.345  0.00  0.00    +0.000 A 
ATOM     26  C   UNL     1      -0.478  13.116  22.392  0.00  0.00    +0.000 A 
ATOM     27  C   UNL     1      -1.432  12.248  22.946  0.00  0.00    +0.000 A 
BRANCH  22  29
ATOM     28  C   UNL     1      -4.504  12.372  24.814  0.00  0.00    +0.000 C 
ATOM     29  O   UNL     1      -3.608  11.888  23.814  0.00  0.00    +0.000 OA
ENDBRANCH  22  29
ENDBRANCH  21  27
ENDBRANCH  20  21
ENDBRANCH  18  20
ENDBRANCH   1  18
TORSDOF 6
ENDMDL
MODEL 7
REMARK VINA RESULT:      -7.0      2.882      3.827
REMARK  Name = 
REMARK  8 active torsions:
REMARK  status: ('A' for Active; 'I' for Inactive)
REMARK    1  A    between atoms: C_1  and  O_2
REMARK    2  A    between atoms: O_2  and  C_3
REMARK    3  A    between atoms: C_8  and  C_9
REMARK    4  A    between atoms: C_9  and  C_10
REMARK    5  A    between atoms: C_10  and  N_11
REMARK    6  A    between atoms: N_11  and  C_12
REMARK    7  A    between atoms: C_18  and  C_19
REMARK    8  A    between atoms: C_26  and  C_27
REMARK                            x       y       z     vdW  Elec       q    Type
REMARK                         _______ _______ _______ _____ _____    ______ ____
ROOT
ATOM      1  C   UNL     1       0.874   9.360  20.997  0.00  0.00    +0.000 A 
ATOM      2  N   UNL     1       0.486   8.788  22.166  0.00  0.00    +0.000 NA
ATOM      3  C   UNL     1      -0.134   9.510  23.100  0.00  0.00    +0.000 A 
ATOM      4  N   UNL     1      -0.443  10.796  23.026  0.00  0.00    +0.000 NA
ATOM      5  C   UNL     1      -0.023  11.357  21.885  0.00  0.00    +0.000 A 
ATOM      6  S   UNL     1      -0.405  12.963  21.581  0.00  0.00    +0.000 S 
ATOM      7  C   UNL     1       0.579  13.049  20.188  0.00  0.00    +0.000 A 
ATOM      8  C   UNL     1       0.955  11.750  19.798  0.00  0.00    +0.000 A 
ATOM      9  C   UNL     1       1.594  11.387  18.487  0.00  0.00    +0.000 C 
ATOM     10  C   UNL     1       0.660  10.754  20.839  0.00  0.00    +0.000 A 
ENDROOT
BRANCH   7  11
ATOM     11  C   UNL     1       0.748  14.323  19.467  0.00  0.00    +0.000 C 
ATOM     12  O   UNL     1      -0.231  14.893  18.973  0.00  0.00    +0.000 OA
ATOM     13  N   UNL     1       1.994  14.947  19.323  0.00  0.00    +0.000 N 
ATOM     14  C   UNL     1       3.357  14.503  19.592  0.00  0.00    +0.000 C 
ATOM     15  C   UNL     1       4.058  15.798  19.966  0.00  0.00    +0.000 C 
ATOM     16  C   UNL     1       3.476  16.786  18.965  0.00  0.00    +0.000 C 
ATOM     17  C   UNL     1       2.048  16.280  18.733  0.00  0.00    +0.000 C 
ENDBRANCH   7  11
BRANCH   1  18
ATOM     18  N   UNL     1       1.439   8.505  20.025  0.00  0.00    +0.000 N 
ATOM     19  H   UNL     1       0.873   8.459  19.189  0.00  0.00    +0.000 HD
BRANCH  18  20
ATOM     20  C   UNL     1       1.715   7.186  20.614  0.00  0.00    +0.000 C 
BRANCH  20  21
ATOM     21  C   UNL     1       2.729   6.377  19.810  0.00  0.00    +0.000 C 
BRANCH  21  27
ATOM     22  C   UNL     1       2.406   4.328  18.312  0.00  0.00    +0.000 A 
ATOM     23  C   UNL     1       1.870   3.052  18.102  0.00  0.00    +0.000 A 
ATOM     24  C   UNL     1       0.994   2.492  19.032  0.00  0.00    +0.000 A 
ATOM     25  C   UNL     1       0.673   3.190  20.191  0.00  0.00    +0.000 A 
ATOM     26  C   UNL     1       1.266   4.427  20.446  0.00  0.00    +0.000 A 
ATOM     27  C   UNL     1       2.158   4.997  19.522  0.00  0.00    +0.000 A 
BRANCH  22  29
ATOM     28  C   UNL     1       4.442   4.388  17.115  0.00  0.00    +0.000 C 
ATOM     29  O   UNL     1       3.170   4.979  17.380  0.00  0.00    +0.000 OA
ENDBRANCH  22  29
ENDBRANCH  21  27
ENDBRANCH  20  21
ENDBRANCH  18  20
ENDBRANCH   1  18
TORSDOF 6
ENDMDL
MODEL 8
REMARK VINA RESULT:      -7.0      1.587      2.457
REMARK  Name = 
REMARK  8 active torsions:
REMARK  status: ('A' for Active; 'I' for Inactive)
REMARK    1  A    between atoms: C_1  and  O_2
REMARK    2  A    between atoms: O_2  and  C_3
REMARK    3  A    between atoms: C_8  and  C_9
REMARK    4  A    between atoms: C_9  and  C_10
REMARK    5  A    between atoms: C_10  and  N_11
REMARK    6  A    between atoms: N_11  and  C_12
REMARK    7  A    between atoms: C_18  and  C_19
REMARK    8  A    between atoms: C_26  and  C_27
REMARK                            x       y       z     vdW  Elec       q    Type
REMARK                         _______ _______ _______ _____ _____    ______ ____
ROOT
ATOM      1  C   UNL     1       1.479   8.436  20.214  0.00  0.00    +0.000 A 
ATOM      2  N   UNL     1       1.966   8.290  18.955  0.00  0.00    +0.000 NA
ATOM      3  C   UNL     1       1.840   9.272  18.062  0.00  0.00    +0.000 A 
ATOM      4  N   UNL     1       1.269  10.450  18.262  0.00  0.00    +0.000 NA
ATOM      5  C   UNL     1       0.762  10.569  19.495  0.00  0.00    +0.000 A 
ATOM      6  S   UNL     1       0.076  12.031  19.954  0.00  0.00    +0.000 S 
ATOM      7  C   UNL     1      -0.521  11.415  21.430  0.00  0.00    +0.000 A 
ATOM      8  C   UNL     1       0.076  10.168  21.694  0.00  0.00    +0.000 A 
ATOM      9  C   UNL     1       0.014   9.434  23.004  0.00  0.00    +0.000 C 
ATOM     10  C   UNL     1       0.780   9.634  20.519  0.00  0.00    +0.000 A 
ENDROOT
BRANCH   7  11
ATOM     11  C   UNL     1      -1.352  12.254  22.311  0.00  0.00    +0.000 C 
ATOM     12  O   UNL     1      -0.937  12.585  23.428  0.00  0.00    +0.000 OA
ATOM     13  N   UNL     1      -2.616  12.724  21.931  0.00  0.00    +0.000 N 
ATOM     14  C   UNL     1      -3.493  12.400  20.811  0.00  0.00    +0.000 C 
ATOM     15  C   UNL     1      -4.223  13.711  20.574  0.00  0.00    +0.000 C 
ATOM     16  C   UNL     1      -4.499  14.193  21.991  0.00  0.00    +0.000 C 
ATOM     17  C   UNL     1      -3.303  13.675  22.797  0.00  0.00    +0.000 C 
ENDBRANCH   7  11
BRANCH   1  18
ATOM     18  N   UNL     1       1.735   7.387  21.124  0.00  0.00    +0.000 N 
ATOM     19  H   UNL     1       2.665   7.446  21.515  0.00  0.00    +0.000 HD
BRANCH  18  20
ATOM     20  C   UNL     1       1.452   6.090  20.490  0.00  0.00    +0.000 C 
BRANCH  20  21
ATOM     21  C   UNL     1       2.572   5.074  20.688  0.00  0.00    +0.000 C 
BRANCH  21  27
ATOM     22  C   UNL     1       2.918   3.485  18.713  0.00  0.00    +0.000 A 
ATOM     23  C   UNL     1       3.484   3.210  17.462  0.00  0.00    +0.000 A 
ATOM     24  C   UNL     1       4.395   4.097  16.889  0.00  0.00    +0.000 A 
ATOM     25  C   UNL     1       4.722   5.278  17.548  0.00  0.00    +0.000 A 
ATOM     26  C   UNL     1       4.100   5.597  18.756  0.00  0.00    +0.000 A 
ATOM     27  C   UNL     1       3.174   4.717  19.338  0.00  0.00    +0.000 A 
BRANCH  22  29
ATOM     28  C   UNL     1       0.827   2.388  18.804  0.00  0.00    +0.000 C 
ATOM     29  O   UNL     1       2.117   2.597  19.381  0.00  0.00    +0.000 OA
ENDBRANCH  22  29
ENDBRANCH  21  27
ENDBRANCH  20  21
ENDBRANCH  18  20
ENDBRANCH   1  18
TORSDOF 6
ENDMDL
MODEL 9
REMARK VINA RESULT:      -7.0      1.402      2.089
REMARK  Name = 
REMARK  8 active torsions:
REMARK  status: ('A' for Active; 'I' for Inactive)
REMARK    1  A    between atoms: C_1  and  O_2
REMARK    2  A    between atoms: O_2  and  C_3
REMARK    3  A    between atoms: C_8  and  C_9
REMARK    4  A    between atoms: C_9  and  C_10
REMARK    5  A    between atoms: C_10  and  N_11
REMARK    6  A    between atoms: N_11  and  C_12
REMARK    7  A    between atoms: C_18  and  C_19
REMARK    8  A    between atoms: C_26  and  C_27
REMARK                            x       y       z     vdW  Elec       q    Type
REMARK                         _______ _______ _______ _____ _____    ______ ____
ROOT
ATOM      1  C   UNL     1       1.955   7.845  19.824  0.00  0.00    +0.000 A 
ATOM      2  N   UNL     1       2.821   7.512  18.832  0.00  0.00    +0.000 NA
ATOM      3  C   UNL     1       2.901   8.255  17.728  0.00  0.00    +0.000 A 
ATOM      4  N   UNL     1       2.204   9.350  17.461  0.00  0.00    +0.000 NA
ATOM      5  C   UNL     1       1.330   9.647  18.431  0.00  0.00    +0.000 A 
ATOM      6  S   UNL     1       0.421  11.052  18.302  0.00  0.00    +0.000 S 
ATOM      7  C   UNL     1      -0.555  10.676  19.652  0.00  0.00    +0.000 A 
ATOM      8  C   UNL     1       0.028   9.617  20.372  0.00  0.00    +0.000 A 
ATOM      9  C   UNL     1      -0.381   9.173  21.748  0.00  0.00    +0.000 C 
ATOM     10  C   UNL     1       1.103   8.960  19.614  0.00  0.00    +0.000 A 
ENDROOT
BRANCH   7  11
ATOM     11  C   UNL     1      -1.684  11.547  20.026  0.00  0.00    +0.000 C 
ATOM     12  O   UNL     1      -1.574  12.337  20.971  0.00  0.00    +0.000 OA
ATOM     13  N   UNL     1      -2.903  11.537  19.336  0.00  0.00    +0.000 N 
ATOM     14  C   UNL     1      -3.459  10.642  18.327  0.00  0.00    +0.000 C 
ATOM     15  C   UNL     1      -4.339  11.572  17.510  0.00  0.00    +0.000 C 
ATOM     16  C   UNL     1      -4.982  12.440  18.583  0.00  0.00    +0.000 C 
ATOM     17  C   UNL     1      -3.909  12.539  19.672  0.00  0.00    +0.000 C 
ENDBRANCH   7  11
BRANCH   1  18
ATOM     18  N   UNL     1       1.998   7.060  20.997  0.00  0.00    +0.000 N 
ATOM     19  H   UNL     1       2.937   6.979  21.362  0.00  0.00    +0.000 HD
BRANCH  18  20
ATOM     20  C   UNL     1       1.352   5.760  20.758  0.00  0.00    +0.000 C 
BRANCH  20  21
ATOM     21  C   UNL     1       2.220   4.579  21.181  0.00  0.00    +0.000 C 
BRANCH  21  27
ATOM     22  C   UNL     1       3.615   3.727  19.212  0.00  0.00    +0.000 A 
ATOM     23  C   UNL     1       3.780   2.852  18.131  0.00  0.00    +0.000 A 
ATOM     24  C   UNL     1       2.741   2.006  17.744  0.00  0.00    +0.000 A 
ATOM     25  C   UNL     1       1.544   2.005  18.452  0.00  0.00    +0.000 A 
ATOM     26  C   UNL     1       1.402   2.815  19.580  0.00  0.00    +0.000 A 
ATOM     27  C   UNL     1       2.444   3.665  19.987  0.00  0.00    +0.000 A 
BRANCH  22  29
ATOM     28  C   UNL     1       5.682   4.749  18.696  0.00  0.00    +0.000 C 
ATOM     29  O   UNL     1       4.549   4.666  19.561  0.00  0.00    +0.000 OA
ENDBRANCH  22  29
ENDBRANCH  21  27
ENDBRANCH  20  21
ENDBRANCH  18  20
ENDBRANCH   1  18
TORSDOF 6
ENDMDL
