MODEL 1
REMARK VINA RESULT:      -9.4      0.000      0.000
REMARK  Name = 
REMARK  9 active torsions:
REMARK  status: ('A' for Active; 'I' for Inactive)
REMARK    1  A    between atoms: C_1  and  C_2
REMARK    2  A    between atoms: C_2  and  N_3
REMARK    3  A    between atoms: C_4  and  C_6
REMARK    4  A    between atoms: C_8  and  N_9
REMARK    5  A    between atoms: N_17  and  C_18
REMARK    6  A    between atoms: C_18  and  C_19
REMARK    7  A    between atoms: C_18  and  C_20
REMARK    8  A    between atoms: C_30  and  O_31
REMARK    9  A    between atoms: C_32  and  O_33
REMARK                            x       y       z     vdW  Elec       q    Type
REMARK                         _______ _______ _______ _____ _____    ______ ____
ROOT
ATOM      1  N   UNL     1       0.618  10.270  20.509  0.00  0.00    +0.000 N 
ATOM      2  C   UNL     1       0.465   9.741  21.771  0.00  0.00    +0.000 A 
ATOM      3  N   UNL     1       0.933   8.511  21.848  0.00  0.00    +0.000 NA
ATOM      4  C   UNL     1       1.399   8.225  20.581  0.00  0.00    +0.000 A 
ATOM      5  C   UNL     1       1.994   7.098  20.003  0.00  0.00    +0.000 A 
ATOM      6  N   UNL     1       2.248   5.940  20.750  0.00  0.00    +0.000 N 
ATOM      7  C   UNL     1       2.808   4.772  20.307  0.00  0.00    +0.000 C 
ATOM      8  O   UNL     1       2.960   3.822  21.072  0.00  0.00    +0.000 OA
ATOM      9  N   UNL     1       3.157   4.743  18.994  0.00  0.00    +0.000 N 
ATOM     10  N   UNL     1       2.320   7.143  18.680  0.00  0.00    +0.000 NA
ATOM     11  C   UNL     1       2.070   8.262  17.982  0.00  0.00    +0.000 A 
ATOM     12  N   UNL     1       1.535   9.397  18.435  0.00  0.00    +0.000 NA
ATOM     13  C   UNL     1       1.209   9.312  19.737  0.00  0.00    +0.000 A 
ATOM     14  H   UNL     1       1.986   5.954  21.728  0.00  0.00    +0.000 HD
ATOM     15  H   UNL     1       3.030   5.617  18.497  0.00  0.00    +0.000 HD
ENDROOT
BRANCH   1  18
ATOM     16  C   UNL     1      -1.741  12.281  18.971  0.00  0.00    +0.000 C 
ATOM     17  O   UNL     1      -1.236  11.759  20.207  0.00  0.00    +0.000 OA
ATOM     18  C   UNL     1       0.199  11.605  20.110  0.00  0.00    +0.000 C 
ATOM     19  C   UNL     1       0.592  11.959  18.676  0.00  0.00    +0.000 C 
ATOM     20  C   UNL     1      -0.539  12.881  18.248  0.00  0.00    +0.000 C 
BRANCH  16  22
ATOM     21  N   UNL     1      -3.111  11.815  16.978  0.00  0.00    +0.000 N 
ATOM     22  C   UNL     1      -2.485  11.267  18.076  0.00  0.00    +0.000 C 
ATOM     23  O   UNL     1      -2.448  10.058  18.287  0.00  0.00    +0.000 OA
ATOM     24  H   UNL     1      -3.322  12.813  17.025  0.00  0.00    +0.000 HD
BRANCH  21  26
ATOM     25  C   UNL     1      -2.891  10.434  14.940  0.00  0.00    +0.000 C 
ATOM     26  C   UNL     1      -3.812  10.987  16.014  0.00  0.00    +0.000 C 
ENDBRANCH  21  26
ENDBRANCH  16  22
BRANCH  19  27
ATOM     27  O   UNL     1       1.857  12.619  18.627  0.00  0.00    +0.000 OA
ATOM     28  H   UNL     1       2.419  12.181  19.304  0.00  0.00    +0.000 HD
ENDBRANCH  19  27
BRANCH  20  29
ATOM     29  O   UNL     1      -0.230  14.211  18.715  0.00  0.00    +0.000 OA
ATOM     30  H   UNL     1      -0.460  14.281  19.660  0.00  0.00    +0.000 HD
ENDBRANCH  20  29
ENDBRANCH   1  18
BRANCH   9  31
ATOM     31  C   UNL     1       3.761   3.646  18.275  0.00  0.00    +0.000 C 
ATOM     32  C   UNL     1       2.704   2.945  17.419  0.00  0.00    +0.000 C 
BRANCH  31  33
ATOM     33  C   UNL     1       4.909   4.151  17.413  0.00  0.00    +0.000 A 
ATOM     34  C   UNL     1       6.086   4.599  18.028  0.00  0.00    +0.000 A 
ATOM     35  C   UNL     1       7.167   5.042  17.263  0.00  0.00    +0.000 A 
ATOM     36  C   UNL     1       7.083   5.052  15.872  0.00  0.00    +0.000 A 
ATOM     37  C   UNL     1       5.916   4.623  15.244  0.00  0.00    +0.000 A 
ATOM     38  C   UNL     1       4.835   4.177  16.008  0.00  0.00    +0.000 A 
ENDBRANCH  31  33
ENDBRANCH   9  31
TORSDOF 7
ENDMDL
MODEL 2
REMARK VINA RESULT:      -9.2      1.911      2.672
REMARK  Name = 
REMARK  9 active torsions:
REMARK  status: ('A' for Active; 'I' for Inactive)
REMARK    1  A    between atoms: C_1  and  C_2
REMARK    2  A    between atoms: C_2  and  N_3
REMARK    3  A    between atoms: C_4  and  C_6
REMARK    4  A    between atoms: C_8  and  N_9
REMARK    5  A    between atoms: N_17  and  C_18
REMARK    6  A    between atoms: C_18  and  C_19
REMARK    7  A    between atoms: C_18  and  C_20
REMARK    8  A    between atoms: C_30  and  O_31
REMARK    9  A    between atoms: C_32  and  O_33
REMARK                            x       y       z     vdW  Elec       q    Type
REMARK                         _______ _______ _______ _____ _____    ______ ____
ROOT
ATOM      1  N   UNL     1       0.748  10.352  20.454  0.00  0.00    +0.000 N 
ATOM      2  C   UNL     1       0.581   9.832  21.718  0.00  0.00    +0.000 A 
ATOM      3  N   UNL     1       1.013   8.590  21.799  0.00  0.00    +0.000 NA
ATOM      4  C   UNL     1       1.468   8.285  20.532  0.00  0.00    +0.000 A 
ATOM      5  C   UNL     1       2.029   7.139  19.958  0.00  0.00    +0.000 A 
ATOM      6  N   UNL     1       2.249   5.977  20.709  0.00  0.00    +0.000 N 
ATOM      7  C   UNL     1       2.775   4.791  20.269  0.00  0.00    +0.000 C 
ATOM      8  O   UNL     1       2.899   3.840  21.037  0.00  0.00    +0.000 OA
ATOM      9  N   UNL     1       3.121   4.748  18.956  0.00  0.00    +0.000 N 
ATOM     10  N   UNL     1       2.355   7.169  18.634  0.00  0.00    +0.000 NA
ATOM     11  C   UNL     1       2.137   8.293  17.933  0.00  0.00    +0.000 A 
ATOM     12  N   UNL     1       1.636   9.445  18.382  0.00  0.00    +0.000 NA
ATOM     13  C   UNL     1       1.309   9.375  19.685  0.00  0.00    +0.000 A 
ATOM     14  H   UNL     1       1.989   6.002  21.687  0.00  0.00    +0.000 HD
ATOM     15  H   UNL     1       3.020   5.623  18.456  0.00  0.00    +0.000 HD
ENDROOT
BRANCH   1  18
ATOM     16  C   UNL     1      -1.076  13.220  21.107  0.00  0.00    +0.000 C 
ATOM     17  O   UNL     1       0.196  12.563  21.196  0.00  0.00    +0.000 OA
ATOM     18  C   UNL     1       0.368  11.697  20.050  0.00  0.00    +0.000 C 
ATOM     19  C   UNL     1      -0.936  11.745  19.253  0.00  0.00    +0.000 C 
ATOM     20  C   UNL     1      -1.509  13.096  19.650  0.00  0.00    +0.000 C 
BRANCH  16  22
ATOM     21  N   UNL     1      -3.381  13.331  21.967  0.00  0.00    +0.000 N 
ATOM     22  C   UNL     1      -2.165  12.691  22.064  0.00  0.00    +0.000 C 
ATOM     23  O   UNL     1      -1.980  11.720  22.793  0.00  0.00    +0.000 OA
ATOM     24  H   UNL     1      -3.371  14.266  21.559  0.00  0.00    +0.000 HD
BRANCH  21  26
ATOM     25  C   UNL     1      -5.067  14.040  23.630  0.00  0.00    +0.000 C 
ATOM     26  C   UNL     1      -4.520  12.917  22.766  0.00  0.00    +0.000 C 
ENDBRANCH  21  26
ENDBRANCH  16  22
BRANCH  19  27
ATOM     27  O   UNL     1      -0.693  11.667  17.848  0.00  0.00    +0.000 OA
ATOM     28  H   UNL     1      -0.951  12.539  17.478  0.00  0.00    +0.000 HD
ENDBRANCH  19  27
BRANCH  20  29
ATOM     29  O   UNL     1      -0.901  14.101  18.812  0.00  0.00    +0.000 OA
ATOM     30  H   UNL     1       0.067  13.989  18.828  0.00  0.00    +0.000 HD
ENDBRANCH  20  29
ENDBRANCH   1  18
BRANCH   9  31
ATOM     31  C   UNL     1       3.692   3.631  18.240  0.00  0.00    +0.000 C 
ATOM     32  C   UNL     1       2.625   2.987  17.353  0.00  0.00    +0.000 C 
BRANCH  31  33
ATOM     33  C   UNL     1       4.882   4.091  17.412  0.00  0.00    +0.000 A 
ATOM     34  C   UNL     1       6.065   4.474  18.060  0.00  0.00    +0.000 A 
ATOM     35  C   UNL     1       7.184   4.873  17.325  0.00  0.00    +0.000 A 
ATOM     36  C   UNL     1       7.133   4.904  15.933  0.00  0.00    +0.000 A 
ATOM     37  C   UNL     1       5.962   4.539  15.273  0.00  0.00    +0.000 A 
ATOM     38  C   UNL     1       4.843   4.136  16.006  0.00  0.00    +0.000 A 
ENDBRANCH  31  33
ENDBRANCH   9  31
TORSDOF 7
ENDMDL
MODEL 3
REMARK VINA RESULT:      -9.1      0.533      1.003
REMARK  Name = 
REMARK  9 active torsions:
REMARK  status: ('A' for Active; 'I' for Inactive)
REMARK    1  A    between atoms: C_1  and  C_2
REMARK    2  A    between atoms: C_2  and  N_3
REMARK    3  A    between atoms: C_4  and  C_6
REMARK    4  A    between atoms: C_8  and  N_9
REMARK    5  A    between atoms: N_17  and  C_18
REMARK    6  A    between atoms: C_18  and  C_19
REMARK    7  A    between atoms: C_18  and  C_20
REMARK    8  A    between atoms: C_30  and  O_31
REMARK    9  A    between atoms: C_32  and  O_33
REMARK                            x       y       z     vdW  Elec       q    Type
REMARK                         _______ _______ _______ _____ _____    ______ ____
ROOT
ATOM      1  N   UNL     1       0.720  10.386  20.502  0.00  0.00    +0.000 N 
ATOM      2  C   UNL     1       0.481   9.847  21.746  0.00  0.00    +0.000 A 
ATOM      3  N   UNL     1       0.889   8.596  21.826  0.00  0.00    +0.000 NA
ATOM      4  C   UNL     1       1.404   8.307  20.579  0.00  0.00    +0.000 A 
ATOM      5  C   UNL     1       1.975   7.161  20.013  0.00  0.00    +0.000 A 
ATOM      6  N   UNL     1       2.139   5.983  20.753  0.00  0.00    +0.000 N 
ATOM      7  C   UNL     1       2.668   4.796  20.319  0.00  0.00    +0.000 C 
ATOM      8  O   UNL     1       2.738   3.830  21.075  0.00  0.00    +0.000 OA
ATOM      9  N   UNL     1       3.079   4.770  19.024  0.00  0.00    +0.000 N 
ATOM     10  N   UNL     1       2.368   7.209  18.708  0.00  0.00    +0.000 NA
ATOM     11  C   UNL     1       2.203   8.348  18.017  0.00  0.00    +0.000 A 
ATOM     12  N   UNL     1       1.698   9.501  18.461  0.00  0.00    +0.000 NA
ATOM     13  C   UNL     1       1.305   9.413  19.744  0.00  0.00    +0.000 A 
ATOM     14  H   UNL     1       1.830   5.996  21.717  0.00  0.00    +0.000 HD
ATOM     15  H   UNL     1       3.017   5.655  18.536  0.00  0.00    +0.000 HD
ENDROOT
BRANCH   1  18
ATOM     16  C   UNL     1      -1.562  12.554  19.064  0.00  0.00    +0.000 C 
ATOM     17  O   UNL     1      -1.029  12.010  20.279  0.00  0.00    +0.000 OA
ATOM     18  C   UNL     1       0.382  11.744  20.104  0.00  0.00    +0.000 C 
ATOM     19  C   UNL     1       0.717  12.048  18.644  0.00  0.00    +0.000 C 
ATOM     20  C   UNL     1      -0.362  13.050  18.265  0.00  0.00    +0.000 C 
BRANCH  16  22
ATOM     21  N   UNL     1      -1.763  10.929  17.224  0.00  0.00    +0.000 N 
ATOM     22  C   UNL     1      -2.433  11.589  18.231  0.00  0.00    +0.000 C 
ATOM     23  O   UNL     1      -3.610  11.369  18.503  0.00  0.00    +0.000 OA
ATOM     24  H   UNL     1      -0.896  11.356  16.899  0.00  0.00    +0.000 HD
BRANCH  21  26
ATOM     25  C   UNL     1      -2.952  10.551  15.090  0.00  0.00    +0.000 C 
ATOM     26  C   UNL     1      -2.431   9.951  16.384  0.00  0.00    +0.000 C 
ENDBRANCH  21  26
ENDBRANCH  16  22
BRANCH  19  27
ATOM     27  O   UNL     1       2.025  12.608  18.512  0.00  0.00    +0.000 OA
ATOM     28  H   UNL     1       2.112  13.268  19.233  0.00  0.00    +0.000 HD
ENDBRANCH  19  27
BRANCH  20  29
ATOM     29  O   UNL     1       0.074  14.357  18.690  0.00  0.00    +0.000 OA
ATOM     30  H   UNL     1      -0.608  15.014  18.460  0.00  0.00    +0.000 HD
ENDBRANCH  20  29
ENDBRANCH   1  18
BRANCH   9  31
ATOM     31  C   UNL     1       3.668   3.656  18.318  0.00  0.00    +0.000 C 
ATOM     32  C   UNL     1       2.624   3.016  17.401  0.00  0.00    +0.000 C 
BRANCH  31  33
ATOM     33  C   UNL     1       4.879   4.120  17.523  0.00  0.00    +0.000 A 
ATOM     34  C   UNL     1       4.813   4.149  16.122  0.00  0.00    +0.000 A 
ATOM     35  C   UNL     1       5.898   4.597  15.366  0.00  0.00    +0.000 A 
ATOM     36  C   UNL     1       7.068   5.013  15.998  0.00  0.00    +0.000 A 
ATOM     37  C   UNL     1       7.156   4.979  17.388  0.00  0.00    +0.000 A 
ATOM     38  C   UNL     1       6.071   4.534  18.146  0.00  0.00    +0.000 A 
ENDBRANCH  31  33
ENDBRANCH   9  31
TORSDOF 7
ENDMDL
MODEL 4
REMARK VINA RESULT:      -9.0      2.389      3.358
REMARK  Name = 
REMARK  9 active torsions:
REMARK  status: ('A' for Active; 'I' for Inactive)
REMARK    1  A    between atoms: C_1  and  C_2
REMARK    2  A    between atoms: C_2  and  N_3
REMARK    3  A    between atoms: C_4  and  C_6
REMARK    4  A    between atoms: C_8  and  N_9
REMARK    5  A    between atoms: N_17  and  C_18
REMARK    6  A    between atoms: C_18  and  C_19
REMARK    7  A    between atoms: C_18  and  C_20
REMARK    8  A    between atoms: C_30  and  O_31
REMARK    9  A    between atoms: C_32  and  O_33
REMARK                            x       y       z     vdW  Elec       q    Type
REMARK                         _______ _______ _______ _____ _____    ______ ____
ROOT
ATOM      1  N   UNL     1       0.424  11.270  20.592  0.00  0.00    +0.000 N 
ATOM      2  C   UNL     1       0.188  10.762  21.849  0.00  0.00    +0.000 A 
ATOM      3  N   UNL     1       0.551   9.499  21.944  0.00  0.00    +0.000 NA
ATOM      4  C   UNL     1       1.033   9.169  20.694  0.00  0.00    +0.000 A 
ATOM      5  C   UNL     1       1.552   7.994  20.138  0.00  0.00    +0.000 A 
ATOM      6  N   UNL     1       1.686   6.824  20.896  0.00  0.00    +0.000 N 
ATOM      7  C   UNL     1       2.163   5.611  20.475  0.00  0.00    +0.000 C 
ATOM      8  O   UNL     1       2.212   4.656  21.246  0.00  0.00    +0.000 OA
ATOM      9  N   UNL     1       2.551   5.548  19.174  0.00  0.00    +0.000 N 
ATOM     10  N   UNL     1       1.924   8.006  18.827  0.00  0.00    +0.000 NA
ATOM     11  C   UNL     1       1.788   9.138  18.118  0.00  0.00    +0.000 A 
ATOM     12  N   UNL     1       1.333  10.315  18.550  0.00  0.00    +0.000 NA
ATOM     13  C   UNL     1       0.960  10.264  19.842  0.00  0.00    +0.000 A 
ATOM     14  H   UNL     1       1.395   6.864  21.866  0.00  0.00    +0.000 HD
ATOM     15  H   UNL     1       2.512   6.426  18.670  0.00  0.00    +0.000 HD
ENDROOT
BRANCH   1  18
ATOM     16  C   UNL     1      -0.579  14.466  21.464  0.00  0.00    +0.000 C 
ATOM     17  O   UNL     1       0.522  13.590  21.186  0.00  0.00    +0.000 OA
ATOM     18  C   UNL     1       0.129  12.633  20.176  0.00  0.00    +0.000 C 
ATOM     19  C   UNL     1      -1.353  12.871  19.888  0.00  0.00    +0.000 C 
ATOM     20  C   UNL     1      -1.531  14.328  20.281  0.00  0.00    +0.000 C 
BRANCH  16  22
ATOM     21  N   UNL     1      -2.667  14.416  22.768  0.00  0.00    +0.000 N 
ATOM     22  C   UNL     1      -1.305  14.215  22.803  0.00  0.00    +0.000 C 
ATOM     23  O   UNL     1      -0.720  13.788  23.794  0.00  0.00    +0.000 OA
ATOM     24  H   UNL     1      -3.020  15.013  22.019  0.00  0.00    +0.000 HD
BRANCH  21  26
ATOM     25  C   UNL     1      -4.139  12.797  23.918  0.00  0.00    +0.000 C 
ATOM     26  C   UNL     1      -3.499  14.174  23.933  0.00  0.00    +0.000 C 
ENDBRANCH  21  26
ENDBRANCH  16  22
BRANCH  19  27
ATOM     27  O   UNL     1      -1.660  12.655  18.509  0.00  0.00    +0.000 OA
ATOM     28  H   UNL     1      -2.464  12.092  18.494  0.00  0.00    +0.000 HD
ENDBRANCH  19  27
BRANCH  20  29
ATOM     29  O   UNL     1      -1.131  15.144  19.160  0.00  0.00    +0.000 OA
ATOM     30  H   UNL     1      -1.411  16.064  19.317  0.00  0.00    +0.000 HD
ENDBRANCH  20  29
ENDBRANCH   1  18
BRANCH   9  31
ATOM     31  C   UNL     1       3.087   4.402  18.477  0.00  0.00    +0.000 C 
ATOM     32  C   UNL     1       1.940   3.550  17.926  0.00  0.00    +0.000 C 
BRANCH  31  33
ATOM     33  C   UNL     1       4.015   4.852  17.360  0.00  0.00    +0.000 A 
ATOM     34  C   UNL     1       4.570   3.896  16.498  0.00  0.00    +0.000 A 
ATOM     35  C   UNL     1       5.403   4.282  15.445  0.00  0.00    +0.000 A 
ATOM     36  C   UNL     1       5.700   5.629  15.245  0.00  0.00    +0.000 A 
ATOM     37  C   UNL     1       5.168   6.591  16.100  0.00  0.00    +0.000 A 
ATOM     38  C   UNL     1       4.333   6.207  17.151  0.00  0.00    +0.000 A 
ENDBRANCH  31  33
ENDBRANCH   9  31
TORSDOF 7
ENDMDL
MODEL 5
REMARK VINA RESULT:      -8.9      2.023      2.962
REMARK  Name = 
REMARK  9 active torsions:
REMARK  status: ('A' for Active; 'I' for Inactive)
REMARK    1  A    between atoms: C_1  and  C_2
REMARK    2  A    between atoms: C_2  and  N_3
REMARK    3  A    between atoms: C_4  and  C_6
REMARK    4  A    between atoms: C_8  and  N_9
REMARK    5  A    between atoms: N_17  and  C_18
REMARK    6  A    between atoms: C_18  and  C_19
REMARK    7  A    between atoms: C_18  and  C_20
REMARK    8  A    between atoms: C_30  and  O_31
REMARK    9  A    between atoms: C_32  and  O_33
REMARK                            x       y       z     vdW  Elec       q    Type
REMARK                         _______ _______ _______ _____ _____    ______ ____
ROOT
ATOM      1  N   UNL     1       0.588  10.806  20.555  0.00  0.00    +0.000 N 
ATOM      2  C   UNL     1       0.321  10.262  21.791  0.00  0.00    +0.000 A 
ATOM      3  N   UNL     1       0.700   9.002  21.865  0.00  0.00    +0.000 NA
ATOM      4  C   UNL     1       1.224   8.712  20.622  0.00  0.00    +0.000 A 
ATOM      5  C   UNL     1       1.777   7.559  20.053  0.00  0.00    +0.000 A 
ATOM      6  N   UNL     1       1.905   6.371  20.785  0.00  0.00    +0.000 N 
ATOM      7  C   UNL     1       2.413   5.177  20.347  0.00  0.00    +0.000 C 
ATOM      8  O   UNL     1       2.452   4.203  21.095  0.00  0.00    +0.000 OA
ATOM      9  N   UNL     1       2.841   5.153  19.058  0.00  0.00    +0.000 N 
ATOM     10  N   UNL     1       2.188   7.610  18.754  0.00  0.00    +0.000 NA
ATOM     11  C   UNL     1       2.058   8.758  18.071  0.00  0.00    +0.000 A 
ATOM     12  N   UNL     1       1.572   9.917  18.519  0.00  0.00    +0.000 NA
ATOM     13  C   UNL     1       1.161   9.827  19.796  0.00  0.00    +0.000 A 
ATOM     14  H   UNL     1       1.584   6.382  21.745  0.00  0.00    +0.000 HD
ATOM     15  H   UNL     1       2.805   6.043  18.576  0.00  0.00    +0.000 HD
ENDROOT
BRANCH   1  18
ATOM     16  C   UNL     1      -1.333  13.647  21.021  0.00  0.00    +0.000 C 
ATOM     17  O   UNL     1      -0.098  12.977  21.306  0.00  0.00    +0.000 OA
ATOM     18  C   UNL     1       0.285  12.175  20.165  0.00  0.00    +0.000 C 
ATOM     19  C   UNL     1      -0.849  12.278  19.145  0.00  0.00    +0.000 C 
ATOM     20  C   UNL     1      -1.490  13.609  19.504  0.00  0.00    +0.000 C 
BRANCH  16  22
ATOM     21  N   UNL     1      -2.361  12.638  23.018  0.00  0.00    +0.000 N 
ATOM     22  C   UNL     1      -2.579  13.074  21.730  0.00  0.00    +0.000 C 
ATOM     23  O   UNL     1      -3.691  13.085  21.209  0.00  0.00    +0.000 OA
ATOM     24  H   UNL     1      -1.397  12.413  23.266  0.00  0.00    +0.000 HD
BRANCH  21  26
ATOM     25  C   UNL     1      -4.064  13.178  24.727  0.00  0.00    +0.000 C 
ATOM     26  C   UNL     1      -3.444  12.118  23.834  0.00  0.00    +0.000 C 
ENDBRANCH  21  26
ENDBRANCH  16  22
BRANCH  19  27
ATOM     27  O   UNL     1      -0.351  12.277  17.806  0.00  0.00    +0.000 OA
ATOM     28  H   UNL     1       0.251  11.504  17.740  0.00  0.00    +0.000 HD
ENDBRANCH  19  27
BRANCH  20  29
ATOM     29  O   UNL     1      -0.740  14.654  18.852  0.00  0.00    +0.000 OA
ATOM     30  H   UNL     1      -1.001  14.698  17.913  0.00  0.00    +0.000 HD
ENDBRANCH  20  29
ENDBRANCH   1  18
BRANCH   9  31
ATOM     31  C   UNL     1       3.414   4.033  18.349  0.00  0.00    +0.000 C 
ATOM     32  C   UNL     1       2.297   3.133  17.815  0.00  0.00    +0.000 C 
BRANCH  31  33
ATOM     33  C   UNL     1       4.303   4.526  17.217  0.00  0.00    +0.000 A 
ATOM     34  C   UNL     1       4.946   3.594  16.390  0.00  0.00    +0.000 A 
ATOM     35  C   UNL     1       5.744   4.017  15.325  0.00  0.00    +0.000 A 
ATOM     36  C   UNL     1       5.920   5.377  15.078  0.00  0.00    +0.000 A 
ATOM     37  C   UNL     1       5.300   6.317  15.898  0.00  0.00    +0.000 A 
ATOM     38  C   UNL     1       4.498   5.896  16.961  0.00  0.00    +0.000 A 
ENDBRANCH  31  33
ENDBRANCH   9  31
TORSDOF 7
ENDMDL
MODEL 6
REMARK VINA RESULT:      -8.8      2.130      3.808
REMARK  Name = 
REMARK  9 active torsions:
REMARK  status: ('A' for Active; 'I' for Inactive)
REMARK    1  A    between atoms: C_1  and  C_2
REMARK    2  A    between atoms: C_2  and  N_3
REMARK    3  A    between atoms: C_4  and  C_6
REMARK    4  A    between atoms: C_8  and  N_9
REMARK    5  A    between atoms: N_17  and  C_18
REMARK    6  A    between atoms: C_18  and  C_19
REMARK    7  A    between atoms: C_18  and  C_20
REMARK    8  A    between atoms: C_30  and  O_31
REMARK    9  A    between atoms: C_32  and  O_33
REMARK                            x       y       z     vdW  Elec       q    Type
REMARK                         _______ _______ _______ _____ _____    ______ ____
ROOT
ATOM      1  N   UNL     1       0.757  10.706  19.878  0.00  0.00    +0.000 N 
ATOM      2  C   UNL     1       0.426  10.304  21.153  0.00  0.00    +0.000 A 
ATOM      3  N   UNL     1       0.787   9.058  21.384  0.00  0.00    +0.000 NA
ATOM      4  C   UNL     1       1.365   8.628  20.207  0.00  0.00    +0.000 A 
ATOM      5  C   UNL     1       1.931   7.415  19.796  0.00  0.00    +0.000 A 
ATOM      6  N   UNL     1       2.011   6.315  20.660  0.00  0.00    +0.000 N 
ATOM      7  C   UNL     1       2.525   5.076  20.382  0.00  0.00    +0.000 C 
ATOM      8  O   UNL     1       2.518   4.192  21.234  0.00  0.00    +0.000 OA
ATOM      9  N   UNL     1       3.012   4.907  19.125  0.00  0.00    +0.000 N 
ATOM     10  N   UNL     1       2.403   7.319  18.520  0.00  0.00    +0.000 NA
ATOM     11  C   UNL     1       2.317   8.385  17.709  0.00  0.00    +0.000 A 
ATOM     12  N   UNL     1       1.825   9.590  18.002  0.00  0.00    +0.000 NA
ATOM     13  C   UNL     1       1.353   9.645  19.261  0.00  0.00    +0.000 A 
ATOM     14  H   UNL     1       1.646   6.435  21.597  0.00  0.00    +0.000 HD
ATOM     15  H   UNL     1       3.008   5.738  18.546  0.00  0.00    +0.000 HD
ENDROOT
BRANCH   1  18
ATOM     16  C   UNL     1       1.527  14.079  19.795  0.00  0.00    +0.000 C 
ATOM     17  O   UNL     1       1.705  12.794  19.182  0.00  0.00    +0.000 OA
ATOM     18  C   UNL     1       0.489  12.025  19.325  0.00  0.00    +0.000 C 
ATOM     19  C   UNL     1      -0.469  12.856  20.178  0.00  0.00    +0.000 C 
ATOM     20  C   UNL     1       0.021  14.273  19.930  0.00  0.00    +0.000 C 
BRANCH  16  22
ATOM     21  N   UNL     1       3.618  14.280  21.080  0.00  0.00    +0.000 N 
ATOM     22  C   UNL     1       2.243  14.273  21.149  0.00  0.00    +0.000 C 
ATOM     23  O   UNL     1       1.627  14.488  22.189  0.00  0.00    +0.000 OA
ATOM     24  H   UNL     1       4.035  13.835  20.261  0.00  0.00    +0.000 HD
BRANCH  21  26
ATOM     25  C   UNL     1       5.921  14.369  21.976  0.00  0.00    +0.000 C 
ATOM     26  C   UNL     1       4.435  14.502  22.260  0.00  0.00    +0.000 C 
ENDBRANCH  21  26
ENDBRANCH  16  22
BRANCH  19  27
ATOM     27  O   UNL     1      -1.824  12.685  19.760  0.00  0.00    +0.000 OA
ATOM     28  H   UNL     1      -1.789  12.171  18.925  0.00  0.00    +0.000 HD
ENDBRANCH  19  27
BRANCH  20  29
ATOM     29  O   UNL     1      -0.581  14.744  18.706  0.00  0.00    +0.000 OA
ATOM     30  H   UNL     1      -0.451  15.707  18.634  0.00  0.00    +0.000 HD
ENDBRANCH  20  29
ENDBRANCH   1  18
BRANCH   9  31
ATOM     31  C   UNL     1       3.605   3.711  18.573  0.00  0.00    +0.000 C 
ATOM     32  C   UNL     1       2.563   2.951  17.748  0.00  0.00    +0.000 C 
BRANCH  31  33
ATOM     33  C   UNL     1       4.815   4.068  17.723  0.00  0.00    +0.000 A 
ATOM     34  C   UNL     1       5.999   4.480  18.350  0.00  0.00    +0.000 A 
ATOM     35  C   UNL     1       7.135   4.787  17.598  0.00  0.00    +0.000 A 
ATOM     36  C   UNL     1       7.100   4.696  16.208  0.00  0.00    +0.000 A 
ATOM     37  C   UNL     1       5.928   4.302  15.567  0.00  0.00    +0.000 A 
ATOM     38  C   UNL     1       4.792   3.992  16.318  0.00  0.00    +0.000 A 
ENDBRANCH  31  33
ENDBRANCH   9  31
TORSDOF 7
ENDMDL
MODEL 7
REMARK VINA RESULT:      -8.7      2.149      3.390
REMARK  Name = 
REMARK  9 active torsions:
REMARK  status: ('A' for Active; 'I' for Inactive)
REMARK    1  A    between atoms: C_1  and  C_2
REMARK    2  A    between atoms: C_2  and  N_3
REMARK    3  A    between atoms: C_4  and  C_6
REMARK    4  A    between atoms: C_8  and  N_9
REMARK    5  A    between atoms: N_17  and  C_18
REMARK    6  A    between atoms: C_18  and  C_19
REMARK    7  A    between atoms: C_18  and  C_20
REMARK    8  A    between atoms: C_30  and  O_31
REMARK    9  A    between atoms: C_32  and  O_33
REMARK                            x       y       z     vdW  Elec       q    Type
REMARK                         _______ _______ _______ _____ _____    ______ ____
ROOT
ATOM      1  N   UNL     1       0.731  10.905  20.098  0.00  0.00    +0.000 N 
ATOM      2  C   UNL     1       0.398  10.458  21.357  0.00  0.00    +0.000 A 
ATOM      3  N   UNL     1       0.726   9.193  21.531  0.00  0.00    +0.000 NA
ATOM      4  C   UNL     1       1.284   8.799  20.332  0.00  0.00    +0.000 A 
ATOM      5  C   UNL     1       1.813   7.591  19.865  0.00  0.00    +0.000 A 
ATOM      6  N   UNL     1       1.869   6.453  20.680  0.00  0.00    +0.000 N 
ATOM      7  C   UNL     1       2.346   5.213  20.344  0.00  0.00    +0.000 C 
ATOM      8  O   UNL     1       2.320   4.293  21.158  0.00  0.00    +0.000 OA
ATOM      9  N   UNL     1       2.819   5.085  19.077  0.00  0.00    +0.000 N 
ATOM     10  N   UNL     1       2.273   7.537  18.582  0.00  0.00    +0.000 NA
ATOM     11  C   UNL     1       2.211   8.639  17.818  0.00  0.00    +0.000 A 
ATOM     12  N   UNL     1       1.755   9.843  18.167  0.00  0.00    +0.000 NA
ATOM     13  C   UNL     1       1.293   9.856  19.431  0.00  0.00    +0.000 A 
ATOM     14  H   UNL     1       1.513   6.542  21.624  0.00  0.00    +0.000 HD
ATOM     15  H   UNL     1       2.835   5.941  18.535  0.00  0.00    +0.000 HD
ENDROOT
BRANCH   1  18
ATOM     16  C   UNL     1       0.212  14.253  20.805  0.00  0.00    +0.000 C 
ATOM     17  O   UNL     1       1.156  13.241  20.431  0.00  0.00    +0.000 OA
ATOM     18  C   UNL     1       0.496  12.254  19.605  0.00  0.00    +0.000 C 
ATOM     19  C   UNL     1      -0.985  12.631  19.555  0.00  0.00    +0.000 C 
ATOM     20  C   UNL     1      -0.949  14.126  19.824  0.00  0.00    +0.000 C 
BRANCH  16  22
ATOM     21  N   UNL     1      -1.035  15.275  22.667  0.00  0.00    +0.000 N 
ATOM     22  C   UNL     1      -0.279  14.195  22.267  0.00  0.00    +0.000 C 
ATOM     23  O   UNL     1      -0.077  13.220  22.987  0.00  0.00    +0.000 OA
ATOM     24  H   UNL     1      -0.925  16.133  22.125  0.00  0.00    +0.000 HD
BRANCH  21  26
ATOM     25  C   UNL     1      -3.084  14.976  24.017  0.00  0.00    +0.000 C 
ATOM     26  C   UNL     1      -1.611  15.345  23.997  0.00  0.00    +0.000 C 
ENDBRANCH  21  26
ENDBRANCH  16  22
BRANCH  19  27
ATOM     27  O   UNL     1      -1.556  12.338  18.279  0.00  0.00    +0.000 OA
ATOM     28  H   UNL     1      -0.825  12.414  17.629  0.00  0.00    +0.000 HD
ENDBRANCH  19  27
BRANCH  20  29
ATOM     29  O   UNL     1      -0.684  14.797  18.575  0.00  0.00    +0.000 OA
ATOM     30  H   UNL     1      -0.690  14.144  17.852  0.00  0.00    +0.000 HD
ENDBRANCH  20  29
ENDBRANCH   1  18
BRANCH   9  31
ATOM     31  C   UNL     1       3.375   3.899  18.469  0.00  0.00    +0.000 C 
ATOM     32  C   UNL     1       2.389   3.334  17.444  0.00  0.00    +0.000 C 
BRANCH  31  33
ATOM     33  C   UNL     1       4.712   4.219  17.818  0.00  0.00    +0.000 A 
ATOM     34  C   UNL     1       4.822   4.192  16.421  0.00  0.00    +0.000 A 
ATOM     35  C   UNL     1       6.029   4.509  15.794  0.00  0.00    +0.000 A 
ATOM     36  C   UNL     1       7.146   4.848  16.555  0.00  0.00    +0.000 A 
ATOM     37  C   UNL     1       7.058   4.867  17.945  0.00  0.00    +0.000 A 
ATOM     38  C   UNL     1       5.851   4.553  18.574  0.00  0.00    +0.000 A 
ENDBRANCH  31  33
ENDBRANCH   9  31
TORSDOF 7
ENDMDL
MODEL 8
REMARK VINA RESULT:      -8.7      1.371      1.716
REMARK  Name = 
REMARK  9 active torsions:
REMARK  status: ('A' for Active; 'I' for Inactive)
REMARK    1  A    between atoms: C_1  and  C_2
REMARK    2  A    between atoms: C_2  and  N_3
REMARK    3  A    between atoms: C_4  and  C_6
REMARK    4  A    between atoms: C_8  and  N_9
REMARK    5  A    between atoms: N_17  and  C_18
REMARK    6  A    between atoms: C_18  and  C_19
REMARK    7  A    between atoms: C_18  and  C_20
REMARK    8  A    between atoms: C_30  and  O_31
REMARK    9  A    between atoms: C_32  and  O_33
REMARK                            x       y       z     vdW  Elec       q    Type
REMARK                         _______ _______ _______ _____ _____    ______ ____
ROOT
ATOM      1  N   UNL     1       0.835  10.713  20.650  0.00  0.00    +0.000 N 
ATOM      2  C   UNL     1       0.472  10.174  21.864  0.00  0.00    +0.000 A 
ATOM      3  N   UNL     1       0.761   8.890  21.936  0.00  0.00    +0.000 NA
ATOM      4  C   UNL     1       1.323   8.579  20.714  0.00  0.00    +0.000 A 
ATOM      5  C   UNL     1       1.823   7.398  20.154  0.00  0.00    +0.000 A 
ATOM      6  N   UNL     1       1.834   6.195  20.872  0.00  0.00    +0.000 N 
ATOM      7  C   UNL     1       2.280   4.974  20.441  0.00  0.00    +0.000 C 
ATOM      8  O   UNL     1       2.217   3.991  21.175  0.00  0.00    +0.000 OA
ATOM      9  N   UNL     1       2.766   4.937  19.172  0.00  0.00    +0.000 N 
ATOM     10  N   UNL     1       2.298   7.436  18.877  0.00  0.00    +0.000 NA
ATOM     11  C   UNL     1       2.278   8.599  18.206  0.00  0.00    +0.000 A 
ATOM     12  N   UNL     1       1.853   9.784  18.649  0.00  0.00    +0.000 NA
ATOM     13  C   UNL     1       1.375   9.706  19.904  0.00  0.00    +0.000 A 
ATOM     14  H   UNL     1       1.469   6.217  21.817  0.00  0.00    +0.000 HD
ATOM     15  H   UNL     1       2.814   5.834  18.703  0.00  0.00    +0.000 HD
ENDROOT
BRANCH   1  18
ATOM     16  C   UNL     1      -1.264  13.459  20.467  0.00  0.00    +0.000 C 
ATOM     17  O   UNL     1      -0.224  12.793  21.196  0.00  0.00    +0.000 OA
ATOM     18  C   UNL     1       0.645  12.104  20.268  0.00  0.00    +0.000 C 
ATOM     19  C   UNL     1       0.036  12.272  18.876  0.00  0.00    +0.000 C 
ATOM     20  C   UNL     1      -0.771  13.552  19.026  0.00  0.00    +0.000 C 
BRANCH  16  22
ATOM     21  N   UNL     1      -3.324  12.715  19.341  0.00  0.00    +0.000 N 
ATOM     22  C   UNL     1      -2.657  12.798  20.543  0.00  0.00    +0.000 C 
ATOM     23  O   UNL     1      -3.094  12.312  21.582  0.00  0.00    +0.000 OA
ATOM     24  H   UNL     1      -3.028  13.364  18.610  0.00  0.00    +0.000 HD
BRANCH  21  26
ATOM     25  C   UNL     1      -4.762  11.232  17.983  0.00  0.00    +0.000 C 
ATOM     26  C   UNL     1      -4.623  12.076  19.238  0.00  0.00    +0.000 C 
ENDBRANCH  21  26
ENDBRANCH  16  22
BRANCH  19  27
ATOM     27  O   UNL     1       1.046  12.401  17.874  0.00  0.00    +0.000 OA
ATOM     28  H   UNL     1       1.684  11.671  18.036  0.00  0.00    +0.000 HD
ENDBRANCH  19  27
BRANCH  20  29
ATOM     29  O   UNL     1       0.122  14.667  18.826  0.00  0.00    +0.000 OA
ATOM     30  H   UNL     1       1.043  14.353  18.871  0.00  0.00    +0.000 HD
ENDBRANCH  20  29
ENDBRANCH   1  18
BRANCH   9  31
ATOM     31  C   UNL     1       3.295   3.788  18.474  0.00  0.00    +0.000 C 
ATOM     32  C   UNL     1       2.309   3.342  17.392  0.00  0.00    +0.000 C 
BRANCH  31  33
ATOM     33  C   UNL     1       4.651   4.120  17.870  0.00  0.00    +0.000 A 
ATOM     34  C   UNL     1       4.842   3.981  16.488  0.00  0.00    +0.000 A 
ATOM     35  C   UNL     1       6.067   4.304  15.901  0.00  0.00    +0.000 A 
ATOM     36  C   UNL     1       7.122   4.763  16.688  0.00  0.00    +0.000 A 
ATOM     37  C   UNL     1       6.954   4.895  18.064  0.00  0.00    +0.000 A 
ATOM     38  C   UNL     1       5.729   4.574  18.653  0.00  0.00    +0.000 A 
ENDBRANCH  31  33
ENDBRANCH   9  31
TORSDOF 7
ENDMDL
MODEL 9
REMARK VINA RESULT:      -8.7      2.595      8.792
REMARK  Name = 
REMARK  9 active torsions:
REMARK  status: ('A' for Active; 'I' for Inactive)
REMARK    1  A    between atoms: C_1  and  C_2
REMARK    2  A    between atoms: C_2  and  N_3
REMARK    3  A    between atoms: C_4  and  C_6
REMARK    4  A    between atoms: C_8  and  N_9
REMARK    5  A    between atoms: N_17  and  C_18
REMARK    6  A    between atoms: C_18  and  C_19
REMARK    7  A    between atoms: C_18  and  C_20
REMARK    8  A    between atoms: C_30  and  O_31
REMARK    9  A    between atoms: C_32  and  O_33
REMARK                            x       y       z     vdW  Elec       q    Type
REMARK                         _______ _______ _______ _____ _____    ______ ____
ROOT
ATOM      1  N   UNL     1       3.681   4.832  19.180  0.00  0.00    +0.000 N 
ATOM      2  C   UNL     1       3.210   4.318  20.367  0.00  0.00    +0.000 A 
ATOM      3  N   UNL     1       2.381   5.149  20.967  0.00  0.00    +0.000 NA
ATOM      4  C   UNL     1       2.320   6.253  20.142  0.00  0.00    +0.000 A 
ATOM      5  C   UNL     1       1.639   7.474  20.212  0.00  0.00    +0.000 A 
ATOM      6  N   UNL     1       0.790   7.778  21.284  0.00  0.00    +0.000 N 
ATOM      7  C   UNL     1       0.080   8.932  21.479  0.00  0.00    +0.000 C 
ATOM      8  O   UNL     1      -0.620   9.074  22.479  0.00  0.00    +0.000 OA
ATOM      9  N   UNL     1       0.219   9.883  20.518  0.00  0.00    +0.000 N 
ATOM     10  N   UNL     1       1.825   8.379  19.209  0.00  0.00    +0.000 NA
ATOM     11  C   UNL     1       2.643   8.068  18.190  0.00  0.00    +0.000 A 
ATOM     12  N   UNL     1       3.317   6.930  18.010  0.00  0.00    +0.000 NA
ATOM     13  C   UNL     1       3.125   6.068  19.025  0.00  0.00    +0.000 A 
ATOM     14  H   UNL     1       0.685   7.074  22.005  0.00  0.00    +0.000 HD
ATOM     15  H   UNL     1       0.780   9.608  19.720  0.00  0.00    +0.000 HD
ENDROOT
BRANCH   1  18
ATOM     16  C   UNL     1       6.533   4.986  17.226  0.00  0.00    +0.000 C 
ATOM     17  O   UNL     1       5.966   4.618  18.491  0.00  0.00    +0.000 OA
ATOM     18  C   UNL     1       4.611   4.154  18.290  0.00  0.00    +0.000 C 
ATOM     19  C   UNL     1       4.285   4.349  16.810  0.00  0.00    +0.000 C 
ATOM     20  C   UNL     1       5.663   4.317  16.167  0.00  0.00    +0.000 C 
BRANCH  16  22
ATOM     21  N   UNL     1       7.595   7.144  17.754  0.00  0.00    +0.000 N 
ATOM     22  C   UNL     1       6.660   6.504  16.972  0.00  0.00    +0.000 C 
ATOM     23  O   UNL     1       6.034   7.073  16.082  0.00  0.00    +0.000 OA
ATOM     24  H   UNL     1       7.860   6.676  18.622  0.00  0.00    +0.000 HD
BRANCH  21  26
ATOM     25  C   UNL     1       8.733   9.115  18.720  0.00  0.00    +0.000 C 
ATOM     26  C   UNL     1       7.868   8.562  17.601  0.00  0.00    +0.000 C 
ENDBRANCH  21  26
ENDBRANCH  16  22
BRANCH  19  27
ATOM     27  O   UNL     1       3.448   3.303  16.315  0.00  0.00    +0.000 OA
ATOM     28  H   UNL     1       3.062   3.637  15.476  0.00  0.00    +0.000 HD
ENDBRANCH  19  27
BRANCH  20  29
ATOM     29  O   UNL     1       6.024   2.936  15.957  0.00  0.00    +0.000 OA
ATOM     30  H   UNL     1       6.845   2.742  16.444  0.00  0.00    +0.000 HD
ENDBRANCH  20  29
ENDBRANCH   1  18
BRANCH   9  31
ATOM     31  C   UNL     1      -0.411  11.181  20.477  0.00  0.00    +0.000 C 
ATOM     32  C   UNL     1       0.643  12.259  20.211  0.00  0.00    +0.000 C 
BRANCH  31  33
ATOM     33  C   UNL     1      -1.495  11.206  19.410  0.00  0.00    +0.000 A 
ATOM     34  C   UNL     1      -2.646  11.980  19.614  0.00  0.00    +0.000 A 
ATOM     35  C   UNL     1      -3.644  12.045  18.640  0.00  0.00    +0.000 A 
ATOM     36  C   UNL     1      -3.511  11.330  17.452  0.00  0.00    +0.000 A 
ATOM     37  C   UNL     1      -2.381  10.545  17.237  0.00  0.00    +0.000 A 
ATOM     38  C   UNL     1      -1.379  10.481  18.209  0.00  0.00    +0.000 A 
ENDBRANCH  31  33
ENDBRANCH   9  31
TORSDOF 7
ENDMDL
