MODEL 1
REMARK VINA RESULT:      -7.5      0.000      0.000
REMARK  Name = 
REMARK  4 active torsions:
REMARK  status: ('A' for Active; 'I' for Inactive)
REMARK    1  A    between atoms: C_1  and  C_2
REMARK    2  A    between atoms: C_2  and  O_4
REMARK    3  A    between atoms: O_4  and  N_5
REMARK    4  A    between atoms: C_16  and  C_17
REMARK                            x       y       z     vdW  Elec       q    Type
REMARK                         _______ _______ _______ _____ _____    ______ ____
ROOT
ATOM      1  N   UNL     1       3.243   3.547  19.751  0.00  0.00    +0.000 NA
ATOM      2  C   UNL     1       3.076   4.617  19.022  0.00  0.00    +0.000 C 
ATOM      3  C   UNL     1       3.511   4.896  17.513  0.00  0.00    +0.000 C 
ATOM      4  C   UNL     1       4.636   4.335  16.972  0.00  0.00    +0.000 C 
ATOM      5  C   UNL     1       5.723   4.589  18.029  0.00  0.00    +0.000 C 
ATOM      6  O   UNL     1       5.656   5.300  19.019  0.00  0.00    +0.000 OA
ATOM      7  N   UNL     1       6.922   4.272  17.434  0.00  0.00    +0.000 N 
ATOM      8  C   UNL     1       6.751   4.500  16.071  0.00  0.00    +0.000 A 
ATOM      9  C   UNL     1       7.784   4.912  15.264  0.00  0.00    +0.000 A 
ATOM     10  C   UNL     1       7.559   4.971  13.907  0.00  0.00    +0.000 A 
ATOM     11 BR   UNL     1       8.860   5.874  12.858  0.00  0.00    +0.000 Br
ATOM     12  C   UNL     1       6.393   4.387  13.374  0.00  0.00    +0.000 A 
ATOM     13  C   UNL     1       6.473   3.941  11.926  0.00  0.00    +0.000 C 
ATOM     14  C   UNL     1       5.282   4.118  14.272  0.00  0.00    +0.000 A 
ATOM     15  C   UNL     1       5.418   4.347  15.657  0.00  0.00    +0.000 A 
ATOM     16  N   UNL     1       2.990   6.159  17.174  0.00  0.00    +0.000 N 
ATOM     17  C   UNL     1       2.501   6.770  18.371  0.00  0.00    +0.000 A 
ATOM     18  C   UNL     1       2.084   8.093  18.517  0.00  0.00    +0.000 A 
ATOM     19  C   UNL     1       1.582   8.519  19.753  0.00  0.00    +0.000 A 
ATOM     20  C   UNL     1       1.475   7.637  20.828  0.00  0.00    +0.000 A 
ATOM     21  C   UNL     1       1.893   6.322  20.677  0.00  0.00    +0.000 A 
ATOM     22  C   UNL     1       2.426   5.908  19.451  0.00  0.00    +0.000 A 
ATOM     23  H   UNL     1       7.045   3.270  17.566  0.00  0.00    +0.000 HD
ATOM     24  H   UNL     1       3.656   6.756  16.697  0.00  0.00    +0.000 HD
ENDROOT
BRANCH   1  25
ATOM     25  O   UNL     1       2.761   3.790  21.069  0.00  0.00    +0.000 OA
BRANCH  25  27
ATOM     26  C   UNL     1       0.546   2.887  20.595  0.00  0.00    +0.000 C 
ATOM     27  C   UNL     1       1.689   3.114  21.538  0.00  0.00    +0.000 C 
ATOM     28  O   UNL     1       1.683   2.687  22.678  0.00  0.00    +0.000 OA
ENDBRANCH  25  27
ENDBRANCH   1  25
TORSDOF 2
ENDMDL
MODEL 2
REMARK VINA RESULT:      -7.1      4.699      6.564
REMARK  Name = 
REMARK  4 active torsions:
REMARK  status: ('A' for Active; 'I' for Inactive)
REMARK    1  A    between atoms: C_1  and  C_2
REMARK    2  A    between atoms: C_2  and  O_4
REMARK    3  A    between atoms: O_4  and  N_5
REMARK    4  A    between atoms: C_16  and  C_17
REMARK                            x       y       z     vdW  Elec       q    Type
REMARK                         _______ _______ _______ _____ _____    ______ ____
ROOT
ATOM      1  N   UNL     1      -0.994  10.067  18.419  0.00  0.00    +0.000 NA
ATOM      2  C   UNL     1       0.191  10.612  18.354  0.00  0.00    +0.000 C 
ATOM      3  C   UNL     1       1.569   9.987  17.846  0.00  0.00    +0.000 C 
ATOM      4  C   UNL     1       1.855   8.657  17.994  0.00  0.00    +0.000 C 
ATOM      5  C   UNL     1       1.498   8.360  19.459  0.00  0.00    +0.000 C 
ATOM      6  O   UNL     1       1.222   9.158  20.341  0.00  0.00    +0.000 OA
ATOM      7  N   UNL     1       1.998   7.109  19.733  0.00  0.00    +0.000 N 
ATOM      8  C   UNL     1       3.098   6.939  18.897  0.00  0.00    +0.000 A 
ATOM      9  C   UNL     1       4.187   6.187  19.265  0.00  0.00    +0.000 A 
ATOM     10  C   UNL     1       5.162   5.955  18.320  0.00  0.00    +0.000 A 
ATOM     11 BR   UNL     1       6.805   5.231  18.940  0.00  0.00    +0.000 Br
ATOM     12  C   UNL     1       4.906   6.273  16.972  0.00  0.00    +0.000 A 
ATOM     13  C   UNL     1       5.689   5.483  15.941  0.00  0.00    +0.000 C 
ATOM     14  C   UNL     1       3.826   7.199  16.673  0.00  0.00    +0.000 A 
ATOM     15  C   UNL     1       2.997   7.680  17.708  0.00  0.00    +0.000 A 
ATOM     16  N   UNL     1       2.514  11.030  17.875  0.00  0.00    +0.000 N 
ATOM     17  C   UNL     1       1.928  12.138  18.563  0.00  0.00    +0.000 A 
ATOM     18  C   UNL     1       2.583  13.296  18.983  0.00  0.00    +0.000 A 
ATOM     19  C   UNL     1       1.845  14.312  19.601  0.00  0.00    +0.000 A 
ATOM     20  C   UNL     1       0.468  14.192  19.784  0.00  0.00    +0.000 A 
ATOM     21  C   UNL     1      -0.179  13.037  19.366  0.00  0.00    +0.000 A 
ATOM     22  C   UNL     1       0.567  12.008  18.779  0.00  0.00    +0.000 A 
ATOM     23  H   UNL     1       1.281   6.449  19.438  0.00  0.00    +0.000 HD
ATOM     24  H   UNL     1       3.399  10.761  18.291  0.00  0.00    +0.000 HD
ENDROOT
BRANCH   1  25
ATOM     25  O   UNL     1      -1.905  10.984  19.017  0.00  0.00    +0.000 OA
BRANCH  25  27
ATOM     26  C   UNL     1      -3.390  10.557  17.132  0.00  0.00    +0.000 C 
ATOM     27  C   UNL     1      -3.096  11.239  18.434  0.00  0.00    +0.000 C 
ATOM     28  O   UNL     1      -3.901  11.975  18.975  0.00  0.00    +0.000 OA
ENDBRANCH  25  27
ENDBRANCH   1  25
TORSDOF 2
ENDMDL
MODEL 3
REMARK VINA RESULT:      -6.8     10.250     11.911
REMARK  Name = 
REMARK  4 active torsions:
REMARK  status: ('A' for Active; 'I' for Inactive)
REMARK    1  A    between atoms: C_1  and  C_2
REMARK    2  A    between atoms: C_2  and  O_4
REMARK    3  A    between atoms: O_4  and  N_5
REMARK    4  A    between atoms: C_16  and  C_17
REMARK                            x       y       z     vdW  Elec       q    Type
REMARK                         _______ _______ _______ _____ _____    ______ ____
ROOT
ATOM      1  N   UNL     1      -4.302  12.538  22.326  0.00  0.00    +0.000 NA
ATOM      2  C   UNL     1      -4.174  12.464  21.028  0.00  0.00    +0.000 C 
ATOM      3  C   UNL     1      -2.867  12.615  20.126  0.00  0.00    +0.000 C 
ATOM      4  C   UNL     1      -1.836  13.440  20.484  0.00  0.00    +0.000 C 
ATOM      5  C   UNL     1      -2.529  14.758  20.865  0.00  0.00    +0.000 C 
ATOM      6  O   UNL     1      -3.697  15.069  20.694  0.00  0.00    +0.000 OA
ATOM      7  N   UNL     1      -1.531  15.696  20.990  0.00  0.00    +0.000 N 
ATOM      8  C   UNL     1      -0.508  15.291  20.138  0.00  0.00    +0.000 A 
ATOM      9  C   UNL     1       0.317  16.191  19.507  0.00  0.00    +0.000 A 
ATOM     10  C   UNL     1       1.391  15.698  18.800  0.00  0.00    +0.000 A 
ATOM     11 BR   UNL     1       2.296  16.911  17.653  0.00  0.00    +0.000 Br
ATOM     12  C   UNL     1       1.749  14.343  18.945  0.00  0.00    +0.000 A 
ATOM     13  C   UNL     1       3.203  14.005  18.672  0.00  0.00    +0.000 C 
ATOM     14  C   UNL     1       0.764  13.421  19.485  0.00  0.00    +0.000 A 
ATOM     15  C   UNL     1      -0.481  13.901  19.942  0.00  0.00    +0.000 A 
ATOM     16  N   UNL     1      -3.260  12.332  18.804  0.00  0.00    +0.000 N 
ATOM     17  C   UNL     1      -4.688  12.264  18.774  0.00  0.00    +0.000 A 
ATOM     18  C   UNL     1      -5.492  12.198  17.636  0.00  0.00    +0.000 A 
ATOM     19  C   UNL     1      -6.880  12.085  17.785  0.00  0.00    +0.000 A 
ATOM     20  C   UNL     1      -7.464  12.016  19.049  0.00  0.00    +0.000 A 
ATOM     21  C   UNL     1      -6.659  12.083  20.178  0.00  0.00    +0.000 A 
ATOM     22  C   UNL     1      -5.276  12.231  20.026  0.00  0.00    +0.000 A 
ATOM     23  H   UNL     1      -1.188  15.616  21.945  0.00  0.00    +0.000 HD
ATOM     24  H   UNL     1      -2.905  12.997  18.126  0.00  0.00    +0.000 HD
ENDROOT
BRANCH   1  25
ATOM     25  O   UNL     1      -5.677  12.420  22.675  0.00  0.00    +0.000 OA
BRANCH  25  27
ATOM     26  C   UNL     1      -7.350  13.263  24.235  0.00  0.00    +0.000 C 
ATOM     27  C   UNL     1      -6.065  12.541  23.964  0.00  0.00    +0.000 C 
ATOM     28  O   UNL     1      -5.398  12.050  24.856  0.00  0.00    +0.000 OA
ENDBRANCH  25  27
ENDBRANCH   1  25
TORSDOF 2
ENDMDL
MODEL 4
REMARK VINA RESULT:      -6.8     11.474     12.796
REMARK  Name = 
REMARK  4 active torsions:
REMARK  status: ('A' for Active; 'I' for Inactive)
REMARK    1  A    between atoms: C_1  and  C_2
REMARK    2  A    between atoms: C_2  and  O_4
REMARK    3  A    between atoms: O_4  and  N_5
REMARK    4  A    between atoms: C_16  and  C_17
REMARK                            x       y       z     vdW  Elec       q    Type
REMARK                         _______ _______ _______ _____ _____    ______ ____
ROOT
ATOM      1  N   UNL     1      -4.669  12.853  22.697  0.00  0.00    +0.000 NA
ATOM      2  C   UNL     1      -4.471  12.661  21.421  0.00  0.00    +0.000 C 
ATOM      3  C   UNL     1      -3.208  13.037  20.521  0.00  0.00    +0.000 C 
ATOM      4  C   UNL     1      -2.438  14.137  20.784  0.00  0.00    +0.000 C 
ATOM      5  C   UNL     1      -3.460  15.266  20.988  0.00  0.00    +0.000 C 
ATOM      6  O   UNL     1      -4.661  15.242  20.766  0.00  0.00    +0.000 OA
ATOM      7  N   UNL     1      -2.742  16.439  21.005  0.00  0.00    +0.000 N 
ATOM      8  C   UNL     1      -1.613  16.215  20.223  0.00  0.00    +0.000 A 
ATOM      9  C   UNL     1      -1.019  17.215  19.492  0.00  0.00    +0.000 A 
ATOM     10  C   UNL     1       0.175  16.937  18.865  0.00  0.00    +0.000 A 
ATOM     11 BR   UNL     1       0.788  18.198  17.584  0.00  0.00    +0.000 Br
ATOM     12  C   UNL     1       0.860  15.748  19.183  0.00  0.00    +0.000 A 
ATOM     13  C   UNL     1       2.362  15.768  18.971  0.00  0.00    +0.000 C 
ATOM     14  C   UNL     1       0.121  14.673  19.824  0.00  0.00    +0.000 A 
ATOM     15  C   UNL     1      -1.224  14.865  20.203  0.00  0.00    +0.000 A 
ATOM     16  N   UNL     1      -3.458  12.507  19.241  0.00  0.00    +0.000 N 
ATOM     17  C   UNL     1      -4.818  12.068  19.204  0.00  0.00    +0.000 A 
ATOM     18  C   UNL     1      -5.529  11.662  18.074  0.00  0.00    +0.000 A 
ATOM     19  C   UNL     1      -6.847  11.212  18.221  0.00  0.00    +0.000 A 
ATOM     20  C   UNL     1      -7.449  11.144  19.477  0.00  0.00    +0.000 A 
ATOM     21  C   UNL     1      -6.737  11.551  20.598  0.00  0.00    +0.000 A 
ATOM     22  C   UNL     1      -5.432  12.033  20.444  0.00  0.00    +0.000 A 
ATOM     23  H   UNL     1      -2.431  16.564  21.967  0.00  0.00    +0.000 HD
ATOM     24  H   UNL     1      -3.256  13.155  18.489  0.00  0.00    +0.000 HD
ENDROOT
BRANCH   1  25
ATOM     25  O   UNL     1      -5.982  12.426  23.043  0.00  0.00    +0.000 OA
BRANCH  25  27
ATOM     26  C   UNL     1      -6.435  14.698  23.803  0.00  0.00    +0.000 C 
ATOM     27  C   UNL     1      -6.809  13.248  23.726  0.00  0.00    +0.000 C 
ATOM     28  O   UNL     1      -7.830  12.815  24.228  0.00  0.00    +0.000 OA
ENDBRANCH  25  27
ENDBRANCH   1  25
TORSDOF 2
ENDMDL
MODEL 5
REMARK VINA RESULT:      -6.7     10.439     12.794
REMARK  Name = 
REMARK  4 active torsions:
REMARK  status: ('A' for Active; 'I' for Inactive)
REMARK    1  A    between atoms: C_1  and  C_2
REMARK    2  A    between atoms: C_2  and  O_4
REMARK    3  A    between atoms: O_4  and  N_5
REMARK    4  A    between atoms: C_16  and  C_17
REMARK                            x       y       z     vdW  Elec       q    Type
REMARK                         _______ _______ _______ _____ _____    ______ ____
ROOT
ATOM      1  N   UNL     1       8.811  13.575  19.602  0.00  0.00    +0.000 NA
ATOM      2  C   UNL     1       8.768  14.844  19.299  0.00  0.00    +0.000 C 
ATOM      3  C   UNL     1       7.570  15.886  19.458  0.00  0.00    +0.000 C 
ATOM      4  C   UNL     1       6.261  15.503  19.343  0.00  0.00    +0.000 C 
ATOM      5  C   UNL     1       6.233  14.659  18.059  0.00  0.00    +0.000 C 
ATOM      6  O   UNL     1       7.116  14.530  17.225  0.00  0.00    +0.000 OA
ATOM      7  N   UNL     1       4.906  14.458  17.757  0.00  0.00    +0.000 N 
ATOM      8  C   UNL     1       4.221  15.555  18.272  0.00  0.00    +0.000 A 
ATOM      9  C   UNL     1       3.084  16.050  17.681  0.00  0.00    +0.000 A 
ATOM     10  C   UNL     1       2.393  17.043  18.339  0.00  0.00    +0.000 A 
ATOM     11 BR   UNL     1       1.049  17.954  17.353  0.00  0.00    +0.000 Br
ATOM     12  C   UNL     1       2.719  17.341  19.676  0.00  0.00    +0.000 A 
ATOM     13  C   UNL     1       1.609  17.948  20.513  0.00  0.00    +0.000 C 
ATOM     14  C   UNL     1       4.011  16.910  20.185  0.00  0.00    +0.000 A 
ATOM     15  C   UNL     1       4.864  16.127  19.382  0.00  0.00    +0.000 A 
ATOM     16  N   UNL     1       8.084  17.144  19.091  0.00  0.00    +0.000 N 
ATOM     17  C   UNL     1       9.372  16.940  18.505  0.00  0.00    +0.000 A 
ATOM     18  C   UNL     1      10.139  17.892  17.834  0.00  0.00    +0.000 A 
ATOM     19  C   UNL     1      11.409  17.539  17.362  0.00  0.00    +0.000 A 
ATOM     20  C   UNL     1      11.923  16.259  17.572  0.00  0.00    +0.000 A 
ATOM     21  C   UNL     1      11.155  15.315  18.240  0.00  0.00    +0.000 A 
ATOM     22  C   UNL     1       9.872  15.662  18.680  0.00  0.00    +0.000 A 
ATOM     23  H   UNL     1       4.618  13.638  18.287  0.00  0.00    +0.000 HD
ATOM     24  H   UNL     1       7.472  17.665  18.472  0.00  0.00    +0.000 HD
ENDROOT
BRANCH   1  25
ATOM     25  O   UNL     1      10.067  13.035  19.206  0.00  0.00    +0.000 OA
BRANCH  25  27
ATOM     26  C   UNL     1      12.161  11.912  19.751  0.00  0.00    +0.000 C 
ATOM     27  C   UNL     1      10.697  12.130  19.986  0.00  0.00    +0.000 C 
ATOM     28  O   UNL     1      10.088  11.544  20.863  0.00  0.00    +0.000 OA
ENDBRANCH  25  27
ENDBRANCH   1  25
TORSDOF 2
ENDMDL
MODEL 6
REMARK VINA RESULT:      -6.7      9.223     12.247
REMARK  Name = 
REMARK  4 active torsions:
REMARK  status: ('A' for Active; 'I' for Inactive)
REMARK    1  A    between atoms: C_1  and  C_2
REMARK    2  A    between atoms: C_2  and  O_4
REMARK    3  A    between atoms: O_4  and  N_5
REMARK    4  A    between atoms: C_16  and  C_17
REMARK                            x       y       z     vdW  Elec       q    Type
REMARK                         _______ _______ _______ _____ _____    ______ ____
ROOT
ATOM      1  N   UNL     1      -2.536  14.858  24.970  0.00  0.00    +0.000 NA
ATOM      2  C   UNL     1      -3.227  14.107  24.156  0.00  0.00    +0.000 C 
ATOM      3  C   UNL     1      -2.806  12.759  23.414  0.00  0.00    +0.000 C 
ATOM      4  C   UNL     1      -1.517  12.527  23.018  0.00  0.00    +0.000 C 
ATOM      5  C   UNL     1      -1.107  13.826  22.306  0.00  0.00    +0.000 C 
ATOM      6  O   UNL     1      -1.821  14.763  21.985  0.00  0.00    +0.000 OA
ATOM      7  N   UNL     1       0.083  13.560  21.671  0.00  0.00    +0.000 N 
ATOM      8  C   UNL     1       0.073  12.198  21.382  0.00  0.00    +0.000 A 
ATOM      9  C   UNL     1       0.699  11.681  20.273  0.00  0.00    +0.000 A 
ATOM     10  C   UNL     1       0.762  10.312  20.146  0.00  0.00    +0.000 A 
ATOM     11 BR   UNL     1       1.302   9.629  18.458  0.00  0.00    +0.000 Br
ATOM     12  C   UNL     1       0.413   9.500  21.243  0.00  0.00    +0.000 A 
ATOM     13  C   UNL     1       1.048   8.123  21.282  0.00  0.00    +0.000 C 
ATOM     14  C   UNL     1      -0.383  10.084  22.310  0.00  0.00    +0.000 A 
ATOM     15  C   UNL     1      -0.706  11.456  22.285  0.00  0.00    +0.000 A 
ATOM     16  N   UNL     1      -3.956  12.292  22.750  0.00  0.00    +0.000 N 
ATOM     17  C   UNL     1      -4.947  13.321  22.810  0.00  0.00    +0.000 A 
ATOM     18  C   UNL     1      -6.157  13.351  22.116  0.00  0.00    +0.000 A 
ATOM     19  C   UNL     1      -7.042  14.415  22.329  0.00  0.00    +0.000 A 
ATOM     20  C   UNL     1      -6.741  15.430  23.237  0.00  0.00    +0.000 A 
ATOM     21  C   UNL     1      -5.535  15.396  23.924  0.00  0.00    +0.000 A 
ATOM     22  C   UNL     1      -4.638  14.349  23.684  0.00  0.00    +0.000 A 
ATOM     23  H   UNL     1       0.813  13.724  22.361  0.00  0.00    +0.000 HD
ATOM     24  H   UNL     1      -3.781  12.000  21.795  0.00  0.00    +0.000 HD
ENDROOT
BRANCH   1  25
ATOM     25  O   UNL     1      -3.301  16.007  25.320  0.00  0.00    +0.000 OA
BRANCH  25  27
ATOM     26  C   UNL     1      -1.401  17.332  26.083  0.00  0.00    +0.000 C 
ATOM     27  C   UNL     1      -2.717  17.224  25.373  0.00  0.00    +0.000 C 
ATOM     28  O   UNL     1      -3.241  18.181  24.832  0.00  0.00    +0.000 OA
ENDBRANCH  25  27
ENDBRANCH   1  25
TORSDOF 2
ENDMDL
MODEL 7
REMARK VINA RESULT:      -6.6      4.922      7.087
REMARK  Name = 
REMARK  4 active torsions:
REMARK  status: ('A' for Active; 'I' for Inactive)
REMARK    1  A    between atoms: C_1  and  C_2
REMARK    2  A    between atoms: C_2  and  O_4
REMARK    3  A    between atoms: O_4  and  N_5
REMARK    4  A    between atoms: C_16  and  C_17
REMARK                            x       y       z     vdW  Elec       q    Type
REMARK                         _______ _______ _______ _____ _____    ______ ____
ROOT
ATOM      1  N   UNL     1      -1.116  10.937  19.587  0.00  0.00    +0.000 NA
ATOM      2  C   UNL     1       0.065  11.157  19.076  0.00  0.00    +0.000 C 
ATOM      3  C   UNL     1       1.095  10.130  18.419  0.00  0.00    +0.000 C 
ATOM      4  C   UNL     1       1.185   8.831  18.841  0.00  0.00    +0.000 C 
ATOM      5  C   UNL     1       1.251   8.941  20.372  0.00  0.00    +0.000 C 
ATOM      6  O   UNL     1       1.398   9.948  21.047  0.00  0.00    +0.000 OA
ATOM      7  N   UNL     1       1.594   7.692  20.835  0.00  0.00    +0.000 N 
ATOM      8  C   UNL     1       2.339   7.094  19.822  0.00  0.00    +0.000 A 
ATOM      9  C   UNL     1       3.346   6.198  20.087  0.00  0.00    +0.000 A 
ATOM     10  C   UNL     1       3.929   5.548  19.022  0.00  0.00    +0.000 A 
ATOM     11 BR   UNL     1       5.538   4.599  19.370  0.00  0.00    +0.000 Br
ATOM     12  C   UNL     1       3.329   5.630  17.751  0.00  0.00    +0.000 A 
ATOM     13  C   UNL     1       3.612   4.478  16.805  0.00  0.00    +0.000 C 
ATOM     14  C   UNL     1       2.380   6.703  17.501  0.00  0.00    +0.000 A 
ATOM     15  C   UNL     1       2.003   7.573  18.545  0.00  0.00    +0.000 A 
ATOM     16  N   UNL     1       2.164  10.900  17.923  0.00  0.00    +0.000 N 
ATOM     17  C   UNL     1       2.012  12.234  18.414  0.00  0.00    +0.000 A 
ATOM     18  C   UNL     1       2.949  13.264  18.324  0.00  0.00    +0.000 A 
ATOM     19  C   UNL     1       2.619  14.533  18.815  0.00  0.00    +0.000 A 
ATOM     20  C   UNL     1       1.365  14.786  19.370  0.00  0.00    +0.000 A 
ATOM     21  C   UNL     1       0.437  13.757  19.458  0.00  0.00    +0.000 A 
ATOM     22  C   UNL     1       0.782  12.481  18.999  0.00  0.00    +0.000 A 
ATOM     23  H   UNL     1       0.721   7.175  20.922  0.00  0.00    +0.000 HD
ATOM     24  H   UNL     1       3.076  10.521  18.154  0.00  0.00    +0.000 HD
ENDROOT
BRANCH   1  25
ATOM     25  O   UNL     1      -1.631  12.148  20.130  0.00  0.00    +0.000 OA
BRANCH  25  27
ATOM     26  C   UNL     1      -1.250  11.717  22.499  0.00  0.00    +0.000 C 
ATOM     27  C   UNL     1      -2.140  12.172  21.381  0.00  0.00    +0.000 C 
ATOM     28  O   UNL     1      -3.270  12.580  21.578  0.00  0.00    +0.000 OA
ENDBRANCH  25  27
ENDBRANCH   1  25
TORSDOF 2
ENDMDL
MODEL 8
REMARK VINA RESULT:      -6.6     10.232     13.001
REMARK  Name = 
REMARK  4 active torsions:
REMARK  status: ('A' for Active; 'I' for Inactive)
REMARK    1  A    between atoms: C_1  and  C_2
REMARK    2  A    between atoms: C_2  and  O_4
REMARK    3  A    between atoms: O_4  and  N_5
REMARK    4  A    between atoms: C_16  and  C_17
REMARK                            x       y       z     vdW  Elec       q    Type
REMARK                         _______ _______ _______ _____ _____    ______ ____
ROOT
ATOM      1  N   UNL     1       1.767  14.922  19.938  0.00  0.00    +0.000 NA
ATOM      2  C   UNL     1       0.753  15.643  19.539  0.00  0.00    +0.000 C 
ATOM      3  C   UNL     1      -0.779  15.570  19.978  0.00  0.00    +0.000 C 
ATOM      4  C   UNL     1      -1.370  14.389  20.338  0.00  0.00    +0.000 C 
ATOM      5  C   UNL     1      -0.956  13.412  19.226  0.00  0.00    +0.000 C 
ATOM      6  O   UNL     1      -0.407  13.669  18.167  0.00  0.00    +0.000 OA
ATOM      7  N   UNL     1      -1.723  12.283  19.400  0.00  0.00    +0.000 N 
ATOM      8  C   UNL     1      -2.906  12.705  19.998  0.00  0.00    +0.000 A 
ATOM      9  C   UNL     1      -4.107  12.078  19.766  0.00  0.00    +0.000 A 
ATOM     10  C   UNL     1      -5.196  12.471  20.511  0.00  0.00    +0.000 A 
ATOM     11 BR   UNL     1      -6.899  11.858  19.935  0.00  0.00    +0.000 Br
ATOM     12  C   UNL     1      -5.002  13.305  21.629  0.00  0.00    +0.000 A 
ATOM     13  C   UNL     1      -6.054  13.213  22.719  0.00  0.00    +0.000 C 
ATOM     14  C   UNL     1      -3.761  14.055  21.727  0.00  0.00    +0.000 A 
ATOM     15  C   UNL     1      -2.742  13.866  20.771  0.00  0.00    +0.000 A 
ATOM     16  N   UNL     1      -1.429  16.642  19.337  0.00  0.00    +0.000 N 
ATOM     17  C   UNL     1      -0.521  17.201  18.384  0.00  0.00    +0.000 A 
ATOM     18  C   UNL     1      -0.824  18.148  17.406  0.00  0.00    +0.000 A 
ATOM     19  C   UNL     1       0.199  18.630  16.581  0.00  0.00    +0.000 A 
ATOM     20  C   UNL     1       1.515  18.195  16.738  0.00  0.00    +0.000 A 
ATOM     21  C   UNL     1       1.810  17.252  17.713  0.00  0.00    +0.000 A 
ATOM     22  C   UNL     1       0.779  16.746  18.513  0.00  0.00    +0.000 A 
ATOM     23  H   UNL     1      -1.225  11.706  20.074  0.00  0.00    +0.000 HD
ATOM     24  H   UNL     1      -2.308  16.381  18.905  0.00  0.00    +0.000 HD
ENDROOT
BRANCH   1  25
ATOM     25  O   UNL     1       2.930  15.295  19.207  0.00  0.00    +0.000 OA
BRANCH  25  27
ATOM     26  C   UNL     1       4.912  14.766  17.889  0.00  0.00    +0.000 C 
ATOM     27  C   UNL     1       3.566  14.390  18.430  0.00  0.00    +0.000 C 
ATOM     28  O   UNL     1       3.061  13.304  18.213  0.00  0.00    +0.000 OA
ENDBRANCH  25  27
ENDBRANCH   1  25
TORSDOF 2
ENDMDL
MODEL 9
REMARK VINA RESULT:      -6.6      7.780     11.727
REMARK  Name = 
REMARK  4 active torsions:
REMARK  status: ('A' for Active; 'I' for Inactive)
REMARK    1  A    between atoms: C_1  and  C_2
REMARK    2  A    between atoms: C_2  and  O_4
REMARK    3  A    between atoms: O_4  and  N_5
REMARK    4  A    between atoms: C_16  and  C_17
REMARK                            x       y       z     vdW  Elec       q    Type
REMARK                         _______ _______ _______ _____ _____    ______ ____
ROOT
ATOM      1  N   UNL     1      -0.069  10.204  19.335  0.00  0.00    +0.000 NA
ATOM      2  C   UNL     1      -0.059  11.490  19.563  0.00  0.00    +0.000 C 
ATOM      3  C   UNL     1      -1.146  12.399  20.297  0.00  0.00    +0.000 C 
ATOM      4  C   UNL     1      -2.483  12.112  20.241  0.00  0.00    +0.000 C 
ATOM      5  C   UNL     1      -2.743  11.849  18.749  0.00  0.00    +0.000 C 
ATOM      6  O   UNL     1      -1.991  12.049  17.808  0.00  0.00    +0.000 OA
ATOM      7  N   UNL     1      -4.110  11.803  18.598  0.00  0.00    +0.000 N 
ATOM      8  C   UNL     1      -4.638  12.614  19.598  0.00  0.00    +0.000 A 
ATOM      9  C   UNL     1      -5.805  13.320  19.427  0.00  0.00    +0.000 A 
ATOM     10  C   UNL     1      -6.327  13.979  20.518  0.00  0.00    +0.000 A 
ATOM     11 BR   UNL     1      -7.721  15.225  20.183  0.00  0.00    +0.000 Br
ATOM     12  C   UNL     1      -5.804  13.716  21.799  0.00  0.00    +0.000 A 
ATOM     13  C   UNL     1      -6.745  13.955  22.965  0.00  0.00    +0.000 C 
ATOM     14  C   UNL     1      -4.492  13.100  21.897  0.00  0.00    +0.000 A 
ATOM     15  C   UNL     1      -3.812  12.688  20.732  0.00  0.00    +0.000 A 
ATOM     16  N   UNL     1      -0.595  13.692  20.378  0.00  0.00    +0.000 N 
ATOM     17  C   UNL     1       0.585  13.719  19.572  0.00  0.00    +0.000 A 
ATOM     18  C   UNL     1       1.323  14.849  19.218  0.00  0.00    +0.000 A 
ATOM     19  C   UNL     1       2.490  14.694  18.459  0.00  0.00    +0.000 A 
ATOM     20  C   UNL     1       2.933  13.430  18.071  0.00  0.00    +0.000 A 
ATOM     21  C   UNL     1       2.193  12.309  18.424  0.00  0.00    +0.000 A 
ATOM     22  C   UNL     1       1.010  12.470  19.154  0.00  0.00    +0.000 A 
ATOM     23  H   UNL     1      -4.383  10.844  18.802  0.00  0.00    +0.000 HD
ATOM     24  H   UNL     1      -1.244  14.425  20.113  0.00  0.00    +0.000 HD
ENDROOT
BRANCH   1  25
ATOM     25  O   UNL     1       1.080   9.848  18.574  0.00  0.00    +0.000 OA
BRANCH  25  27
ATOM     26  C   UNL     1       2.604   8.125  17.767  0.00  0.00    +0.000 C 
ATOM     27  C   UNL     1       1.762   8.717  18.856  0.00  0.00    +0.000 C 
ATOM     28  O   UNL     1       1.705   8.226  19.969  0.00  0.00    +0.000 OA
ENDBRANCH  25  27
ENDBRANCH   1  25
TORSDOF 2
ENDMDL
