MODEL 1
REMARK VINA RESULT:      -7.5      0.000      0.000
REMARK  Name = 
REMARK  9 active torsions:
REMARK  status: ('A' for Active; 'I' for Inactive)
REMARK    1  A    between atoms: C_1  and  C_2
REMARK    2  A    between atoms: C_4  and  C_5
REMARK    3  A    between atoms: C_7  and  C_8
REMARK    4  A    between atoms: C_15  and  C_16
REMARK    5  A    between atoms: C_19  and  O_20
REMARK    6  A    between atoms: C_25  and  O_26
REMARK    7  A    between atoms: O_26  and  C_27
REMARK    8  A    between atoms: C_27  and  C_28
REMARK    9  A    between atoms: C_28  and  C_29
REMARK                            x       y       z     vdW  Elec       q    Type
REMARK                         _______ _______ _______ _____ _____    ______ ____
ROOT
ATOM      1  C   UNL     1       0.440   9.221  20.138  0.00  0.00    +0.000 A 
ATOM      2  C   UNL     1       0.392   8.267  21.154  0.00  0.00    +0.000 A 
ATOM      3  N   UNL     1       1.127   7.137  21.215  0.00  0.00    +0.000 NA
ATOM      4  C   UNL     1       2.001   6.902  20.238  0.00  0.00    +0.000 A 
ATOM      5  C   UNL     1       2.730   5.732  20.341  0.00  0.00    +0.000 A 
ATOM      6  C   UNL     1       3.664   5.339  19.376  0.00  0.00    +0.000 A 
ATOM      7 CL   UNL     1       4.360   3.770  19.606  0.00  0.00    +0.000 Cl
ATOM      8  C   UNL     1       3.961   6.175  18.291  0.00  0.00    +0.000 A 
ATOM      9  C   UNL     1       3.237   7.390  18.241  0.00  0.00    +0.000 A 
ATOM     10  C   UNL     1       2.194   7.765  19.145  0.00  0.00    +0.000 A 
ATOM     11  C   UNL     1       1.338   8.927  19.080  0.00  0.00    +0.000 A 
ENDROOT
BRANCH   1  18
ATOM     12  C   UNL     1      -3.337  12.072  18.393  0.00  0.00    +0.000 C 
ATOM     13  C   UNL     1      -2.299  11.814  19.446  0.00  0.00    +0.000 A 
ATOM     14  C   UNL     1      -2.128  12.686  20.520  0.00  0.00    +0.000 A 
ATOM     15  C   UNL     1      -1.129  12.455  21.468  0.00  0.00    +0.000 A 
ATOM     16  C   UNL     1      -0.969  13.345  22.664  0.00  0.00    +0.000 C 
ATOM     17  C   UNL     1      -0.277  11.345  21.302  0.00  0.00    +0.000 A 
ATOM     18  C   UNL     1      -0.435  10.424  20.244  0.00  0.00    +0.000 A 
ATOM     19  C   UNL     1      -1.477  10.682  19.341  0.00  0.00    +0.000 A 
ENDBRANCH   1  18
BRANCH   8  20
ATOM     20  C   UNL     1       4.941   5.874  17.207  0.00  0.00    +0.000 A 
ATOM     21  C   UNL     1       6.243   6.425  17.232  0.00  0.00    +0.000 A 
ATOM     22  C   UNL     1       7.186   6.149  16.235  0.00  0.00    +0.000 A 
ATOM     23  C   UNL     1       6.830   5.338  15.168  0.00  0.00    +0.000 A 
ATOM     24  C   UNL     1       5.565   4.775  15.109  0.00  0.00    +0.000 A 
ATOM     25  C   UNL     1       4.642   5.021  16.132  0.00  0.00    +0.000 A 
BRANCH  23  26
ATOM     26  O   UNL     1       7.697   5.070  14.153  0.00  0.00    +0.000 OA
ATOM     27  H   UNL     1       8.518   4.713  14.528  0.00  0.00    +0.000 HD
ENDBRANCH  23  26
ENDBRANCH   8  20
BRANCH  11  28
ATOM     28  O   UNL     1       1.345   9.846  18.039  0.00  0.00    +0.000 OA
BRANCH  28  29
ATOM     29  C   UNL     1       2.423  10.781  17.981  0.00  0.00    +0.000 C 
BRANCH  29  30
ATOM     30  C   UNL     1       2.202  12.003  18.877  0.00  0.00    +0.000 C 
BRANCH  30  31
ATOM     31  C   UNL     1       1.878  13.271  18.042  0.00  0.00    +0.000 C 
ATOM     32  C   UNL     1       0.770  14.129  18.675  0.00  0.00    +0.000 C 
ATOM     33  C   UNL     1       1.256  14.891  19.905  0.00  0.00    +0.000 C 
ATOM     34  C   UNL     1       2.510  15.694  19.577  0.00  0.00    +0.000 C 
ATOM     35  C   UNL     1       3.569  14.840  18.886  0.00  0.00    +0.000 C 
ATOM     36  N   UNL     1       3.031  14.129  17.727  0.00  0.00    +0.000 NA
ATOM     37  H   UNL     1       3.774  13.608  17.270  0.00  0.00    +0.000 HD
ENDBRANCH  30  31
ENDBRANCH  29  30
ENDBRANCH  28  29
ENDBRANCH  11  28
TORSDOF 7
ENDMDL
MODEL 2
REMARK VINA RESULT:      -7.4      0.662      1.016
REMARK  Name = 
REMARK  9 active torsions:
REMARK  status: ('A' for Active; 'I' for Inactive)
REMARK    1  A    between atoms: C_1  and  C_2
REMARK    2  A    between atoms: C_4  and  C_5
REMARK    3  A    between atoms: C_7  and  C_8
REMARK    4  A    between atoms: C_15  and  C_16
REMARK    5  A    between atoms: C_19  and  O_20
REMARK    6  A    between atoms: C_25  and  O_26
REMARK    7  A    between atoms: O_26  and  C_27
REMARK    8  A    between atoms: C_27  and  C_28
REMARK    9  A    between atoms: C_28  and  C_29
REMARK                            x       y       z     vdW  Elec       q    Type
REMARK                         _______ _______ _______ _____ _____    ______ ____
ROOT
ATOM      1  C   UNL     1       0.405   9.380  20.138  0.00  0.00    +0.000 A 
ATOM      2  C   UNL     1       0.300   8.406  21.131  0.00  0.00    +0.000 A 
ATOM      3  N   UNL     1       1.003   7.257  21.191  0.00  0.00    +0.000 NA
ATOM      4  C   UNL     1       1.903   7.019  20.238  0.00  0.00    +0.000 A 
ATOM      5  C   UNL     1       2.598   5.828  20.338  0.00  0.00    +0.000 A 
ATOM      6  C   UNL     1       3.552   5.431  19.396  0.00  0.00    +0.000 A 
ATOM      7 CL   UNL     1       4.200   3.840  19.615  0.00  0.00    +0.000 Cl
ATOM      8  C   UNL     1       3.906   6.282  18.340  0.00  0.00    +0.000 A 
ATOM      9  C   UNL     1       3.214   7.516  18.293  0.00  0.00    +0.000 A 
ATOM     10  C   UNL     1       2.153   7.899  19.170  0.00  0.00    +0.000 A 
ATOM     11  C   UNL     1       1.329   9.084  19.103  0.00  0.00    +0.000 A 
ENDROOT
BRANCH   1  18
ATOM     12  C   UNL     1      -3.437  12.212  18.509  0.00  0.00    +0.000 C 
ATOM     13  C   UNL     1      -2.334  11.988  19.502  0.00  0.00    +0.000 A 
ATOM     14  C   UNL     1      -2.077  12.908  20.517  0.00  0.00    +0.000 A 
ATOM     15  C   UNL     1      -1.020  12.704  21.406  0.00  0.00    +0.000 A 
ATOM     16  C   UNL     1      -0.765  13.648  22.543  0.00  0.00    +0.000 C 
ATOM     17  C   UNL     1      -0.198  11.571  21.239  0.00  0.00    +0.000 A 
ATOM     18  C   UNL     1      -0.442  10.603  20.242  0.00  0.00    +0.000 A 
ATOM     19  C   UNL     1      -1.539  10.836  19.399  0.00  0.00    +0.000 A 
ENDBRANCH   1  18
BRANCH   8  20
ATOM     20  C   UNL     1       4.912   5.978  17.282  0.00  0.00    +0.000 A 
ATOM     21  C   UNL     1       6.215   6.525  17.341  0.00  0.00    +0.000 A 
ATOM     22  C   UNL     1       7.183   6.245  16.368  0.00  0.00    +0.000 A 
ATOM     23  C   UNL     1       6.852   5.437  15.291  0.00  0.00    +0.000 A 
ATOM     24  C   UNL     1       5.588   4.877  15.199  0.00  0.00    +0.000 A 
ATOM     25  C   UNL     1       4.639   5.126  16.199  0.00  0.00    +0.000 A 
BRANCH  23  26
ATOM     26  O   UNL     1       7.744   5.166  14.299  0.00  0.00    +0.000 OA
ATOM     27  H   UNL     1       8.494   5.778  14.377  0.00  0.00    +0.000 HD
ENDBRANCH  23  26
ENDBRANCH   8  20
BRANCH  11  28
ATOM     28  O   UNL     1       1.394  10.024  18.083  0.00  0.00    +0.000 OA
BRANCH  28  29
ATOM     29  C   UNL     1       2.402  11.033  18.167  0.00  0.00    +0.000 C 
BRANCH  29  30
ATOM     30  C   UNL     1       1.827  12.452  18.169  0.00  0.00    +0.000 C 
BRANCH  30  31
ATOM     31  C   UNL     1       2.603  13.378  19.145  0.00  0.00    +0.000 C 
ATOM     32  C   UNL     1       3.742  14.144  18.453  0.00  0.00    +0.000 C 
ATOM     33  C   UNL     1       3.229  15.274  17.565  0.00  0.00    +0.000 C 
ATOM     34  C   UNL     1       2.293  16.188  18.348  0.00  0.00    +0.000 C 
ATOM     35  C   UNL     1       1.211  15.402  19.084  0.00  0.00    +0.000 C 
ATOM     36  N   UNL     1       1.775  14.329  19.902  0.00  0.00    +0.000 NA
ATOM     37  H   UNL     1       1.030  13.859  20.408  0.00  0.00    +0.000 HD
ENDBRANCH  30  31
ENDBRANCH  29  30
ENDBRANCH  28  29
ENDBRANCH  11  28
TORSDOF 7
ENDMDL
MODEL 3
REMARK VINA RESULT:      -7.4      0.276      1.481
REMARK  Name = 
REMARK  9 active torsions:
REMARK  status: ('A' for Active; 'I' for Inactive)
REMARK    1  A    between atoms: C_1  and  C_2
REMARK    2  A    between atoms: C_4  and  C_5
REMARK    3  A    between atoms: C_7  and  C_8
REMARK    4  A    between atoms: C_15  and  C_16
REMARK    5  A    between atoms: C_19  and  O_20
REMARK    6  A    between atoms: C_25  and  O_26
REMARK    7  A    between atoms: O_26  and  C_27
REMARK    8  A    between atoms: C_27  and  C_28
REMARK    9  A    between atoms: C_28  and  C_29
REMARK                            x       y       z     vdW  Elec       q    Type
REMARK                         _______ _______ _______ _____ _____    ______ ____
ROOT
ATOM      1  C   UNL     1       0.568   9.055  20.149  0.00  0.00    +0.000 A 
ATOM      2  C   UNL     1       0.596   8.128  21.191  0.00  0.00    +0.000 A 
ATOM      3  N   UNL     1       1.345   7.007  21.233  0.00  0.00    +0.000 NA
ATOM      4  C   UNL     1       2.154   6.752  20.207  0.00  0.00    +0.000 A 
ATOM      5  C   UNL     1       2.900   5.591  20.292  0.00  0.00    +0.000 A 
ATOM      6  C   UNL     1       3.771   5.179  19.279  0.00  0.00    +0.000 A 
ATOM      7 CL   UNL     1       4.496   3.623  19.504  0.00  0.00    +0.000 Cl
ATOM      8  C   UNL     1       3.988   5.988  18.154  0.00  0.00    +0.000 A 
ATOM      9  C   UNL     1       3.250   7.195  18.120  0.00  0.00    +0.000 A 
ATOM     10  C   UNL     1       2.266   7.586  19.081  0.00  0.00    +0.000 A 
ATOM     11  C   UNL     1       1.396   8.739  19.042  0.00  0.00    +0.000 A 
ENDROOT
BRANCH   1  18
ATOM     12  C   UNL     1      -0.868  13.195  22.646  0.00  0.00    +0.000 C 
ATOM     13  C   UNL     1      -1.007  12.302  21.448  0.00  0.00    +0.000 A 
ATOM     14  C   UNL     1      -1.950  12.565  20.457  0.00  0.00    +0.000 A 
ATOM     15  C   UNL     1      -2.095  11.699  19.370  0.00  0.00    +0.000 A 
ATOM     16  C   UNL     1      -3.060  11.996  18.261  0.00  0.00    +0.000 C 
ATOM     17  C   UNL     1      -1.295  10.540  19.311  0.00  0.00    +0.000 A 
ATOM     18  C   UNL     1      -0.310  10.254  20.280  0.00  0.00    +0.000 A 
ATOM     19  C   UNL     1      -0.179  11.175  21.331  0.00  0.00    +0.000 A 
ENDBRANCH   1  18
BRANCH   8  20
ATOM     20  C   UNL     1       4.897   5.665  17.016  0.00  0.00    +0.000 A 
ATOM     21  C   UNL     1       6.152   6.303  16.887  0.00  0.00    +0.000 A 
ATOM     22  C   UNL     1       7.030   6.009  15.836  0.00  0.00    +0.000 A 
ATOM     23  C   UNL     1       6.650   5.092  14.868  0.00  0.00    +0.000 A 
ATOM     24  C   UNL     1       5.430   4.441  14.962  0.00  0.00    +0.000 A 
ATOM     25  C   UNL     1       4.576   4.708  16.040  0.00  0.00    +0.000 A 
BRANCH  23  26
ATOM     26  O   UNL     1       7.450   4.799  13.806  0.00  0.00    +0.000 OA
ATOM     27  H   UNL     1       7.136   3.977  13.395  0.00  0.00    +0.000 HD
ENDBRANCH  23  26
ENDBRANCH   8  20
BRANCH  11  28
ATOM     28  O   UNL     1       1.325   9.630  17.979  0.00  0.00    +0.000 OA
BRANCH  28  29
ATOM     29  C   UNL     1       2.372  10.593  17.843  0.00  0.00    +0.000 C 
BRANCH  29  30
ATOM     30  C   UNL     1       2.202  11.793  18.780  0.00  0.00    +0.000 C 
BRANCH  30  31
ATOM     31  C   UNL     1       1.966  13.106  17.986  0.00  0.00    +0.000 C 
ATOM     32  C   UNL     1       0.893  14.000  18.629  0.00  0.00    +0.000 C 
ATOM     33  C   UNL     1       1.393  14.690  19.895  0.00  0.00    +0.000 C 
ATOM     34  C   UNL     1       2.695  15.434  19.622  0.00  0.00    +0.000 C 
ATOM     35  C   UNL     1       3.721  14.548  18.920  0.00  0.00    +0.000 C 
ATOM     36  N   UNL     1       3.169  13.910  17.726  0.00  0.00    +0.000 NA
ATOM     37  H   UNL     1       3.893  13.365  17.264  0.00  0.00    +0.000 HD
ENDBRANCH  30  31
ENDBRANCH  29  30
ENDBRANCH  28  29
ENDBRANCH  11  28
TORSDOF 7
ENDMDL
MODEL 4
REMARK VINA RESULT:      -7.3      0.643      1.940
REMARK  Name = 
REMARK  9 active torsions:
REMARK  status: ('A' for Active; 'I' for Inactive)
REMARK    1  A    between atoms: C_1  and  C_2
REMARK    2  A    between atoms: C_4  and  C_5
REMARK    3  A    between atoms: C_7  and  C_8
REMARK    4  A    between atoms: C_15  and  C_16
REMARK    5  A    between atoms: C_19  and  O_20
REMARK    6  A    between atoms: C_25  and  O_26
REMARK    7  A    between atoms: O_26  and  C_27
REMARK    8  A    between atoms: C_27  and  C_28
REMARK    9  A    between atoms: C_28  and  C_29
REMARK                            x       y       z     vdW  Elec       q    Type
REMARK                         _______ _______ _______ _____ _____    ______ ____
ROOT
ATOM      1  C   UNL     1       0.472   9.148  20.177  0.00  0.00    +0.000 A 
ATOM      2  C   UNL     1       0.406   8.155  21.155  0.00  0.00    +0.000 A 
ATOM      3  N   UNL     1       1.136   7.022  21.183  0.00  0.00    +0.000 NA
ATOM      4  C   UNL     1       2.024   6.820  20.211  0.00  0.00    +0.000 A 
ATOM      5  C   UNL     1       2.748   5.645  20.279  0.00  0.00    +0.000 A 
ATOM      6  C   UNL     1       3.694   5.286  19.314  0.00  0.00    +0.000 A 
ATOM      7 CL   UNL     1       4.382   3.706  19.494  0.00  0.00    +0.000 Cl
ATOM      8  C   UNL     1       4.010   6.161  18.267  0.00  0.00    +0.000 A 
ATOM      9  C   UNL     1       3.291   7.380  18.253  0.00  0.00    +0.000 A 
ATOM     10  C   UNL     1       2.236   7.724  19.154  0.00  0.00    +0.000 A 
ATOM     11  C   UNL     1       1.385   8.891  19.122  0.00  0.00    +0.000 A 
ENDROOT
BRANCH   1  18
ATOM     12  C   UNL     1      -0.893  13.321  22.658  0.00  0.00    +0.000 C 
ATOM     13  C   UNL     1      -1.064  12.413  21.475  0.00  0.00    +0.000 A 
ATOM     14  C   UNL     1      -2.033  12.664  20.506  0.00  0.00    +0.000 A 
ATOM     15  C   UNL     1      -2.207  11.785  19.434  0.00  0.00    +0.000 A 
ATOM     16  C   UNL     1      -3.200  12.069  18.347  0.00  0.00    +0.000 C 
ATOM     17  C   UNL     1      -1.410  10.625  19.369  0.00  0.00    +0.000 A 
ATOM     18  C   UNL     1      -0.400  10.349  20.316  0.00  0.00    +0.000 A 
ATOM     19  C   UNL     1      -0.241  11.283  21.351  0.00  0.00    +0.000 A 
ENDBRANCH   1  18
BRANCH   8  20
ATOM     20  C   UNL     1       5.005   5.899  17.187  0.00  0.00    +0.000 A 
ATOM     21  C   UNL     1       4.704   5.021  16.120  0.00  0.00    +0.000 A 
ATOM     22  C   UNL     1       5.614   4.767  15.086  0.00  0.00    +0.000 A 
ATOM     23  C   UNL     1       6.866   5.362  15.121  0.00  0.00    +0.000 A 
ATOM     24  C   UNL     1       7.198   6.233  16.147  0.00  0.00    +0.000 A 
ATOM     25  C   UNL     1       6.267   6.516  17.153  0.00  0.00    +0.000 A 
BRANCH  23  26
ATOM     26  O   UNL     1       7.801   5.118  14.162  0.00  0.00    +0.000 OA
ATOM     27  H   UNL     1       7.524   4.345  13.644  0.00  0.00    +0.000 HD
ENDBRANCH  23  26
ENDBRANCH   8  20
BRANCH  11  28
ATOM     28  O   UNL     1       1.410   9.849  18.118  0.00  0.00    +0.000 OA
BRANCH  28  29
ATOM     29  C   UNL     1       2.394  10.881  18.204  0.00  0.00    +0.000 C 
BRANCH  29  30
ATOM     30  C   UNL     1       1.786  12.287  18.191  0.00  0.00    +0.000 C 
BRANCH  30  31
ATOM     31  C   UNL     1       2.491  13.221  19.212  0.00  0.00    +0.000 C 
ATOM     32  C   UNL     1       3.626  14.041  18.577  0.00  0.00    +0.000 C 
ATOM     33  C   UNL     1       3.104  15.169  17.691  0.00  0.00    +0.000 C 
ATOM     34  C   UNL     1       2.108  16.033  18.456  0.00  0.00    +0.000 C 
ATOM     35  C   UNL     1       1.030  15.194  19.136  0.00  0.00    +0.000 C 
ATOM     36  N   UNL     1       1.601  14.126  19.955  0.00  0.00    +0.000 NA
ATOM     37  H   UNL     1       0.856  13.619  20.424  0.00  0.00    +0.000 HD
ENDBRANCH  30  31
ENDBRANCH  29  30
ENDBRANCH  28  29
ENDBRANCH  11  28
TORSDOF 7
ENDMDL
MODEL 5
REMARK VINA RESULT:      -7.1      2.051      3.552
REMARK  Name = 
REMARK  9 active torsions:
REMARK  status: ('A' for Active; 'I' for Inactive)
REMARK    1  A    between atoms: C_1  and  C_2
REMARK    2  A    between atoms: C_4  and  C_5
REMARK    3  A    between atoms: C_7  and  C_8
REMARK    4  A    between atoms: C_15  and  C_16
REMARK    5  A    between atoms: C_19  and  O_20
REMARK    6  A    between atoms: C_25  and  O_26
REMARK    7  A    between atoms: O_26  and  C_27
REMARK    8  A    between atoms: C_27  and  C_28
REMARK    9  A    between atoms: C_28  and  C_29
REMARK                            x       y       z     vdW  Elec       q    Type
REMARK                         _______ _______ _______ _____ _____    ______ ____
ROOT
ATOM      1  C   UNL     1       0.364   9.934  20.934  0.00  0.00    +0.000 A 
ATOM      2  C   UNL     1       0.185   8.992  21.946  0.00  0.00    +0.000 A 
ATOM      3  N   UNL     1       0.659   7.730  21.947  0.00  0.00    +0.000 NA
ATOM      4  C   UNL     1       1.387   7.330  20.906  0.00  0.00    +0.000 A 
ATOM      5  C   UNL     1       1.850   6.028  20.947  0.00  0.00    +0.000 A 
ATOM      6  C   UNL     1       2.603   5.463  19.913  0.00  0.00    +0.000 A 
ATOM      7 CL   UNL     1       2.956   3.776  20.083  0.00  0.00    +0.000 Cl
ATOM      8  C   UNL     1       2.994   6.237  18.812  0.00  0.00    +0.000 A 
ATOM      9  C   UNL     1       2.549   7.581  18.822  0.00  0.00    +0.000 A 
ATOM     10  C   UNL     1       1.682   8.154  19.804  0.00  0.00    +0.000 A 
ATOM     11  C   UNL     1       1.097   9.475  19.809  0.00  0.00    +0.000 A 
ENDROOT
BRANCH   1  18
ATOM     12  C   UNL     1       0.931  14.896  21.635  0.00  0.00    +0.000 C 
ATOM     13  C   UNL     1       0.021  13.724  21.409  0.00  0.00    +0.000 A 
ATOM     14  C   UNL     1      -1.363  13.881  21.370  0.00  0.00    +0.000 A 
ATOM     15  C   UNL     1      -2.196  12.773  21.201  0.00  0.00    +0.000 A 
ATOM     16  C   UNL     1      -3.684  12.926  21.095  0.00  0.00    +0.000 C 
ATOM     17  C   UNL     1      -1.615  11.493  21.104  0.00  0.00    +0.000 A 
ATOM     18  C   UNL     1      -0.218  11.296  21.111  0.00  0.00    +0.000 A 
ATOM     19  C   UNL     1       0.575  12.445  21.245  0.00  0.00    +0.000 A 
ENDBRANCH   1  18
BRANCH   8  20
ATOM     20  C   UNL     1       3.803   5.753  17.656  0.00  0.00    +0.000 A 
ATOM     21  C   UNL     1       4.558   6.655  16.871  0.00  0.00    +0.000 A 
ATOM     22  C   UNL     1       5.336   6.226  15.788  0.00  0.00    +0.000 A 
ATOM     23  C   UNL     1       5.345   4.882  15.447  0.00  0.00    +0.000 A 
ATOM     24  C   UNL     1       4.622   3.966  16.194  0.00  0.00    +0.000 A 
ATOM     25  C   UNL     1       3.881   4.396  17.302  0.00  0.00    +0.000 A 
BRANCH  23  26
ATOM     26  O   UNL     1       6.054   4.419  14.380  0.00  0.00    +0.000 OA
ATOM     27  H   UNL     1       6.069   3.449  14.412  0.00  0.00    +0.000 HD
ENDBRANCH  23  26
ENDBRANCH   8  20
BRANCH  11  28
ATOM     28  O   UNL     1       1.227  10.391  18.775  0.00  0.00    +0.000 OA
BRANCH  28  29
ATOM     29  C   UNL     1       0.445  10.186  17.598  0.00  0.00    +0.000 C 
BRANCH  29  30
ATOM     30  C   UNL     1      -0.970  10.761  17.714  0.00  0.00    +0.000 C 
BRANCH  30  31
ATOM     31  C   UNL     1      -2.032   9.780  17.147  0.00  0.00    +0.000 C 
ATOM     32  C   UNL     1      -3.292   9.702  18.024  0.00  0.00    +0.000 C 
ATOM     33  C   UNL     1      -4.168  10.946  17.897  0.00  0.00    +0.000 C 
ATOM     34  C   UNL     1      -4.483  11.231  16.433  0.00  0.00    +0.000 C 
ATOM     35  C   UNL     1      -3.226  11.235  15.568  0.00  0.00    +0.000 C 
ATOM     36  N   UNL     1      -2.431  10.022  15.752  0.00  0.00    +0.000 NA
ATOM     37  H   UNL     1      -1.627  10.042  15.130  0.00  0.00    +0.000 HD
ENDBRANCH  30  31
ENDBRANCH  29  30
ENDBRANCH  28  29
ENDBRANCH  11  28
TORSDOF 7
ENDMDL
MODEL 6
REMARK VINA RESULT:      -7.1      0.968      1.266
REMARK  Name = 
REMARK  9 active torsions:
REMARK  status: ('A' for Active; 'I' for Inactive)
REMARK    1  A    between atoms: C_1  and  C_2
REMARK    2  A    between atoms: C_4  and  C_5
REMARK    3  A    between atoms: C_7  and  C_8
REMARK    4  A    between atoms: C_15  and  C_16
REMARK    5  A    between atoms: C_19  and  O_20
REMARK    6  A    between atoms: C_25  and  O_26
REMARK    7  A    between atoms: O_26  and  C_27
REMARK    8  A    between atoms: C_27  and  C_28
REMARK    9  A    between atoms: C_28  and  C_29
REMARK                            x       y       z     vdW  Elec       q    Type
REMARK                         _______ _______ _______ _____ _____    ______ ____
ROOT
ATOM      1  C   UNL     1       0.094   9.935  20.592  0.00  0.00    +0.000 A 
ATOM      2  C   UNL     1       0.032   9.031  21.652  0.00  0.00    +0.000 A 
ATOM      3  N   UNL     1       0.648   7.832  21.706  0.00  0.00    +0.000 NA
ATOM      4  C   UNL     1       1.406   7.466  20.675  0.00  0.00    +0.000 A 
ATOM      5  C   UNL     1       2.015   6.228  20.773  0.00  0.00    +0.000 A 
ATOM      6  C   UNL     1       2.817   5.701  19.756  0.00  0.00    +0.000 A 
ATOM      7 CL   UNL     1       3.361   4.075  20.003  0.00  0.00    +0.000 Cl
ATOM      8  C   UNL     1       3.107   6.458  18.613  0.00  0.00    +0.000 A 
ATOM      9  C   UNL     1       2.513   7.742  18.565  0.00  0.00    +0.000 A 
ATOM     10  C   UNL     1       1.596   8.261  19.530  0.00  0.00    +0.000 A 
ATOM     11  C   UNL     1       0.863   9.506  19.480  0.00  0.00    +0.000 A 
ENDROOT
BRANCH   1  18
ATOM     12  C   UNL     1      -3.930  12.811  19.611  0.00  0.00    +0.000 C 
ATOM     13  C   UNL     1      -2.602  12.645  20.289  0.00  0.00    +0.000 A 
ATOM     14  C   UNL     1      -2.031  13.683  21.023  0.00  0.00    +0.000 A 
ATOM     15  C   UNL     1      -0.775  13.525  21.612  0.00  0.00    +0.000 A 
ATOM     16  C   UNL     1      -0.170  14.606  22.458  0.00  0.00    +0.000 C 
ATOM     17  C   UNL     1      -0.082  12.313  21.424  0.00  0.00    +0.000 A 
ATOM     18  C   UNL     1      -0.637  11.229  20.712  0.00  0.00    +0.000 A 
ATOM     19  C   UNL     1      -1.918  11.426  20.172  0.00  0.00    +0.000 A 
ENDBRANCH   1  18
BRANCH   8  20
ATOM     20  C   UNL     1       3.955   6.012  17.469  0.00  0.00    +0.000 A 
ATOM     21  C   UNL     1       4.041   4.644  17.119  0.00  0.00    +0.000 A 
ATOM     22  C   UNL     1       4.818   4.200  16.043  0.00  0.00    +0.000 A 
ATOM     23  C   UNL     1       5.558   5.118  15.314  0.00  0.00    +0.000 A 
ATOM     24  C   UNL     1       5.498   6.468  15.622  0.00  0.00    +0.000 A 
ATOM     25  C   UNL     1       4.684   6.910  16.672  0.00  0.00    +0.000 A 
BRANCH  23  26
ATOM     26  O   UNL     1       6.360   4.734  14.283  0.00  0.00    +0.000 OA
ATOM     27  H   UNL     1       5.806   4.554  13.505  0.00  0.00    +0.000 HD
ENDBRANCH  23  26
ENDBRANCH   8  20
BRANCH  11  28
ATOM     28  O   UNL     1       0.879  10.379  18.401  0.00  0.00    +0.000 OA
BRANCH  28  29
ATOM     29  C   UNL     1       2.092  11.082  18.127  0.00  0.00    +0.000 C 
BRANCH  29  30
ATOM     30  C   UNL     1       2.238  12.363  18.954  0.00  0.00    +0.000 C 
BRANCH  30  31
ATOM     31  C   UNL     1       2.100  13.631  18.069  0.00  0.00    +0.000 C 
ATOM     32  C   UNL     1       1.349  14.769  18.779  0.00  0.00    +0.000 C 
ATOM     33  C   UNL     1       2.197  15.442  19.857  0.00  0.00    +0.000 C 
ATOM     34  C   UNL     1       3.538  15.886  19.283  0.00  0.00    +0.000 C 
ATOM     35  C   UNL     1       4.234  14.760  18.522  0.00  0.00    +0.000 C 
ATOM     36  N   UNL     1       3.359  14.155  17.518  0.00  0.00    +0.000 NA
ATOM     37  H   UNL     1       3.870  13.442  17.005  0.00  0.00    +0.000 HD
ENDBRANCH  30  31
ENDBRANCH  29  30
ENDBRANCH  28  29
ENDBRANCH  11  28
TORSDOF 7
ENDMDL
MODEL 7
REMARK VINA RESULT:      -7.1      2.119      3.478
REMARK  Name = 
REMARK  9 active torsions:
REMARK  status: ('A' for Active; 'I' for Inactive)
REMARK    1  A    between atoms: C_1  and  C_2
REMARK    2  A    between atoms: C_4  and  C_5
REMARK    3  A    between atoms: C_7  and  C_8
REMARK    4  A    between atoms: C_15  and  C_16
REMARK    5  A    between atoms: C_19  and  O_20
REMARK    6  A    between atoms: C_25  and  O_26
REMARK    7  A    between atoms: O_26  and  C_27
REMARK    8  A    between atoms: C_27  and  C_28
REMARK    9  A    between atoms: C_28  and  C_29
REMARK                            x       y       z     vdW  Elec       q    Type
REMARK                         _______ _______ _______ _____ _____    ______ ____
ROOT
ATOM      1  C   UNL     1       0.177  10.101  20.969  0.00  0.00    +0.000 A 
ATOM      2  C   UNL     1      -0.027   9.161  21.980  0.00  0.00    +0.000 A 
ATOM      3  N   UNL     1       0.450   7.900  21.997  0.00  0.00    +0.000 NA
ATOM      4  C   UNL     1       1.207   7.500  20.977  0.00  0.00    +0.000 A 
ATOM      5  C   UNL     1       1.672   6.199  21.036  0.00  0.00    +0.000 A 
ATOM      6  C   UNL     1       2.453   5.632  20.024  0.00  0.00    +0.000 A 
ATOM      7 CL   UNL     1       2.806   3.947  20.209  0.00  0.00    +0.000 Cl
ATOM      8  C   UNL     1       2.872   6.403  18.931  0.00  0.00    +0.000 A 
ATOM      9  C   UNL     1       2.424   7.746  18.925  0.00  0.00    +0.000 A 
ATOM     10  C   UNL     1       1.529   8.320  19.881  0.00  0.00    +0.000 A 
ATOM     11  C   UNL     1       0.940   9.639  19.866  0.00  0.00    +0.000 A 
ENDROOT
BRANCH   1  18
ATOM     12  C   UNL     1      -3.821  13.174  21.018  0.00  0.00    +0.000 C 
ATOM     13  C   UNL     1      -2.344  12.981  21.200  0.00  0.00    +0.000 A 
ATOM     14  C   UNL     1      -1.508  14.054  21.503  0.00  0.00    +0.000 A 
ATOM     15  C   UNL     1      -0.130  13.863  21.627  0.00  0.00    +0.000 A 
ATOM     16  C   UNL     1       0.780  14.991  22.014  0.00  0.00    +0.000 C 
ATOM     17  C   UNL     1       0.403  12.577  21.408  0.00  0.00    +0.000 A 
ATOM     18  C   UNL     1      -0.413  11.461  21.126  0.00  0.00    +0.000 A 
ATOM     19  C   UNL     1      -1.794  11.699  21.050  0.00  0.00    +0.000 A 
ENDBRANCH   1  18
BRANCH   8  20
ATOM     20  C   UNL     1       3.713   5.918  17.799  0.00  0.00    +0.000 A 
ATOM     21  C   UNL     1       3.748   4.546  17.457  0.00  0.00    +0.000 A 
ATOM     22  C   UNL     1       4.519   4.066  16.390  0.00  0.00    +0.000 A 
ATOM     23  C   UNL     1       5.301   4.950  15.664  0.00  0.00    +0.000 A 
ATOM     24  C   UNL     1       5.291   6.303  15.964  0.00  0.00    +0.000 A 
ATOM     25  C   UNL     1       4.484   6.782  17.004  0.00  0.00    +0.000 A 
BRANCH  23  26
ATOM     26  O   UNL     1       6.097   4.529  14.643  0.00  0.00    +0.000 OA
ATOM     27  H   UNL     1       6.834   5.154  14.541  0.00  0.00    +0.000 HD
ENDBRANCH  23  26
ENDBRANCH   8  20
BRANCH  11  28
ATOM     28  O   UNL     1       1.096  10.553  18.833  0.00  0.00    +0.000 OA
BRANCH  28  29
ATOM     29  C   UNL     1       0.360  10.331  17.628  0.00  0.00    +0.000 C 
BRANCH  29  30
ATOM     30  C   UNL     1      -1.052  10.922  17.675  0.00  0.00    +0.000 C 
BRANCH  30  31
ATOM     31  C   UNL     1      -2.119   9.881  17.241  0.00  0.00    +0.000 C 
ATOM     32  C   UNL     1      -3.380   9.927  18.120  0.00  0.00    +0.000 C 
ATOM     33  C   UNL     1      -4.248  11.149  17.828  0.00  0.00    +0.000 C 
ATOM     34  C   UNL     1      -4.562  11.240  16.339  0.00  0.00    +0.000 C 
ATOM     35  C   UNL     1      -3.304  11.122  15.483  0.00  0.00    +0.000 C 
ATOM     36  N   UNL     1      -2.516   9.939  15.826  0.00  0.00    +0.000 NA
ATOM     37  H   UNL     1      -1.713   9.872  15.208  0.00  0.00    +0.000 HD
ENDBRANCH  30  31
ENDBRANCH  29  30
ENDBRANCH  28  29
ENDBRANCH  11  28
TORSDOF 7
ENDMDL
MODEL 8
REMARK VINA RESULT:      -7.1      1.829      3.418
REMARK  Name = 
REMARK  9 active torsions:
REMARK  status: ('A' for Active; 'I' for Inactive)
REMARK    1  A    between atoms: C_1  and  C_2
REMARK    2  A    between atoms: C_4  and  C_5
REMARK    3  A    between atoms: C_7  and  C_8
REMARK    4  A    between atoms: C_15  and  C_16
REMARK    5  A    between atoms: C_19  and  O_20
REMARK    6  A    between atoms: C_25  and  O_26
REMARK    7  A    between atoms: O_26  and  C_27
REMARK    8  A    between atoms: C_27  and  C_28
REMARK    9  A    between atoms: C_28  and  C_29
REMARK                            x       y       z     vdW  Elec       q    Type
REMARK                         _______ _______ _______ _____ _____    ______ ____
ROOT
ATOM      1  C   UNL     1       0.301   9.933  20.874  0.00  0.00    +0.000 A 
ATOM      2  C   UNL     1       0.185   9.009  21.912  0.00  0.00    +0.000 A 
ATOM      3  N   UNL     1       0.712   7.768  21.931  0.00  0.00    +0.000 NA
ATOM      4  C   UNL     1       1.432   7.374  20.882  0.00  0.00    +0.000 A 
ATOM      5  C   UNL     1       1.950   6.094  20.943  0.00  0.00    +0.000 A 
ATOM      6  C   UNL     1       2.701   5.535  19.904  0.00  0.00    +0.000 A 
ATOM      7 CL   UNL     1       3.129   3.869  20.105  0.00  0.00    +0.000 Cl
ATOM      8  C   UNL     1       3.033   6.296  18.776  0.00  0.00    +0.000 A 
ATOM      9  C   UNL     1       2.532   7.621  18.765  0.00  0.00    +0.000 A 
ATOM     10  C   UNL     1       1.665   8.181  19.754  0.00  0.00    +0.000 A 
ATOM     11  C   UNL     1       1.025   9.476  19.743  0.00  0.00    +0.000 A 
ENDROOT
BRANCH   1  18
ATOM     12  C   UNL     1       0.346  14.926  20.168  0.00  0.00    +0.000 C 
ATOM     13  C   UNL     1      -0.366  13.703  20.668  0.00  0.00    +0.000 A 
ATOM     14  C   UNL     1      -1.610  13.796  21.289  0.00  0.00    +0.000 A 
ATOM     15  C   UNL     1      -2.239  12.653  21.787  0.00  0.00    +0.000 A 
ATOM     16  C   UNL     1      -3.605  12.721  22.403  0.00  0.00    +0.000 C 
ATOM     17  C   UNL     1      -1.581  11.411  21.679  0.00  0.00    +0.000 A 
ATOM     18  C   UNL     1      -0.335  11.272  21.033  0.00  0.00    +0.000 A 
ATOM     19  C   UNL     1       0.237  12.445  20.517  0.00  0.00    +0.000 A 
ENDBRANCH   1  18
BRANCH   8  20
ATOM     20  C   UNL     1       3.834   5.819  17.611  0.00  0.00    +0.000 A 
ATOM     21  C   UNL     1       3.888   4.444  17.282  0.00  0.00    +0.000 A 
ATOM     22  C   UNL     1       4.621   3.970  16.187  0.00  0.00    +0.000 A 
ATOM     23  C   UNL     1       5.348   4.865  15.417  0.00  0.00    +0.000 A 
ATOM     24  C   UNL     1       5.317   6.221  15.704  0.00  0.00    +0.000 A 
ATOM     25  C   UNL     1       4.547   6.692  16.774  0.00  0.00    +0.000 A 
BRANCH  23  26
ATOM     26  O   UNL     1       6.108   4.451  14.366  0.00  0.00    +0.000 OA
ATOM     27  H   UNL     1       6.860   3.940  14.705  0.00  0.00    +0.000 HD
ENDBRANCH  23  26
ENDBRANCH   8  20
BRANCH  11  28
ATOM     28  O   UNL     1       1.091  10.372  18.684  0.00  0.00    +0.000 OA
BRANCH  28  29
ATOM     29  C   UNL     1       0.280  10.112  17.537  0.00  0.00    +0.000 C 
BRANCH  29  30
ATOM     30  C   UNL     1      -1.220  10.199  17.835  0.00  0.00    +0.000 C 
BRANCH  30  31
ATOM     31  C   UNL     1      -1.855  11.461  17.193  0.00  0.00    +0.000 C 
ATOM     32  C   UNL     1      -2.691  11.132  15.945  0.00  0.00    +0.000 C 
ATOM     33  C   UNL     1      -4.020  10.467  16.294  0.00  0.00    +0.000 C 
ATOM     34  C   UNL     1      -4.786  11.302  17.314  0.00  0.00    +0.000 C 
ATOM     35  C   UNL     1      -3.917  11.677  18.512  0.00  0.00    +0.000 C 
ATOM     36  N   UNL     1      -2.656  12.295  18.102  0.00  0.00    +0.000 NA
ATOM     37  H   UNL     1      -2.127  12.568  18.926  0.00  0.00    +0.000 HD
ENDBRANCH  30  31
ENDBRANCH  29  30
ENDBRANCH  28  29
ENDBRANCH  11  28
TORSDOF 7
ENDMDL
MODEL 9
REMARK VINA RESULT:      -7.0      1.651      3.096
REMARK  Name = 
REMARK  9 active torsions:
REMARK  status: ('A' for Active; 'I' for Inactive)
REMARK    1  A    between atoms: C_1  and  C_2
REMARK    2  A    between atoms: C_4  and  C_5
REMARK    3  A    between atoms: C_7  and  C_8
REMARK    4  A    between atoms: C_15  and  C_16
REMARK    5  A    between atoms: C_19  and  O_20
REMARK    6  A    between atoms: C_25  and  O_26
REMARK    7  A    between atoms: O_26  and  C_27
REMARK    8  A    between atoms: C_27  and  C_28
REMARK    9  A    between atoms: C_28  and  C_29
REMARK                            x       y       z     vdW  Elec       q    Type
REMARK                         _______ _______ _______ _____ _____    ______ ____
ROOT
ATOM      1  C   UNL     1       0.682   9.419  20.903  0.00  0.00    +0.000 A 
ATOM      2  C   UNL     1       0.448   8.374  21.796  0.00  0.00    +0.000 A 
ATOM      3  N   UNL     1       0.891   7.107  21.666  0.00  0.00    +0.000 NA
ATOM      4  C   UNL     1       1.641   6.808  20.606  0.00  0.00    +0.000 A 
ATOM      5  C   UNL     1       2.070   5.497  20.512  0.00  0.00    +0.000 A 
ATOM      6  C   UNL     1       2.839   5.031  19.441  0.00  0.00    +0.000 A 
ATOM      7 CL   UNL     1       3.145   3.327  19.428  0.00  0.00    +0.000 Cl
ATOM      8  C   UNL     1       3.283   5.913  18.447  0.00  0.00    +0.000 A 
ATOM      9  C   UNL     1       2.872   7.259  18.598  0.00  0.00    +0.000 A 
ATOM     10  C   UNL     1       1.989   7.741  19.614  0.00  0.00    +0.000 A 
ATOM     11  C   UNL     1       1.437   9.069  19.754  0.00  0.00    +0.000 A 
ENDROOT
BRANCH   1  18
ATOM     12  C   UNL     1      -2.830  12.333  23.049  0.00  0.00    +0.000 C 
ATOM     13  C   UNL     1      -1.542  12.219  22.288  0.00  0.00    +0.000 A 
ATOM     14  C   UNL     1      -0.854  13.353  21.858  0.00  0.00    +0.000 A 
ATOM     15  C   UNL     1       0.321  13.228  21.114  0.00  0.00    +0.000 A 
ATOM     16  C   UNL     1       1.109  14.433  20.695  0.00  0.00    +0.000 C 
ATOM     17  C   UNL     1       0.781  11.940  20.778  0.00  0.00    +0.000 A 
ATOM     18  C   UNL     1       0.128  10.768  21.217  0.00  0.00    +0.000 A 
ATOM     19  C   UNL     1      -1.026  10.948  21.994  0.00  0.00    +0.000 A 
ENDBRANCH   1  18
BRANCH   8  20
ATOM     20  C   UNL     1       4.114   5.541  17.266  0.00  0.00    +0.000 A 
ATOM     21  C   UNL     1       4.712   6.535  16.456  0.00  0.00    +0.000 A 
ATOM     22  C   UNL     1       5.507   6.213  15.349  0.00  0.00    +0.000 A 
ATOM     23  C   UNL     1       5.692   4.882  15.009  0.00  0.00    +0.000 A 
ATOM     24  C   UNL     1       5.128   3.878  15.780  0.00  0.00    +0.000 A 
ATOM     25  C   UNL     1       4.370   4.206  16.910  0.00  0.00    +0.000 A 
BRANCH  23  26
ATOM     26  O   UNL     1       6.425   4.517  13.921  0.00  0.00    +0.000 OA
ATOM     27  H   UNL     1       6.905   3.698  14.127  0.00  0.00    +0.000 HD
ENDBRANCH  23  26
ENDBRANCH   8  20
BRANCH  11  28
ATOM     28  O   UNL     1       1.621  10.093  18.834  0.00  0.00    +0.000 OA
BRANCH  28  29
ATOM     29  C   UNL     1       0.850  10.058  17.632  0.00  0.00    +0.000 C 
BRANCH  29  30
ATOM     30  C   UNL     1      -0.645   9.850  17.889  0.00  0.00    +0.000 C 
BRANCH  30  31
ATOM     31  C   UNL     1      -1.510  10.793  17.009  0.00  0.00    +0.000 C 
ATOM     32  C   UNL     1      -2.848  10.156  16.599  0.00  0.00    +0.000 C 
ATOM     33  C   UNL     1      -3.842  10.093  17.757  0.00  0.00    +0.000 C 
ATOM     34  C   UNL     1      -4.012  11.468  18.391  0.00  0.00    +0.000 C 
ATOM     35  C   UNL     1      -2.669  12.113  18.726  0.00  0.00    +0.000 C 
ATOM     36  N   UNL     1      -1.766  12.125  17.576  0.00  0.00    +0.000 NA
ATOM     37  H   UNL     1      -0.902  12.599  17.826  0.00  0.00    +0.000 HD
ENDBRANCH  30  31
ENDBRANCH  29  30
ENDBRANCH  28  29
ENDBRANCH  11  28
TORSDOF 7
ENDMDL
