MODEL 1
REMARK VINA RESULT:      -7.9      0.000      0.000
REMARK  Name = 
REMARK  8 active torsions:
REMARK  status: ('A' for Active; 'I' for Inactive)
REMARK    1  A    between atoms: C_1  and  N_2
REMARK    2  A    between atoms: C_6  and  C_7
REMARK    3  A    between atoms: C_7  and  N_8
REMARK    4  A    between atoms: C_9  and  C_11
REMARK    5  A    between atoms: C_11  and  C_12
REMARK    6  A    between atoms: C_12  and  N_13
REMARK    7  A    between atoms: C_15  and  C_16
REMARK    8  A    between atoms: C_22  and  C_23
REMARK                            x       y       z     vdW  Elec       q    Type
REMARK                         _______ _______ _______ _____ _____    ______ ____
ROOT
ATOM      1  C   UNL     1       7.667   4.956  18.028  0.00  0.00    +0.000 C 
ENDROOT
BRANCH   1   2
ATOM      2  N   UNL     1       6.316   4.422  17.979  0.00  0.00    +0.000 N 
ATOM      3  N   UNL     1       5.818   3.979  19.161  0.00  0.00    +0.000 NA
ATOM      4  C   UNL     1       4.560   3.590  18.884  0.00  0.00    +0.000 A 
ATOM      5  C   UNL     1       4.260   3.811  17.525  0.00  0.00    +0.000 A 
ATOM      6 CL   UNL     1       2.774   3.439  16.778  0.00  0.00    +0.000 Cl
ATOM      7  C   UNL     1       5.393   4.368  16.958  0.00  0.00    +0.000 A 
BRANCH   4   8
ATOM      8  C   UNL     1       3.637   3.003  19.909  0.00  0.00    +0.000 C 
ATOM      9  F   UNL     1       2.925   3.942  20.591  0.00  0.00    +0.000 F 
ATOM     10  F   UNL     1       2.724   2.161  19.353  0.00  0.00    +0.000 F 
ATOM     11  F   UNL     1       4.313   2.282  20.845  0.00  0.00    +0.000 F 
ENDBRANCH   4   8
BRANCH   7  12
ATOM     12  C   UNL     1       5.431   4.777  15.482  0.00  0.00    +0.000 C 
ATOM     13  C   UNL     1       6.709   4.905  14.697  0.00  0.00    +0.000 C 
ATOM     14  C   UNL     1       5.780   3.774  14.412  0.00  0.00    +0.000 C 
ENDBRANCH   7  12
ENDBRANCH   1   2
BRANCH   1  15
ATOM     15  C   UNL     1       7.793   6.217  18.891  0.00  0.00    +0.000 C 
BRANCH  15  17
ATOM     16  N   UNL     1       8.452   8.543  18.651  0.00  0.00    +0.000 N 
ATOM     17  C   UNL     1       7.851   7.466  18.037  0.00  0.00    +0.000 C 
ATOM     18  O   UNL     1       7.339   7.534  16.927  0.00  0.00    +0.000 OA
ATOM     19  H   UNL     1       9.074   8.364  19.430  0.00  0.00    +0.000 HD
BRANCH  16  20
ATOM     20  C   UNL     1       8.663   9.762  17.909  0.00  0.00    +0.000 C 
BRANCH  20  26
ATOM     21  C   UNL     1       8.369  12.824  17.561  0.00  0.00    +0.000 C 
ATOM     22  N   UNL     1       9.065  12.147  18.632  0.00  0.00    +0.000 N 
ATOM     23  N   UNL     1       9.683  12.883  19.575  0.00  0.00    +0.000 NA
ATOM     24  C   UNL     1      10.239  11.980  20.380  0.00  0.00    +0.000 A 
ATOM     25  C   UNL     1       9.968  10.666  19.970  0.00  0.00    +0.000 A 
ATOM     26  C   UNL     1       9.204  10.793  18.825  0.00  0.00    +0.000 A 
ENDBRANCH  20  26
ENDBRANCH  16  20
ENDBRANCH  15  17
ENDBRANCH   1  15
TORSDOF 7
ENDMDL
MODEL 2
REMARK VINA RESULT:      -7.6      5.945      7.084
REMARK  Name = 
REMARK  8 active torsions:
REMARK  status: ('A' for Active; 'I' for Inactive)
REMARK    1  A    between atoms: C_1  and  N_2
REMARK    2  A    between atoms: C_6  and  C_7
REMARK    3  A    between atoms: C_7  and  N_8
REMARK    4  A    between atoms: C_9  and  C_11
REMARK    5  A    between atoms: C_11  and  C_12
REMARK    6  A    between atoms: C_12  and  N_13
REMARK    7  A    between atoms: C_15  and  C_16
REMARK    8  A    between atoms: C_22  and  C_23
REMARK                            x       y       z     vdW  Elec       q    Type
REMARK                         _______ _______ _______ _____ _____    ______ ____
ROOT
ATOM      1  C   UNL     1       2.373   7.402  18.710  0.00  0.00    +0.000 C 
ENDROOT
BRANCH   1   2
ATOM      2  N   UNL     1       2.946   6.169  18.195  0.00  0.00    +0.000 N 
ATOM      3  N   UNL     1       4.064   6.314  17.440  0.00  0.00    +0.000 NA
ATOM      4  C   UNL     1       4.436   5.060  17.127  0.00  0.00    +0.000 A 
ATOM      5  C   UNL     1       3.560   4.122  17.708  0.00  0.00    +0.000 A 
ATOM      6 CL   UNL     1       3.683   2.431  17.537  0.00  0.00    +0.000 Cl
ATOM      7  C   UNL     1       2.615   4.849  18.411  0.00  0.00    +0.000 A 
BRANCH   4   8
ATOM      8  C   UNL     1       5.627   4.745  16.273  0.00  0.00    +0.000 C 
ATOM      9  F   UNL     1       6.673   4.229  16.975  0.00  0.00    +0.000 F 
ATOM     10  F   UNL     1       5.335   3.838  15.301  0.00  0.00    +0.000 F 
ATOM     11  F   UNL     1       6.103   5.853  15.640  0.00  0.00    +0.000 F 
ENDBRANCH   4   8
BRANCH   7  12
ATOM     12  C   UNL     1       1.504   4.159  19.208  0.00  0.00    +0.000 C 
ATOM     13  C   UNL     1       1.775   3.136  20.278  0.00  0.00    +0.000 C 
ATOM     14  C   UNL     1       1.279   4.489  20.662  0.00  0.00    +0.000 C 
ENDBRANCH   7  12
ENDBRANCH   1   2
BRANCH   1  15
ATOM     15  C   UNL     1       2.390   8.552  17.697  0.00  0.00    +0.000 C 
BRANCH  15  17
ATOM     16  N   UNL     1       0.545   9.530  18.939  0.00  0.00    +0.000 N 
ATOM     17  C   UNL     1       1.712   9.786  18.252  0.00  0.00    +0.000 C 
ATOM     18  O   UNL     1       2.125  10.920  18.042  0.00  0.00    +0.000 OA
ATOM     19  H   UNL     1       0.399   8.596  19.302  0.00  0.00    +0.000 HD
BRANCH  16  20
ATOM     20  C   UNL     1      -0.144  10.609  19.604  0.00  0.00    +0.000 C 
BRANCH  20  26
ATOM     21  C   UNL     1      -0.634  12.664  21.867  0.00  0.00    +0.000 C 
ATOM     22  N   UNL     1      -0.442  11.241  22.029  0.00  0.00    +0.000 N 
ATOM     23  N   UNL     1      -0.442  10.722  23.272  0.00  0.00    +0.000 NA
ATOM     24  C   UNL     1      -0.219   9.423  23.083  0.00  0.00    +0.000 A 
ATOM     25  C   UNL     1      -0.092   9.100  21.723  0.00  0.00    +0.000 A 
ATOM     26  C   UNL     1      -0.236  10.299  21.050  0.00  0.00    +0.000 A 
ENDBRANCH  20  26
ENDBRANCH  16  20
ENDBRANCH  15  17
ENDBRANCH   1  15
TORSDOF 7
ENDMDL
MODEL 3
REMARK VINA RESULT:      -7.5      6.112      6.959
REMARK  Name = 
REMARK  8 active torsions:
REMARK  status: ('A' for Active; 'I' for Inactive)
REMARK    1  A    between atoms: C_1  and  N_2
REMARK    2  A    between atoms: C_6  and  C_7
REMARK    3  A    between atoms: C_7  and  N_8
REMARK    4  A    between atoms: C_9  and  C_11
REMARK    5  A    between atoms: C_11  and  C_12
REMARK    6  A    between atoms: C_12  and  N_13
REMARK    7  A    between atoms: C_15  and  C_16
REMARK    8  A    between atoms: C_22  and  C_23
REMARK                            x       y       z     vdW  Elec       q    Type
REMARK                         _______ _______ _______ _____ _____    ______ ____
ROOT
ATOM      1  C   UNL     1       3.422   7.343  18.214  0.00  0.00    +0.000 C 
ENDROOT
BRANCH   1   2
ATOM      2  N   UNL     1       3.268   5.899  18.300  0.00  0.00    +0.000 N 
ATOM      3  N   UNL     1       2.182   5.466  18.988  0.00  0.00    +0.000 NA
ATOM      4  C   UNL     1       2.220   4.125  18.888  0.00  0.00    +0.000 A 
ATOM      5  C   UNL     1       3.324   3.716  18.114  0.00  0.00    +0.000 A 
ATOM      6 CL   UNL     1       3.728   2.097  17.766  0.00  0.00    +0.000 Cl
ATOM      7  C   UNL     1       3.980   4.871  17.723  0.00  0.00    +0.000 A 
BRANCH   4   8
ATOM      8  C   UNL     1       1.208   3.225  19.530  0.00  0.00    +0.000 C 
ATOM      9  F   UNL     1       0.335   3.886  20.338  0.00  0.00    +0.000 F 
ATOM     10  F   UNL     1       0.453   2.566  18.610  0.00  0.00    +0.000 F 
ATOM     11  F   UNL     1       1.797   2.272  20.305  0.00  0.00    +0.000 F 
ENDBRANCH   4   8
BRANCH   7  12
ATOM     12  C   UNL     1       5.224   4.822  16.832  0.00  0.00    +0.000 C 
ATOM     13  C   UNL     1       5.207   4.290  15.424  0.00  0.00    +0.000 C 
ATOM     14  C   UNL     1       5.368   5.754  15.657  0.00  0.00    +0.000 C 
ENDBRANCH   7  12
ENDBRANCH   1   2
BRANCH   1  15
ATOM     15  C   UNL     1       2.230   8.043  17.551  0.00  0.00    +0.000 C 
BRANCH  15  17
ATOM     16  N   UNL     1       1.041  10.126  17.943  0.00  0.00    +0.000 N 
ATOM     17  C   UNL     1       1.528   8.972  18.519  0.00  0.00    +0.000 C 
ATOM     18  O   UNL     1       1.467   8.752  19.722  0.00  0.00    +0.000 OA
ATOM     19  H   UNL     1       0.885  10.132  16.942  0.00  0.00    +0.000 HD
BRANCH  16  20
ATOM     20  C   UNL     1       0.263  11.046  18.736  0.00  0.00    +0.000 C 
BRANCH  20  26
ATOM     21  C   UNL     1      -2.068  12.734  19.876  0.00  0.00    +0.000 C 
ATOM     22  N   UNL     1      -2.170  11.702  18.869  0.00  0.00    +0.000 N 
ATOM     23  N   UNL     1      -3.384  11.395  18.373  0.00  0.00    +0.000 NA
ATOM     24  C   UNL     1      -3.143  10.411  17.509  0.00  0.00    +0.000 A 
ATOM     25  C   UNL     1      -1.778  10.094  17.433  0.00  0.00    +0.000 A 
ATOM     26  C   UNL     1      -1.158  10.944  18.331  0.00  0.00    +0.000 A 
ENDBRANCH  20  26
ENDBRANCH  16  20
ENDBRANCH  15  17
ENDBRANCH   1  15
TORSDOF 7
ENDMDL
MODEL 4
REMARK VINA RESULT:      -7.5      5.589      6.237
REMARK  Name = 
REMARK  8 active torsions:
REMARK  status: ('A' for Active; 'I' for Inactive)
REMARK    1  A    between atoms: C_1  and  N_2
REMARK    2  A    between atoms: C_6  and  C_7
REMARK    3  A    between atoms: C_7  and  N_8
REMARK    4  A    between atoms: C_9  and  C_11
REMARK    5  A    between atoms: C_11  and  C_12
REMARK    6  A    between atoms: C_12  and  N_13
REMARK    7  A    between atoms: C_15  and  C_16
REMARK    8  A    between atoms: C_22  and  C_23
REMARK                            x       y       z     vdW  Elec       q    Type
REMARK                         _______ _______ _______ _____ _____    ______ ____
ROOT
ATOM      1  C   UNL     1       3.433   7.579  17.786  0.00  0.00    +0.000 C 
ENDROOT
BRANCH   1   2
ATOM      2  N   UNL     1       3.416   6.238  18.349  0.00  0.00    +0.000 N 
ATOM      3  N   UNL     1       2.395   5.975  19.203  0.00  0.00    +0.000 NA
ATOM      4  C   UNL     1       2.554   4.684  19.545  0.00  0.00    +0.000 A 
ATOM      5  C   UNL     1       3.668   4.128  18.885  0.00  0.00    +0.000 A 
ATOM      6 CL   UNL     1       4.209   2.522  19.063  0.00  0.00    +0.000 Cl
ATOM      7  C   UNL     1       4.202   5.135  18.101  0.00  0.00    +0.000 A 
BRANCH   4   8
ATOM      8  C   UNL     1       1.648   3.971  20.504  0.00  0.00    +0.000 C 
ATOM      9  F   UNL     1       0.486   4.638  20.743  0.00  0.00    +0.000 F 
ATOM     10  F   UNL     1       1.294   2.737  20.053  0.00  0.00    +0.000 F 
ATOM     11  F   UNL     1       2.238   3.787  21.717  0.00  0.00    +0.000 F 
ENDBRANCH   4   8
BRANCH   7  12
ATOM     12  C   UNL     1       5.420   4.890  17.204  0.00  0.00    +0.000 C 
ATOM     13  C   UNL     1       5.402   3.942  16.035  0.00  0.00    +0.000 C 
ATOM     14  C   UNL     1       5.455   5.413  15.791  0.00  0.00    +0.000 C 
ENDBRANCH   7  12
ENDBRANCH   1   2
BRANCH   1  15
ATOM     15  C   UNL     1       2.035   8.133  17.489  0.00  0.00    +0.000 C 
BRANCH  15  17
ATOM     16  N   UNL     1       0.922   9.535  19.132  0.00  0.00    +0.000 N 
ATOM     17  C   UNL     1       1.841   9.502  18.106  0.00  0.00    +0.000 C 
ATOM     18  O   UNL     1       2.397  10.505  17.678  0.00  0.00    +0.000 OA
ATOM     19  H   UNL     1       0.703   8.667  19.606  0.00  0.00    +0.000 HD
BRANCH  16  20
ATOM     20  C   UNL     1       0.719  10.757  19.870  0.00  0.00    +0.000 C 
BRANCH  20  26
ATOM     21  C   UNL     1      -0.636  12.695  21.868  0.00  0.00    +0.000 C 
ATOM     22  N   UNL     1      -0.301  11.311  22.112  0.00  0.00    +0.000 N 
ATOM     23  N   UNL     1      -0.561  10.781  23.322  0.00  0.00    +0.000 NA
ATOM     24  C   UNL     1      -0.118   9.529  23.232  0.00  0.00    +0.000 A 
ATOM     25  C   UNL     1       0.411   9.243  21.964  0.00  0.00    +0.000 A 
ATOM     26  C   UNL     1       0.288  10.419  21.247  0.00  0.00    +0.000 A 
ENDBRANCH  20  26
ENDBRANCH  16  20
ENDBRANCH  15  17
ENDBRANCH   1  15
TORSDOF 7
ENDMDL
MODEL 5
REMARK VINA RESULT:      -7.5      5.977      6.942
REMARK  Name = 
REMARK  8 active torsions:
REMARK  status: ('A' for Active; 'I' for Inactive)
REMARK    1  A    between atoms: C_1  and  N_2
REMARK    2  A    between atoms: C_6  and  C_7
REMARK    3  A    between atoms: C_7  and  N_8
REMARK    4  A    between atoms: C_9  and  C_11
REMARK    5  A    between atoms: C_11  and  C_12
REMARK    6  A    between atoms: C_12  and  N_13
REMARK    7  A    between atoms: C_15  and  C_16
REMARK    8  A    between atoms: C_22  and  C_23
REMARK                            x       y       z     vdW  Elec       q    Type
REMARK                         _______ _______ _______ _____ _____    ______ ____
ROOT
ATOM      1  C   UNL     1       3.085   6.927  18.022  0.00  0.00    +0.000 C 
ENDROOT
BRANCH   1   2
ATOM      2  N   UNL     1       3.098   5.497  18.289  0.00  0.00    +0.000 N 
ATOM      3  N   UNL     1       2.333   5.089  19.333  0.00  0.00    +0.000 NA
ATOM      4  C   UNL     1       2.458   3.750  19.352  0.00  0.00    +0.000 A 
ATOM      5  C   UNL     1       3.288   3.314  18.300  0.00  0.00    +0.000 A 
ATOM      6 CL   UNL     1       3.704   1.690  17.992  0.00  0.00    +0.000 Cl
ATOM      7  C   UNL     1       3.677   4.448  17.610  0.00  0.00    +0.000 A 
BRANCH   4   8
ATOM      8  C   UNL     1       1.791   2.878  20.372  0.00  0.00    +0.000 C 
ATOM      9  F   UNL     1       1.210   1.770  19.834  0.00  0.00    +0.000 F 
ATOM     10  F   UNL     1       2.665   2.431  21.314  0.00  0.00    +0.000 F 
ATOM     11  F   UNL     1       0.805   3.540  21.038  0.00  0.00    +0.000 F 
ENDBRANCH   4   8
BRANCH   7  12
ATOM     12  C   UNL     1       4.570   4.363  16.368  0.00  0.00    +0.000 C 
ATOM     13  C   UNL     1       5.344   5.536  15.830  0.00  0.00    +0.000 C 
ATOM     14  C   UNL     1       6.071   4.415  16.492  0.00  0.00    +0.000 C 
ENDBRANCH   7  12
ENDBRANCH   1   2
BRANCH   1  15
ATOM     15  C   UNL     1       2.251   7.727  19.029  0.00  0.00    +0.000 C 
BRANCH  15  17
ATOM     16  N   UNL     1       0.747   9.631  19.157  0.00  0.00    +0.000 N 
ATOM     17  C   UNL     1       1.736   9.013  18.421  0.00  0.00    +0.000 C 
ATOM     18  O   UNL     1       2.112   9.428  17.332  0.00  0.00    +0.000 OA
ATOM     19  H   UNL     1       0.669   9.401  20.140  0.00  0.00    +0.000 HD
BRANCH  16  20
ATOM     20  C   UNL     1       0.244  10.916  18.739  0.00  0.00    +0.000 C 
BRANCH  20  26
ATOM     21  C   UNL     1      -2.228  12.429  19.827  0.00  0.00    +0.000 C 
ATOM     22  N   UNL     1      -2.226  11.434  18.780  0.00  0.00    +0.000 N 
ATOM     23  N   UNL     1      -3.397  11.081  18.215  0.00  0.00    +0.000 NA
ATOM     24  C   UNL     1      -3.062  10.147  17.327  0.00  0.00    +0.000 A 
ATOM     25  C   UNL     1      -1.679   9.908  17.306  0.00  0.00    +0.000 A 
ATOM     26  C   UNL     1      -1.150  10.753  18.263  0.00  0.00    +0.000 A 
ENDBRANCH  20  26
ENDBRANCH  16  20
ENDBRANCH  15  17
ENDBRANCH   1  15
TORSDOF 7
ENDMDL
MODEL 6
REMARK VINA RESULT:      -7.4      6.675      7.946
REMARK  Name = 
REMARK  8 active torsions:
REMARK  status: ('A' for Active; 'I' for Inactive)
REMARK    1  A    between atoms: C_1  and  N_2
REMARK    2  A    between atoms: C_6  and  C_7
REMARK    3  A    between atoms: C_7  and  N_8
REMARK    4  A    between atoms: C_9  and  C_11
REMARK    5  A    between atoms: C_11  and  C_12
REMARK    6  A    between atoms: C_12  and  N_13
REMARK    7  A    between atoms: C_15  and  C_16
REMARK    8  A    between atoms: C_22  and  C_23
REMARK                            x       y       z     vdW  Elec       q    Type
REMARK                         _______ _______ _______ _____ _____    ______ ____
ROOT
ATOM      1  C   UNL     1       2.447   7.330  19.049  0.00  0.00    +0.000 C 
ENDROOT
BRANCH   1   2
ATOM      2  N   UNL     1       2.914   6.137  18.360  0.00  0.00    +0.000 N 
ATOM      3  N   UNL     1       4.004   6.305  17.571  0.00  0.00    +0.000 NA
ATOM      4  C   UNL     1       4.278   5.078  17.092  0.00  0.00    +0.000 A 
ATOM      5  C   UNL     1       3.368   4.131  17.602  0.00  0.00    +0.000 A 
ATOM      6 CL   UNL     1       3.372   2.469  17.223  0.00  0.00    +0.000 Cl
ATOM      7  C   UNL     1       2.507   4.823  18.435  0.00  0.00    +0.000 A 
BRANCH   4   8
ATOM      8  C   UNL     1       5.406   4.800  16.144  0.00  0.00    +0.000 C 
ATOM      9  F   UNL     1       6.368   3.995  16.675  0.00  0.00    +0.000 F 
ATOM     10  F   UNL     1       4.980   4.187  15.007  0.00  0.00    +0.000 F 
ATOM     11  F   UNL     1       6.037   5.943  15.758  0.00  0.00    +0.000 F 
ENDBRANCH   4   8
BRANCH   7  12
ATOM     12  C   UNL     1       1.389   4.109  19.201  0.00  0.00    +0.000 C 
ATOM     13  C   UNL     1       1.635   2.931  20.105  0.00  0.00    +0.000 C 
ATOM     14  C   UNL     1       1.267   4.250  20.697  0.00  0.00    +0.000 C 
ENDBRANCH   7  12
ENDBRANCH   1   2
BRANCH   1  15
ATOM     15  C   UNL     1       1.974   8.435  18.099  0.00  0.00    +0.000 C 
BRANCH  15  17
ATOM     16  N   UNL     1       0.599  10.436  18.007  0.00  0.00    +0.000 N 
ATOM     17  C   UNL     1       1.143   9.470  18.826  0.00  0.00    +0.000 C 
ATOM     18  O   UNL     1       1.027   9.489  20.044  0.00  0.00    +0.000 OA
ATOM     19  H   UNL     1       0.504  10.228  17.020  0.00  0.00    +0.000 HD
BRANCH  16  20
ATOM     20  C   UNL     1      -0.297  11.421  18.562  0.00  0.00    +0.000 C 
BRANCH  20  26
ATOM     21  C   UNL     1      -2.899  12.480  19.862  0.00  0.00    +0.000 C 
ATOM     22  N   UNL     1      -2.810  11.603  18.716  0.00  0.00    +0.000 N 
ATOM     23  N   UNL     1      -3.946  11.158  18.147  0.00  0.00    +0.000 NA
ATOM     24  C   UNL     1      -3.528  10.369  17.160  0.00  0.00    +0.000 A 
ATOM     25  C   UNL     1      -2.128  10.317  17.079  0.00  0.00    +0.000 A 
ATOM     26  C   UNL     1      -1.675  11.124  18.106  0.00  0.00    +0.000 A 
ENDBRANCH  20  26
ENDBRANCH  16  20
ENDBRANCH  15  17
ENDBRANCH   1  15
TORSDOF 7
ENDMDL
MODEL 7
REMARK VINA RESULT:      -7.3      5.621      6.412
REMARK  Name = 
REMARK  8 active torsions:
REMARK  status: ('A' for Active; 'I' for Inactive)
REMARK    1  A    between atoms: C_1  and  N_2
REMARK    2  A    between atoms: C_6  and  C_7
REMARK    3  A    between atoms: C_7  and  N_8
REMARK    4  A    between atoms: C_9  and  C_11
REMARK    5  A    between atoms: C_11  and  C_12
REMARK    6  A    between atoms: C_12  and  N_13
REMARK    7  A    between atoms: C_15  and  C_16
REMARK    8  A    between atoms: C_22  and  C_23
REMARK                            x       y       z     vdW  Elec       q    Type
REMARK                         _______ _______ _______ _____ _____    ______ ____
ROOT
ATOM      1  C   UNL     1       3.459   7.577  17.873  0.00  0.00    +0.000 C 
ENDROOT
BRANCH   1   2
ATOM      2  N   UNL     1       3.509   6.291  18.550  0.00  0.00    +0.000 N 
ATOM      3  N   UNL     1       2.396   5.952  19.248  0.00  0.00    +0.000 NA
ATOM      4  C   UNL     1       2.650   4.724  19.733  0.00  0.00    +0.000 A 
ATOM      5  C   UNL     1       3.921   4.279  19.317  0.00  0.00    +0.000 A 
ATOM      6 CL   UNL     1       4.616   2.779  19.732  0.00  0.00    +0.000 Cl
ATOM      7  C   UNL     1       4.456   5.290  18.538  0.00  0.00    +0.000 A 
BRANCH   4   8
ATOM      8  C   UNL     1       1.687   3.965  20.595  0.00  0.00    +0.000 C 
ATOM      9  F   UNL     1       1.471   2.691  20.168  0.00  0.00    +0.000 F 
ATOM     10  F   UNL     1       2.118   3.869  21.882  0.00  0.00    +0.000 F 
ATOM     11  F   UNL     1       0.465   4.565  20.638  0.00  0.00    +0.000 F 
ENDBRANCH   4   8
BRANCH   7  12
ATOM     12  C   UNL     1       5.831   5.150  17.877  0.00  0.00    +0.000 C 
ATOM     13  C   UNL     1       6.364   6.135  16.873  0.00  0.00    +0.000 C 
ATOM     14  C   UNL     1       6.959   6.081  18.240  0.00  0.00    +0.000 C 
ENDBRANCH   7  12
ENDBRANCH   1   2
BRANCH   1  15
ATOM     15  C   UNL     1       2.033   8.041  17.554  0.00  0.00    +0.000 C 
BRANCH  15  17
ATOM     16  N   UNL     1       0.704   9.478  18.993  0.00  0.00    +0.000 N 
ATOM     17  C   UNL     1       1.764   9.421  18.113  0.00  0.00    +0.000 C 
ATOM     18  O   UNL     1       2.386  10.414  17.756  0.00  0.00    +0.000 OA
ATOM     19  H   UNL     1       0.410   8.620  19.443  0.00  0.00    +0.000 HD
BRANCH  16  20
ATOM     20  C   UNL     1       0.408  10.714  19.675  0.00  0.00    +0.000 C 
BRANCH  20  26
ATOM     21  C   UNL     1      -0.416  12.789  21.819  0.00  0.00    +0.000 C 
ATOM     22  N   UNL     1      -0.280  11.364  22.015  0.00  0.00    +0.000 N 
ATOM     23  N   UNL     1      -0.496  10.852  23.242  0.00  0.00    +0.000 NA
ATOM     24  C   UNL     1      -0.267   9.549  23.095  0.00  0.00    +0.000 A 
ATOM     25  C   UNL     1       0.079   9.216  21.776  0.00  0.00    +0.000 A 
ATOM     26  C   UNL     1       0.070  10.414  21.086  0.00  0.00    +0.000 A 
ENDBRANCH  20  26
ENDBRANCH  16  20
ENDBRANCH  15  17
ENDBRANCH   1  15
TORSDOF 7
ENDMDL
MODEL 8
REMARK VINA RESULT:      -7.3      6.394      7.668
REMARK  Name = 
REMARK  8 active torsions:
REMARK  status: ('A' for Active; 'I' for Inactive)
REMARK    1  A    between atoms: C_1  and  N_2
REMARK    2  A    between atoms: C_6  and  C_7
REMARK    3  A    between atoms: C_7  and  N_8
REMARK    4  A    between atoms: C_9  and  C_11
REMARK    5  A    between atoms: C_11  and  C_12
REMARK    6  A    between atoms: C_12  and  N_13
REMARK    7  A    between atoms: C_15  and  C_16
REMARK    8  A    between atoms: C_22  and  C_23
REMARK                            x       y       z     vdW  Elec       q    Type
REMARK                         _______ _______ _______ _____ _____    ______ ____
ROOT
ATOM      1  C   UNL     1       2.396   7.288  18.692  0.00  0.00    +0.000 C 
ENDROOT
BRANCH   1   2
ATOM      2  N   UNL     1       2.987   6.041  18.234  0.00  0.00    +0.000 N 
ATOM      3  N   UNL     1       4.173   6.158  17.587  0.00  0.00    +0.000 NA
ATOM      4  C   UNL     1       4.545   4.895  17.312  0.00  0.00    +0.000 A 
ATOM      5  C   UNL     1       3.597   3.979  17.810  0.00  0.00    +0.000 A 
ATOM      6 CL   UNL     1       3.698   2.285  17.653  0.00  0.00    +0.000 Cl
ATOM      7  C   UNL     1       2.608   4.730  18.421  0.00  0.00    +0.000 A 
BRANCH   4   8
ATOM      8  C   UNL     1       5.803   4.551  16.572  0.00  0.00    +0.000 C 
ATOM      9  F   UNL     1       5.661   3.487  15.735  0.00  0.00    +0.000 F 
ATOM     10  F   UNL     1       6.244   5.585  15.805  0.00  0.00    +0.000 F 
ATOM     11  F   UNL     1       6.819   4.235  17.421  0.00  0.00    +0.000 F 
ENDBRANCH   4   8
BRANCH   7  12
ATOM     12  C   UNL     1       1.412   4.067  19.112  0.00  0.00    +0.000 C 
ATOM     13  C   UNL     1       1.559   3.021  20.184  0.00  0.00    +0.000 C 
ATOM     14  C   UNL     1       1.078   4.385  20.547  0.00  0.00    +0.000 C 
ENDBRANCH   7  12
ENDBRANCH   1   2
BRANCH   1  15
ATOM     15  C   UNL     1       2.606   8.455  17.720  0.00  0.00    +0.000 C 
BRANCH  15  17
ATOM     16  N   UNL     1       0.594   9.392  18.709  0.00  0.00    +0.000 N 
ATOM     17  C   UNL     1       1.821   9.676  18.147  0.00  0.00    +0.000 C 
ATOM     18  O   UNL     1       2.209  10.819  17.940  0.00  0.00    +0.000 OA
ATOM     19  H   UNL     1       0.445   8.466  19.089  0.00  0.00    +0.000 HD
BRANCH  16  20
ATOM     20  C   UNL     1      -0.208  10.462  19.250  0.00  0.00    +0.000 C 
BRANCH  20  26
ATOM     21  C   UNL     1      -2.524  12.449  19.773  0.00  0.00    +0.000 C 
ATOM     22  N   UNL     1      -2.412  11.539  18.656  0.00  0.00    +0.000 N 
ATOM     23  N   UNL     1      -3.405  11.501  17.746  0.00  0.00    +0.000 NA
ATOM     24  C   UNL     1      -3.019  10.564  16.882  0.00  0.00    +0.000 A 
ATOM     25  C   UNL     1      -1.774  10.010  17.222  0.00  0.00    +0.000 A 
ATOM     26  C   UNL     1      -1.395  10.655  18.385  0.00  0.00    +0.000 A 
ENDBRANCH  20  26
ENDBRANCH  16  20
ENDBRANCH  15  17
ENDBRANCH   1  15
TORSDOF 7
ENDMDL
MODEL 9
REMARK VINA RESULT:      -7.3      6.340      7.290
REMARK  Name = 
REMARK  8 active torsions:
REMARK  status: ('A' for Active; 'I' for Inactive)
REMARK    1  A    between atoms: C_1  and  N_2
REMARK    2  A    between atoms: C_6  and  C_7
REMARK    3  A    between atoms: C_7  and  N_8
REMARK    4  A    between atoms: C_9  and  C_11
REMARK    5  A    between atoms: C_11  and  C_12
REMARK    6  A    between atoms: C_12  and  N_13
REMARK    7  A    between atoms: C_15  and  C_16
REMARK    8  A    between atoms: C_22  and  C_23
REMARK                            x       y       z     vdW  Elec       q    Type
REMARK                         _______ _______ _______ _____ _____    ______ ____
ROOT
ATOM      1  C   UNL     1       2.225   7.508  19.692  0.00  0.00    +0.000 C 
ENDROOT
BRANCH   1   2
ATOM      2  N   UNL     1       2.681   6.129  19.761  0.00  0.00    +0.000 N 
ATOM      3  N   UNL     1       1.910   5.294  20.502  0.00  0.00    +0.000 NA
ATOM      4  C   UNL     1       2.487   4.085  20.375  0.00  0.00    +0.000 A 
ATOM      5  C   UNL     1       3.613   4.159  19.532  0.00  0.00    +0.000 A 
ATOM      6 CL   UNL     1       4.623   2.845  19.132  0.00  0.00    +0.000 Cl
ATOM      7  C   UNL     1       3.715   5.478  19.126  0.00  0.00    +0.000 A 
BRANCH   4   8
ATOM      8  C   UNL     1       1.972   2.854  21.057  0.00  0.00    +0.000 C 
ATOM      9  F   UNL     1       0.814   3.063  21.743  0.00  0.00    +0.000 F 
ATOM     10  F   UNL     1       1.717   1.849  20.176  0.00  0.00    +0.000 F 
ATOM     11  F   UNL     1       2.865   2.363  21.959  0.00  0.00    +0.000 F 
ENDBRANCH   4   8
BRANCH   7  12
ATOM     12  C   UNL     1       4.816   5.937  18.165  0.00  0.00    +0.000 C 
ATOM     13  C   UNL     1       4.927   5.444  16.747  0.00  0.00    +0.000 C 
ATOM     14  C   UNL     1       4.498   6.849  17.007  0.00  0.00    +0.000 C 
ENDBRANCH   7  12
ENDBRANCH   1   2
BRANCH   1  15
ATOM     15  C   UNL     1       1.328   7.913  20.868  0.00  0.00    +0.000 C 
BRANCH  15  17
ATOM     16  N   UNL     1       0.823   9.776  19.393  0.00  0.00    +0.000 N 
ATOM     17  C   UNL     1       0.786   9.315  20.691  0.00  0.00    +0.000 C 
ATOM     18  O   UNL     1       0.419  10.006  21.632  0.00  0.00    +0.000 OA
ATOM     19  H   UNL     1       0.879   9.095  18.645  0.00  0.00    +0.000 HD
BRANCH  16  20
ATOM     20  C   UNL     1       0.242  11.057  19.073  0.00  0.00    +0.000 C 
BRANCH  20  26
ATOM     21  C   UNL     1      -2.377  12.479  19.910  0.00  0.00    +0.000 C 
ATOM     22  N   UNL     1      -2.238  11.482  18.873  0.00  0.00    +0.000 N 
ATOM     23  N   UNL     1      -3.335  11.084  18.200  0.00  0.00    +0.000 NA
ATOM     24  C   UNL     1      -2.881  10.160  17.355  0.00  0.00    +0.000 A 
ATOM     25  C   UNL     1      -1.495   9.973  17.468  0.00  0.00    +0.000 A 
ATOM     26  C   UNL     1      -1.092  10.840  18.467  0.00  0.00    +0.000 A 
ENDBRANCH  20  26
ENDBRANCH  16  20
ENDBRANCH  15  17
ENDBRANCH   1  15
TORSDOF 7
ENDMDL
