MODEL 1
REMARK VINA RESULT:      -7.8      0.000      0.000
REMARK  Name = 
REMARK  11 active torsions:
REMARK  status: ('A' for Active; 'I' for Inactive)
REMARK    1  A    between atoms: C_1  and  O_2
REMARK    2  A    between atoms: O_2  and  C_3
REMARK    3  A    between atoms: C_6  and  O_7
REMARK    4  A    between atoms: O_7  and  C_8
REMARK    5  A    between atoms: C_9  and  C_10
REMARK    6  A    between atoms: C_10  and  N_11
REMARK    7  A    between atoms: C_12  and  C_14
REMARK    8  A    between atoms: C_14  and  C_15
REMARK    9  A    between atoms: C_15  and  C_16
REMARK   10  A    between atoms: C_24  and  O_25
REMARK   11  A    between atoms: O_25  and  C_26
REMARK                            x       y       z     vdW  Elec       q    Type
REMARK                         _______ _______ _______ _____ _____    ______ ____
ROOT
ATOM      1  C   UNL     1       3.693   3.809  17.326  0.00  0.00    +0.000 C 
ATOM      2  O   UNL     1       3.667   2.576  17.457  0.00  0.00    +0.000 OA
ATOM      3  N   UNL     1       4.622   4.420  16.453  0.00  0.00    +0.000 N 
ATOM      4  C   UNL     1       5.313   3.409  15.623  0.00  0.00    +0.000 C 
ATOM      5  C   UNL     1       5.957   3.877  14.345  0.00  0.00    +0.000 A 
ATOM      6  C   UNL     1       5.652   3.147  13.173  0.00  0.00    +0.000 A 
ATOM      7  C   UNL     1       6.313   3.396  11.982  0.00  0.00    +0.000 A 
ATOM      8  C   UNL     1       7.278   4.392  11.925  0.00  0.00    +0.000 A 
ATOM      9  C   UNL     1       7.615   5.133  13.068  0.00  0.00    +0.000 A 
ATOM     10  C   UNL     1       6.952   4.875  14.289  0.00  0.00    +0.000 A 
ATOM     11  O   UNL     1       7.373   5.578  15.390  0.00  0.00    +0.000 OA
ATOM     12  C   UNL     1       6.850   5.331  16.629  0.00  0.00    +0.000 A 
ATOM     13  N   UNL     1       7.744   4.979  17.574  0.00  0.00    +0.000 NA
ATOM     14  C   UNL     1       7.294   4.999  18.843  0.00  0.00    +0.000 A 
ATOM     15  C   UNL     1       6.119   5.631  19.202  0.00  0.00    +0.000 A 
ATOM     16  C   UNL     1       5.264   6.028  18.182  0.00  0.00    +0.000 A 
ATOM     17  C   UNL     1       5.499   5.501  16.919  0.00  0.00    +0.000 A 
ENDROOT
BRANCH   9  18
ATOM     18  O   UNL     1       8.619   6.027  12.797  0.00  0.00    +0.000 OA
ATOM     19  C   UNL     1       8.608   6.772  11.591  0.00  0.00    +0.000 C 
ENDBRANCH   9  18
BRANCH   1  20
ATOM     20  C   UNL     1       2.675   4.641  18.100  0.00  0.00    +0.000 C 
BRANCH  20  21
ATOM     21  C   UNL     1       2.273   3.870  19.355  0.00  0.00    +0.000 C 
BRANCH  21  23
ATOM     22  N   UNL     1       2.002   6.045  20.311  0.00  0.00    +0.000 N 
ATOM     23  C   UNL     1       2.168   4.703  20.611  0.00  0.00    +0.000 C 
ATOM     24  O   UNL     1       2.234   4.255  21.743  0.00  0.00    +0.000 OA
ATOM     25  H   UNL     1       1.985   6.355  19.337  0.00  0.00    +0.000 HD
BRANCH  22  26
ATOM     26  C   UNL     1       1.831   7.051  21.322  0.00  0.00    +0.000 C 
BRANCH  26  31
ATOM     27  C   UNL     1       0.278  10.502  21.656  0.00  0.00    +0.000 A 
ATOM     28  C   UNL     1       0.264  10.977  20.353  0.00  0.00    +0.000 A 
ATOM     29  C   UNL     1       0.757  10.189  19.315  0.00  0.00    +0.000 A 
ATOM     30  C   UNL     1       1.248   8.896  19.555  0.00  0.00    +0.000 A 
ATOM     31  C   UNL     1       1.305   8.406  20.876  0.00  0.00    +0.000 A 
ATOM     32  C   UNL     1       0.805   9.234  21.914  0.00  0.00    +0.000 A 
BRANCH  27  34
ATOM     33  C   UNL     1      -1.516  11.931  22.267  0.00  0.00    +0.000 C 
ATOM     34  O   UNL     1      -0.251  11.364  22.574  0.00  0.00    +0.000 OA
ENDBRANCH  27  34
BRANCH  30  35
ATOM     35  O   UNL     1       1.701   8.092  18.536  0.00  0.00    +0.000 OA
ATOM     36  C   UNL     1       2.720   8.677  17.720  0.00  0.00    +0.000 C 
ENDBRANCH  30  35
ENDBRANCH  26  31
ENDBRANCH  22  26
ENDBRANCH  21  23
ENDBRANCH  20  21
ENDBRANCH   1  20
TORSDOF 8
ENDMDL
MODEL 2
REMARK VINA RESULT:      -7.7      3.175      9.438
REMARK  Name = 
REMARK  11 active torsions:
REMARK  status: ('A' for Active; 'I' for Inactive)
REMARK    1  A    between atoms: C_1  and  O_2
REMARK    2  A    between atoms: O_2  and  C_3
REMARK    3  A    between atoms: C_6  and  O_7
REMARK    4  A    between atoms: O_7  and  C_8
REMARK    5  A    between atoms: C_9  and  C_10
REMARK    6  A    between atoms: C_10  and  N_11
REMARK    7  A    between atoms: C_12  and  C_14
REMARK    8  A    between atoms: C_14  and  C_15
REMARK    9  A    between atoms: C_15  and  C_16
REMARK   10  A    between atoms: C_24  and  O_25
REMARK   11  A    between atoms: O_25  and  C_26
REMARK                            x       y       z     vdW  Elec       q    Type
REMARK                         _______ _______ _______ _____ _____    ______ ____
ROOT
ATOM      1  C   UNL     1       1.150   9.111  19.382  0.00  0.00    +0.000 C 
ATOM      2  O   UNL     1       1.974   9.228  18.462  0.00  0.00    +0.000 OA
ATOM      3  N   UNL     1      -0.137   9.687  19.272  0.00  0.00    +0.000 N 
ATOM      4  C   UNL     1      -0.380  10.181  17.899  0.00  0.00    +0.000 C 
ATOM      5  C   UNL     1      -1.810  10.376  17.471  0.00  0.00    +0.000 A 
ATOM      6  C   UNL     1      -2.191   9.800  16.237  0.00  0.00    +0.000 A 
ATOM      7  C   UNL     1      -3.433  10.055  15.680  0.00  0.00    +0.000 A 
ATOM      8  C   UNL     1      -4.333  10.874  16.348  0.00  0.00    +0.000 A 
ATOM      9  C   UNL     1      -3.990  11.472  17.571  0.00  0.00    +0.000 A 
ATOM     10  C   UNL     1      -2.719  11.224  18.138  0.00  0.00    +0.000 A 
ATOM     11  O   UNL     1      -2.410  11.893  19.296  0.00  0.00    +0.000 OA
ATOM     12  C   UNL     1      -1.173  11.783  19.867  0.00  0.00    +0.000 A 
ATOM     13  N   UNL     1      -0.506  12.942  20.030  0.00  0.00    +0.000 NA
ATOM     14  C   UNL     1       0.578  12.889  20.827  0.00  0.00    +0.000 A 
ATOM     15  C   UNL     1       0.822  11.825  21.673  0.00  0.00    +0.000 A 
ATOM     16  C   UNL     1       0.061  10.676  21.500  0.00  0.00    +0.000 A 
ATOM     17  C   UNL     1      -0.662  10.569  20.320  0.00  0.00    +0.000 A 
ENDROOT
BRANCH   9  18
ATOM     18  O   UNL     1      -5.004  12.273  18.029  0.00  0.00    +0.000 OA
ATOM     19  C   UNL     1      -6.324  11.766  18.136  0.00  0.00    +0.000 C 
ENDBRANCH   9  18
BRANCH   1  20
ATOM     20  C   UNL     1       1.549   8.304  20.612  0.00  0.00    +0.000 C 
BRANCH  20  21
ATOM     21  C   UNL     1       0.947   6.907  20.491  0.00  0.00    +0.000 C 
BRANCH  21  23
ATOM     22  N   UNL     1       3.066   6.049  19.787  0.00  0.00    +0.000 N 
ATOM     23  C   UNL     1       1.944   5.772  20.551  0.00  0.00    +0.000 C 
ATOM     24  O   UNL     1       1.777   4.741  21.179  0.00  0.00    +0.000 OA
ATOM     25  H   UNL     1       3.125   6.924  19.261  0.00  0.00    +0.000 HD
BRANCH  22  26
ATOM     26  C   UNL     1       4.188   5.156  19.705  0.00  0.00    +0.000 C 
BRANCH  26  31
ATOM     27  C   UNL     1       6.584   6.287  16.981  0.00  0.00    +0.000 A 
ATOM     28  C   UNL     1       6.484   5.285  16.028  0.00  0.00    +0.000 A 
ATOM     29  C   UNL     1       5.629   4.204  16.234  0.00  0.00    +0.000 A 
ATOM     30  C   UNL     1       4.833   4.118  17.387  0.00  0.00    +0.000 A 
ATOM     31  C   UNL     1       4.944   5.106  18.386  0.00  0.00    +0.000 A 
ATOM     32  C   UNL     1       5.829   6.189  18.154  0.00  0.00    +0.000 A 
BRANCH  27  34
ATOM     33  C   UNL     1       7.949   8.084  17.716  0.00  0.00    +0.000 C 
ATOM     34  O   UNL     1       7.441   7.297  16.649  0.00  0.00    +0.000 OA
ENDBRANCH  27  34
BRANCH  30  35
ATOM     35  O   UNL     1       3.957   3.077  17.586  0.00  0.00    +0.000 OA
ATOM     36  C   UNL     1       2.608   3.347  17.197  0.00  0.00    +0.000 C 
ENDBRANCH  30  35
ENDBRANCH  26  31
ENDBRANCH  22  26
ENDBRANCH  21  23
ENDBRANCH  20  21
ENDBRANCH   1  20
TORSDOF 8
ENDMDL
MODEL 3
REMARK VINA RESULT:      -7.6      3.588     10.271
REMARK  Name = 
REMARK  11 active torsions:
REMARK  status: ('A' for Active; 'I' for Inactive)
REMARK    1  A    between atoms: C_1  and  O_2
REMARK    2  A    between atoms: O_2  and  C_3
REMARK    3  A    between atoms: C_6  and  O_7
REMARK    4  A    between atoms: O_7  and  C_8
REMARK    5  A    between atoms: C_9  and  C_10
REMARK    6  A    between atoms: C_10  and  N_11
REMARK    7  A    between atoms: C_12  and  C_14
REMARK    8  A    between atoms: C_14  and  C_15
REMARK    9  A    between atoms: C_15  and  C_16
REMARK   10  A    between atoms: C_24  and  O_25
REMARK   11  A    between atoms: O_25  and  C_26
REMARK                            x       y       z     vdW  Elec       q    Type
REMARK                         _______ _______ _______ _____ _____    ______ ____
ROOT
ATOM      1  C   UNL     1       0.213  11.040  21.105  0.00  0.00    +0.000 C 
ATOM      2  O   UNL     1       1.215  11.374  20.456  0.00  0.00    +0.000 OA
ATOM      3  N   UNL     1      -1.082  11.199  20.561  0.00  0.00    +0.000 N 
ATOM      4  C   UNL     1      -1.014  11.562  19.128  0.00  0.00    +0.000 C 
ATOM      5  C   UNL     1      -2.235  11.307  18.285  0.00  0.00    +0.000 A 
ATOM      6  C   UNL     1      -2.037  10.610  17.070  0.00  0.00    +0.000 A 
ATOM      7  C   UNL     1      -3.063  10.466  16.152  0.00  0.00    +0.000 A 
ATOM      8  C   UNL     1      -4.316  10.994  16.430  0.00  0.00    +0.000 A 
ATOM      9  C   UNL     1      -4.551  11.699  17.621  0.00  0.00    +0.000 A 
ATOM     10  C   UNL     1      -3.504  11.860  18.556  0.00  0.00    +0.000 A 
ATOM     11  O   UNL     1      -3.769  12.620  19.667  0.00  0.00    +0.000 OA
ATOM     12  C   UNL     1      -2.792  12.902  20.581  0.00  0.00    +0.000 A 
ATOM     13  N   UNL     1      -2.559  14.212  20.792  0.00  0.00    +0.000 NA
ATOM     14  C   UNL     1      -1.807  14.508  21.870  0.00  0.00    +0.000 A 
ATOM     15  C   UNL     1      -1.552  13.589  22.869  0.00  0.00    +0.000 A 
ATOM     16  C   UNL     1      -1.871  12.260  22.619  0.00  0.00    +0.000 A 
ATOM     17  C   UNL     1      -2.131  11.910  21.301  0.00  0.00    +0.000 A 
ENDROOT
BRANCH   9  18
ATOM     18  O   UNL     1      -5.839  12.170  17.669  0.00  0.00    +0.000 OA
ATOM     19  C   UNL     1      -6.882  11.351  18.171  0.00  0.00    +0.000 C 
ENDBRANCH   9  18
BRANCH   1  20
ATOM     20  C   UNL     1       0.418  10.422  22.484  0.00  0.00    +0.000 C 
BRANCH  20  21
ATOM     21  C   UNL     1       1.384   9.248  22.350  0.00  0.00    +0.000 C 
BRANCH  21  23
ATOM     22  N   UNL     1       1.875   7.283  21.079  0.00  0.00    +0.000 N 
ATOM     23  C   UNL     1       0.847   8.060  21.586  0.00  0.00    +0.000 C 
ATOM     24  O   UNL     1      -0.339   7.824  21.424  0.00  0.00    +0.000 OA
ATOM     25  H   UNL     1       2.848   7.559  21.229  0.00  0.00    +0.000 HD
BRANCH  22  26
ATOM     26  C   UNL     1       1.642   6.069  20.348  0.00  0.00    +0.000 C 
BRANCH  26  31
ATOM     27  C   UNL     1       3.677   3.986  17.908  0.00  0.00    +0.000 A 
ATOM     28  C   UNL     1       4.222   4.932  17.053  0.00  0.00    +0.000 A 
ATOM     29  C   UNL     1       3.951   6.286  17.241  0.00  0.00    +0.000 A 
ATOM     30  C   UNL     1       3.150   6.724  18.308  0.00  0.00    +0.000 A 
ATOM     31  C   UNL     1       2.556   5.778  19.168  0.00  0.00    +0.000 A 
ATOM     32  C   UNL     1       2.843   4.407  18.947  0.00  0.00    +0.000 A 
BRANCH  27  34
ATOM     33  C   UNL     1       3.360   1.673  18.336  0.00  0.00    +0.000 C 
ATOM     34  O   UNL     1       4.037   2.699  17.625  0.00  0.00    +0.000 OA
ENDBRANCH  27  34
BRANCH  30  35
ATOM     35  O   UNL     1       2.905   8.058  18.529  0.00  0.00    +0.000 OA
ATOM     36  C   UNL     1       1.903   8.632  17.685  0.00  0.00    +0.000 C 
ENDBRANCH  30  35
ENDBRANCH  26  31
ENDBRANCH  22  26
ENDBRANCH  21  23
ENDBRANCH  20  21
ENDBRANCH   1  20
TORSDOF 8
ENDMDL
MODEL 4
REMARK VINA RESULT:      -7.5      4.095     11.247
REMARK  Name = 
REMARK  11 active torsions:
REMARK  status: ('A' for Active; 'I' for Inactive)
REMARK    1  A    between atoms: C_1  and  O_2
REMARK    2  A    between atoms: O_2  and  C_3
REMARK    3  A    between atoms: C_6  and  O_7
REMARK    4  A    between atoms: O_7  and  C_8
REMARK    5  A    between atoms: C_9  and  C_10
REMARK    6  A    between atoms: C_10  and  N_11
REMARK    7  A    between atoms: C_12  and  C_14
REMARK    8  A    between atoms: C_14  and  C_15
REMARK    9  A    between atoms: C_15  and  C_16
REMARK   10  A    between atoms: C_24  and  O_25
REMARK   11  A    between atoms: O_25  and  C_26
REMARK                            x       y       z     vdW  Elec       q    Type
REMARK                         _______ _______ _______ _____ _____    ______ ____
ROOT
ATOM      1  C   UNL     1      -0.981  11.553  21.598  0.00  0.00    +0.000 C 
ATOM      2  O   UNL     1      -0.040  11.929  20.883  0.00  0.00    +0.000 OA
ATOM      3  N   UNL     1      -2.319  11.766  21.196  0.00  0.00    +0.000 N 
ATOM      4  C   UNL     1      -2.383  12.240  19.796  0.00  0.00    +0.000 C 
ATOM      5  C   UNL     1      -3.682  12.064  19.057  0.00  0.00    +0.000 A 
ATOM      6  C   UNL     1      -3.613  11.465  17.778  0.00  0.00    +0.000 A 
ATOM      7  C   UNL     1      -4.725  11.403  16.955  0.00  0.00    +0.000 A 
ATOM      8  C   UNL     1      -5.937  11.918  17.394  0.00  0.00    +0.000 A 
ATOM      9  C   UNL     1      -6.045  12.528  18.653  0.00  0.00    +0.000 A 
ATOM     10  C   UNL     1      -4.911  12.604  19.492  0.00  0.00    +0.000 A 
ATOM     11  O   UNL     1      -5.056  13.276  20.680  0.00  0.00    +0.000 OA
ATOM     12  C   UNL     1      -3.992  13.476  21.515  0.00  0.00    +0.000 A 
ATOM     13  N   UNL     1      -3.718  14.763  21.804  0.00  0.00    +0.000 NA
ATOM     14  C   UNL     1      -2.861  14.966  22.824  0.00  0.00    +0.000 A 
ATOM     15  C   UNL     1      -2.528  13.968  23.719  0.00  0.00    +0.000 A 
ATOM     16  C   UNL     1      -2.890  12.666  23.397  0.00  0.00    +0.000 A 
ATOM     17  C   UNL     1      -3.281  12.424  22.087  0.00  0.00    +0.000 A 
ENDROOT
BRANCH   9  18
ATOM     18  O   UNL     1      -7.314  13.004  18.862  0.00  0.00    +0.000 OA
ATOM     19  C   UNL     1      -7.916  13.874  17.919  0.00  0.00    +0.000 C 
ENDBRANCH   9  18
BRANCH   1  20
ATOM     20  C   UNL     1      -0.655  10.825  22.898  0.00  0.00    +0.000 C 
BRANCH  20  21
ATOM     21  C   UNL     1      -0.420   9.351  22.582  0.00  0.00    +0.000 C 
BRANCH  21  23
ATOM     22  N   UNL     1       1.001   8.191  21.047  0.00  0.00    +0.000 N 
ATOM     23  C   UNL     1       0.992   9.002  22.171  0.00  0.00    +0.000 C 
ATOM     24  O   UNL     1       1.993   9.373  22.759  0.00  0.00    +0.000 OA
ATOM     25  H   UNL     1       0.120   7.893  20.622  0.00  0.00    +0.000 HD
BRANCH  22  26
ATOM     26  C   UNL     1       2.215   7.748  20.420  0.00  0.00    +0.000 C 
BRANCH  26  31
ATOM     27  C   UNL     1       1.453   4.068  19.864  0.00  0.00    +0.000 A 
ATOM     28  C   UNL     1       1.956   3.822  18.595  0.00  0.00    +0.000 A 
ATOM     29  C   UNL     1       2.566   4.846  17.874  0.00  0.00    +0.000 A 
ATOM     30  C   UNL     1       2.713   6.132  18.419  0.00  0.00    +0.000 A 
ATOM     31  C   UNL     1       2.177   6.414  19.692  0.00  0.00    +0.000 A 
ATOM     32  C   UNL     1       1.553   5.355  20.400  0.00  0.00    +0.000 A 
BRANCH  27  34
ATOM     33  C   UNL     1       1.500   2.540  21.680  0.00  0.00    +0.000 C 
ATOM     34  O   UNL     1       0.898   2.977  20.470  0.00  0.00    +0.000 OA
ENDBRANCH  27  34
BRANCH  30  35
ATOM     35  O   UNL     1       3.347   7.141  17.734  0.00  0.00    +0.000 OA
ATOM     36  C   UNL     1       4.496   6.730  16.988  0.00  0.00    +0.000 C 
ENDBRANCH  30  35
ENDBRANCH  26  31
ENDBRANCH  22  26
ENDBRANCH  21  23
ENDBRANCH  20  21
ENDBRANCH   1  20
TORSDOF 8
ENDMDL
MODEL 5
REMARK VINA RESULT:      -7.5      3.245      9.732
REMARK  Name = 
REMARK  11 active torsions:
REMARK  status: ('A' for Active; 'I' for Inactive)
REMARK    1  A    between atoms: C_1  and  O_2
REMARK    2  A    between atoms: O_2  and  C_3
REMARK    3  A    between atoms: C_6  and  O_7
REMARK    4  A    between atoms: O_7  and  C_8
REMARK    5  A    between atoms: C_9  and  C_10
REMARK    6  A    between atoms: C_10  and  N_11
REMARK    7  A    between atoms: C_12  and  C_14
REMARK    8  A    between atoms: C_14  and  C_15
REMARK    9  A    between atoms: C_15  and  C_16
REMARK   10  A    between atoms: C_24  and  O_25
REMARK   11  A    between atoms: O_25  and  C_26
REMARK                            x       y       z     vdW  Elec       q    Type
REMARK                         _______ _______ _______ _____ _____    ______ ____
ROOT
ATOM      1  C   UNL     1       1.085   9.396  19.360  0.00  0.00    +0.000 C 
ATOM      2  O   UNL     1       1.901   9.528  18.435  0.00  0.00    +0.000 OA
ATOM      3  N   UNL     1      -0.221   9.925  19.247  0.00  0.00    +0.000 N 
ATOM      4  C   UNL     1      -0.487  10.391  17.869  0.00  0.00    +0.000 C 
ATOM      5  C   UNL     1      -1.924  10.531  17.444  0.00  0.00    +0.000 A 
ATOM      6  C   UNL     1      -2.289   9.923  16.220  0.00  0.00    +0.000 A 
ATOM      7  C   UNL     1      -3.542  10.127  15.665  0.00  0.00    +0.000 A 
ATOM      8  C   UNL     1      -4.467  10.924  16.325  0.00  0.00    +0.000 A 
ATOM      9  C   UNL     1      -4.140  11.552  17.537  0.00  0.00    +0.000 A 
ATOM     10  C   UNL     1      -2.860  11.356  18.102  0.00  0.00    +0.000 A 
ATOM     11  O   UNL     1      -2.570  12.051  19.249  0.00  0.00    +0.000 OA
ATOM     12  C   UNL     1      -1.328  11.993  19.817  0.00  0.00    +0.000 A 
ATOM     13  N   UNL     1      -0.700  13.177  19.960  0.00  0.00    +0.000 NA
ATOM     14  C   UNL     1       0.388  13.173  20.753  0.00  0.00    +0.000 A 
ATOM     15  C   UNL     1       0.672  12.130  21.614  0.00  0.00    +0.000 A 
ATOM     16  C   UNL     1      -0.050  10.953  21.460  0.00  0.00    +0.000 A 
ATOM     17  C   UNL     1      -0.773  10.804  20.285  0.00  0.00    +0.000 A 
ENDROOT
BRANCH   9  18
ATOM     18  O   UNL     1      -5.180  12.324  17.988  0.00  0.00    +0.000 OA
ATOM     19  C   UNL     1      -6.520  11.945  17.722  0.00  0.00    +0.000 C 
ENDBRANCH   9  18
BRANCH   1  20
ATOM     20  C   UNL     1       1.516   8.621  20.600  0.00  0.00    +0.000 C 
BRANCH  20  21
ATOM     21  C   UNL     1       0.989   7.193  20.487  0.00  0.00    +0.000 C 
BRANCH  21  23
ATOM     22  N   UNL     1       3.115   6.430  19.700  0.00  0.00    +0.000 N 
ATOM     23  C   UNL     1       2.047   6.115  20.525  0.00  0.00    +0.000 C 
ATOM     24  O   UNL     1       1.967   5.093  21.185  0.00  0.00    +0.000 OA
ATOM     25  H   UNL     1       3.102   7.292  19.152  0.00  0.00    +0.000 HD
BRANCH  22  26
ATOM     26  C   UNL     1       4.279   5.595  19.585  0.00  0.00    +0.000 C 
BRANCH  26  31
ATOM     27  C   UNL     1       6.100   5.082  16.290  0.00  0.00    +0.000 A 
ATOM     28  C   UNL     1       5.370   4.078  15.671  0.00  0.00    +0.000 A 
ATOM     29  C   UNL     1       4.253   3.532  16.302  0.00  0.00    +0.000 A 
ATOM     30  C   UNL     1       3.827   4.000  17.555  0.00  0.00    +0.000 A 
ATOM     31  C   UNL     1       4.573   4.995  18.219  0.00  0.00    +0.000 A 
ATOM     32  C   UNL     1       5.710   5.525  17.557  0.00  0.00    +0.000 A 
BRANCH  27  34
ATOM     33  C   UNL     1       7.254   5.085  14.216  0.00  0.00    +0.000 C 
ATOM     34  O   UNL     1       7.156   5.542  15.557  0.00  0.00    +0.000 OA
ENDBRANCH  27  34
BRANCH  30  35
ATOM     35  O   UNL     1       2.705   3.499  18.172  0.00  0.00    +0.000 OA
ATOM     36  C   UNL     1       2.826   2.149  18.630  0.00  0.00    +0.000 C 
ENDBRANCH  30  35
ENDBRANCH  26  31
ENDBRANCH  22  26
ENDBRANCH  21  23
ENDBRANCH  20  21
ENDBRANCH   1  20
TORSDOF 8
ENDMDL
MODEL 6
REMARK VINA RESULT:      -7.5      2.881     11.289
REMARK  Name = 
REMARK  11 active torsions:
REMARK  status: ('A' for Active; 'I' for Inactive)
REMARK    1  A    between atoms: C_1  and  O_2
REMARK    2  A    between atoms: O_2  and  C_3
REMARK    3  A    between atoms: C_6  and  O_7
REMARK    4  A    between atoms: O_7  and  C_8
REMARK    5  A    between atoms: C_9  and  C_10
REMARK    6  A    between atoms: C_10  and  N_11
REMARK    7  A    between atoms: C_12  and  C_14
REMARK    8  A    between atoms: C_14  and  C_15
REMARK    9  A    between atoms: C_15  and  C_16
REMARK   10  A    between atoms: C_24  and  O_25
REMARK   11  A    between atoms: O_25  and  C_26
REMARK                            x       y       z     vdW  Elec       q    Type
REMARK                         _______ _______ _______ _____ _____    ______ ____
ROOT
ATOM      1  C   UNL     1       0.985  12.147  19.900  0.00  0.00    +0.000 C 
ATOM      2  O   UNL     1       2.029  12.762  20.161  0.00  0.00    +0.000 OA
ATOM      3  N   UNL     1      -0.123  12.205  20.776  0.00  0.00    +0.000 N 
ATOM      4  C   UNL     1       0.083  13.231  21.823  0.00  0.00    +0.000 C 
ATOM      5  C   UNL     1      -1.136  13.763  22.528  0.00  0.00    +0.000 A 
ATOM      6  C   UNL     1      -1.262  15.169  22.610  0.00  0.00    +0.000 A 
ATOM      7  C   UNL     1      -2.259  15.756  23.372  0.00  0.00    +0.000 A 
ATOM      8  C   UNL     1      -3.165  14.956  24.054  0.00  0.00    +0.000 A 
ATOM      9  C   UNL     1      -3.069  13.556  24.005  0.00  0.00    +0.000 A 
ATOM     10  C   UNL     1      -2.047  12.953  23.239  0.00  0.00    +0.000 A 
ATOM     11  O   UNL     1      -1.955  11.585  23.286  0.00  0.00    +0.000 OA
ATOM     12  C   UNL     1      -0.944  10.921  22.647  0.00  0.00    +0.000 A 
ATOM     13  N   UNL     1      -0.173  10.146  23.435  0.00  0.00    +0.000 NA
ATOM     14  C   UNL     1       0.641   9.285  22.795  0.00  0.00    +0.000 A 
ATOM     15  C   UNL     1       0.486   8.977  21.457  0.00  0.00    +0.000 A 
ATOM     16  C   UNL     1      -0.370   9.773  20.707  0.00  0.00    +0.000 A 
ATOM     17  C   UNL     1      -0.764  10.980  21.268  0.00  0.00    +0.000 A 
ENDROOT
BRANCH   9  18
ATOM     18  O   UNL     1      -4.032  12.969  24.784  0.00  0.00    +0.000 OA
ATOM     19  C   UNL     1      -5.343  12.776  24.279  0.00  0.00    +0.000 C 
ENDBRANCH   9  18
BRANCH   1  20
ATOM     20  C   UNL     1       0.916  11.360  18.595  0.00  0.00    +0.000 C 
BRANCH  20  21
ATOM     21  C   UNL     1       2.093  10.390  18.551  0.00  0.00    +0.000 C 
BRANCH  21  23
ATOM     22  N   UNL     1       2.750   8.102  18.330  0.00  0.00    +0.000 N 
ATOM     23  C   UNL     1       1.777   9.025  17.986  0.00  0.00    +0.000 C 
ATOM     24  O   UNL     1       0.799   8.771  17.303  0.00  0.00    +0.000 OA
ATOM     25  H   UNL     1       3.560   8.392  18.882  0.00  0.00    +0.000 HD
BRANCH  22  26
ATOM     26  C   UNL     1       2.672   6.716  17.958  0.00  0.00    +0.000 C 
BRANCH  26  31
ATOM     27  C   UNL     1       6.306   6.446  16.884  0.00  0.00    +0.000 A 
ATOM     28  C   UNL     1       6.466   5.094  16.622  0.00  0.00    +0.000 A 
ATOM     29  C   UNL     1       5.393   4.218  16.782  0.00  0.00    +0.000 A 
ATOM     30  C   UNL     1       4.129   4.683  17.180  0.00  0.00    +0.000 A 
ATOM     31  C   UNL     1       3.953   6.047  17.486  0.00  0.00    +0.000 A 
ATOM     32  C   UNL     1       5.064   6.914  17.323  0.00  0.00    +0.000 A 
BRANCH  27  34
ATOM     33  C   UNL     1       7.844   8.044  17.730  0.00  0.00    +0.000 C 
ATOM     34  O   UNL     1       7.427   7.196  16.669  0.00  0.00    +0.000 OA
ENDBRANCH  27  34
BRANCH  30  35
ATOM     35  O   UNL     1       3.053   3.837  17.304  0.00  0.00    +0.000 OA
ATOM     36  C   UNL     1       3.340   2.593  17.950  0.00  0.00    +0.000 C 
ENDBRANCH  30  35
ENDBRANCH  26  31
ENDBRANCH  22  26
ENDBRANCH  21  23
ENDBRANCH  20  21
ENDBRANCH   1  20
TORSDOF 8
ENDMDL
MODEL 7
REMARK VINA RESULT:      -7.5      4.102     10.235
REMARK  Name = 
REMARK  11 active torsions:
REMARK  status: ('A' for Active; 'I' for Inactive)
REMARK    1  A    between atoms: C_1  and  O_2
REMARK    2  A    between atoms: O_2  and  C_3
REMARK    3  A    between atoms: C_6  and  O_7
REMARK    4  A    between atoms: O_7  and  C_8
REMARK    5  A    between atoms: C_9  and  C_10
REMARK    6  A    between atoms: C_10  and  N_11
REMARK    7  A    between atoms: C_12  and  C_14
REMARK    8  A    between atoms: C_14  and  C_15
REMARK    9  A    between atoms: C_15  and  C_16
REMARK   10  A    between atoms: C_24  and  O_25
REMARK   11  A    between atoms: O_25  and  C_26
REMARK                            x       y       z     vdW  Elec       q    Type
REMARK                         _______ _______ _______ _____ _____    ______ ____
ROOT
ATOM      1  C   UNL     1       0.517  11.255  20.212  0.00  0.00    +0.000 C 
ATOM      2  O   UNL     1       1.262  11.073  21.187  0.00  0.00    +0.000 OA
ATOM      3  N   UNL     1       0.440  12.524  19.593  0.00  0.00    +0.000 N 
ATOM      4  C   UNL     1       1.489  13.430  20.109  0.00  0.00    +0.000 C 
ATOM      5  C   UNL     1       1.867  14.615  19.261  0.00  0.00    +0.000 A 
ATOM      6  C   UNL     1       3.246  14.812  19.018  0.00  0.00    +0.000 A 
ATOM      7  C   UNL     1       3.706  15.956  18.387  0.00  0.00    +0.000 A 
ATOM      8  C   UNL     1       2.802  16.921  17.965  0.00  0.00    +0.000 A 
ATOM      9  C   UNL     1       1.426  16.766  18.194  0.00  0.00    +0.000 A 
ATOM     10  C   UNL     1       0.952  15.607  18.848  0.00  0.00    +0.000 A 
ATOM     11  O   UNL     1      -0.393  15.542  19.112  0.00  0.00    +0.000 OA
ATOM     12  C   UNL     1      -0.927  14.500  19.817  0.00  0.00    +0.000 A 
ATOM     13  N   UNL     1      -1.593  14.841  20.938  0.00  0.00    +0.000 NA
ATOM     14  C   UNL     1      -2.347  13.872  21.491  0.00  0.00    +0.000 A 
ATOM     15  C   UNL     1      -2.681  12.717  20.811  0.00  0.00    +0.000 A 
ATOM     16  C   UNL     1      -2.005  12.447  19.628  0.00  0.00    +0.000 A 
ATOM     17  C   UNL     1      -0.854  13.181  19.376  0.00  0.00    +0.000 A 
ENDROOT
BRANCH   9  18
ATOM     18  O   UNL     1       0.725  17.854  17.738  0.00  0.00    +0.000 OA
ATOM     19  C   UNL     1       0.977  18.376  16.445  0.00  0.00    +0.000 C 
ENDBRANCH   9  18
BRANCH   1  20
ATOM     20  C   UNL     1      -0.280  10.069  19.679  0.00  0.00    +0.000 C 
BRANCH  20  21
ATOM     21  C   UNL     1       0.113   9.836  18.223  0.00  0.00    +0.000 C 
BRANCH  21  23
ATOM     22  N   UNL     1       1.916   8.268  18.312  0.00  0.00    +0.000 N 
ATOM     23  C   UNL     1       1.583   9.573  17.991  0.00  0.00    +0.000 C 
ATOM     24  O   UNL     1       2.377  10.406  17.587  0.00  0.00    +0.000 OA
ATOM     25  H   UNL     1       1.203   7.630  18.674  0.00  0.00    +0.000 HD
BRANCH  22  26
ATOM     26  C   UNL     1       3.242   7.741  18.142  0.00  0.00    +0.000 C 
BRANCH  26  31
ATOM     27  C   UNL     1       2.308   4.061  18.016  0.00  0.00    +0.000 A 
ATOM     28  C   UNL     1       3.326   3.495  17.263  0.00  0.00    +0.000 A 
ATOM     29  C   UNL     1       4.359   4.291  16.772  0.00  0.00    +0.000 A 
ATOM     30  C   UNL     1       4.410   5.667  17.047  0.00  0.00    +0.000 A 
ATOM     31  C   UNL     1       3.367   6.270  17.779  0.00  0.00    +0.000 A 
ATOM     32  C   UNL     1       2.324   5.437  18.259  0.00  0.00    +0.000 A 
BRANCH  27  34
ATOM     33  C   UNL     1       0.923   3.314  19.793  0.00  0.00    +0.000 C 
ATOM     34  O   UNL     1       1.369   3.170  18.452  0.00  0.00    +0.000 OA
ENDBRANCH  27  34
BRANCH  30  35
ATOM     35  O   UNL     1       5.443   6.457  16.602  0.00  0.00    +0.000 OA
ATOM     36  C   UNL     1       6.733   5.843  16.655  0.00  0.00    +0.000 C 
ENDBRANCH  30  35
ENDBRANCH  26  31
ENDBRANCH  22  26
ENDBRANCH  21  23
ENDBRANCH  20  21
ENDBRANCH   1  20
TORSDOF 8
ENDMDL
MODEL 8
REMARK VINA RESULT:      -7.5      3.034     10.638
REMARK  Name = 
REMARK  11 active torsions:
REMARK  status: ('A' for Active; 'I' for Inactive)
REMARK    1  A    between atoms: C_1  and  O_2
REMARK    2  A    between atoms: O_2  and  C_3
REMARK    3  A    between atoms: C_6  and  O_7
REMARK    4  A    between atoms: O_7  and  C_8
REMARK    5  A    between atoms: C_9  and  C_10
REMARK    6  A    between atoms: C_10  and  N_11
REMARK    7  A    between atoms: C_12  and  C_14
REMARK    8  A    between atoms: C_14  and  C_15
REMARK    9  A    between atoms: C_15  and  C_16
REMARK   10  A    between atoms: C_24  and  O_25
REMARK   11  A    between atoms: O_25  and  C_26
REMARK                            x       y       z     vdW  Elec       q    Type
REMARK                         _______ _______ _______ _____ _____    ______ ____
ROOT
ATOM      1  C   UNL     1       0.167   9.457  20.985  0.00  0.00    +0.000 C 
ATOM      2  O   UNL     1      -0.471   8.765  21.793  0.00  0.00    +0.000 OA
ATOM      3  N   UNL     1      -0.181  10.810  20.765  0.00  0.00    +0.000 N 
ATOM      4  C   UNL     1      -1.177  11.269  21.758  0.00  0.00    +0.000 C 
ATOM      5  C   UNL     1      -1.303  12.751  21.985  0.00  0.00    +0.000 A 
ATOM      6  C   UNL     1      -1.268  13.196  23.327  0.00  0.00    +0.000 A 
ATOM      7  C   UNL     1      -1.535  14.516  23.652  0.00  0.00    +0.000 A 
ATOM      8  C   UNL     1      -1.822  15.428  22.646  0.00  0.00    +0.000 A 
ATOM      9  C   UNL     1      -1.875  15.025  21.303  0.00  0.00    +0.000 A 
ATOM     10  C   UNL     1      -1.616  13.677  20.967  0.00  0.00    +0.000 A 
ATOM     11  O   UNL     1      -1.753  13.323  19.649  0.00  0.00    +0.000 OA
ATOM     12  C   UNL     1      -1.608  12.025  19.246  0.00  0.00    +0.000 A 
ATOM     13  N   UNL     1      -2.672  11.494  18.612  0.00  0.00    +0.000 NA
ATOM     14  C   UNL     1      -2.455  10.327  17.975  0.00  0.00    +0.000 A 
ATOM     15  C   UNL     1      -1.183   9.857  17.708  0.00  0.00    +0.000 A 
ATOM     16  C   UNL     1      -0.118  10.483  18.342  0.00  0.00    +0.000 A 
ATOM     17  C   UNL     1      -0.420  11.318  19.409  0.00  0.00    +0.000 A 
ENDROOT
BRANCH   9  18
ATOM     18  O   UNL     1      -2.219  16.072  20.487  0.00  0.00    +0.000 OA
ATOM     19  C   UNL     1      -3.334  16.889  20.802  0.00  0.00    +0.000 C 
ENDBRANCH   9  18
BRANCH   1  20
ATOM     20  C   UNL     1       1.353   8.822  20.268  0.00  0.00    +0.000 C 
BRANCH  20  21
ATOM     21  C   UNL     1       1.657   7.480  20.928  0.00  0.00    +0.000 C 
BRANCH  21  23
ATOM     22  N   UNL     1       2.561   6.874  18.799  0.00  0.00    +0.000 N 
ATOM     23  C   UNL     1       2.036   6.369  19.977  0.00  0.00    +0.000 C 
ATOM     24  O   UNL     1       1.885   5.181  20.209  0.00  0.00    +0.000 OA
ATOM     25  H   UNL     1       2.632   7.885  18.660  0.00  0.00    +0.000 HD
BRANCH  22  26
ATOM     26  C   UNL     1       3.043   6.031  17.740  0.00  0.00    +0.000 C 
BRANCH  26  31
ATOM     27  C   UNL     1       6.748   6.714  17.246  0.00  0.00    +0.000 A 
ATOM     28  C   UNL     1       7.344   5.500  17.554  0.00  0.00    +0.000 A 
ATOM     29  C   UNL     1       6.560   4.411  17.930  0.00  0.00    +0.000 A 
ATOM     30  C   UNL     1       5.160   4.506  17.979  0.00  0.00    +0.000 A 
ATOM     31  C   UNL     1       4.535   5.739  17.705  0.00  0.00    +0.000 A 
ATOM     32  C   UNL     1       5.358   6.833  17.333  0.00  0.00    +0.000 A 
BRANCH  27  34
ATOM     33  C   UNL     1       7.929   8.684  17.844  0.00  0.00    +0.000 C 
ATOM     34  O   UNL     1       7.625   7.693  16.873  0.00  0.00    +0.000 OA
ENDBRANCH  27  34
BRANCH  30  35
ATOM     35  O   UNL     1       4.372   3.429  18.311  0.00  0.00    +0.000 OA
ATOM     36  C   UNL     1       4.503   2.986  19.665  0.00  0.00    +0.000 C 
ENDBRANCH  30  35
ENDBRANCH  26  31
ENDBRANCH  22  26
ENDBRANCH  21  23
ENDBRANCH  20  21
ENDBRANCH   1  20
TORSDOF 8
ENDMDL
MODEL 9
REMARK VINA RESULT:      -7.5      3.777     11.228
REMARK  Name = 
REMARK  11 active torsions:
REMARK  status: ('A' for Active; 'I' for Inactive)
REMARK    1  A    between atoms: C_1  and  O_2
REMARK    2  A    between atoms: O_2  and  C_3
REMARK    3  A    between atoms: C_6  and  O_7
REMARK    4  A    between atoms: O_7  and  C_8
REMARK    5  A    between atoms: C_9  and  C_10
REMARK    6  A    between atoms: C_10  and  N_11
REMARK    7  A    between atoms: C_12  and  C_14
REMARK    8  A    between atoms: C_14  and  C_15
REMARK    9  A    between atoms: C_15  and  C_16
REMARK   10  A    between atoms: C_24  and  O_25
REMARK   11  A    between atoms: O_25  and  C_26
REMARK                            x       y       z     vdW  Elec       q    Type
REMARK                         _______ _______ _______ _____ _____    ______ ____
ROOT
ATOM      1  C   UNL     1      -0.265  11.715  19.452  0.00  0.00    +0.000 C 
ATOM      2  O   UNL     1       0.055  12.376  18.453  0.00  0.00    +0.000 OA
ATOM      3  N   UNL     1      -1.606  11.694  19.902  0.00  0.00    +0.000 N 
ATOM      4  C   UNL     1      -2.505  12.333  18.916  0.00  0.00    +0.000 C 
ATOM      5  C   UNL     1      -3.969  11.990  18.981  0.00  0.00    +0.000 A 
ATOM      6  C   UNL     1      -4.588  11.601  17.771  0.00  0.00    +0.000 A 
ATOM      7  C   UNL     1      -5.959  11.419  17.693  0.00  0.00    +0.000 A 
ATOM      8  C   UNL     1      -6.743  11.601  18.824  0.00  0.00    +0.000 A 
ATOM      9  C   UNL     1      -6.168  11.995  20.042  0.00  0.00    +0.000 A 
ATOM     10  C   UNL     1      -4.771  12.193  20.124  0.00  0.00    +0.000 A 
ATOM     11  O   UNL     1      -4.274  12.649  21.319  0.00  0.00    +0.000 OA
ATOM     12  C   UNL     1      -2.948  12.952  21.463  0.00  0.00    +0.000 A 
ATOM     13  N   UNL     1      -2.682  14.215  21.849  0.00  0.00    +0.000 NA
ATOM     14  C   UNL     1      -1.421  14.452  22.256  0.00  0.00    +0.000 A 
ATOM     15  C   UNL     1      -0.541  13.433  22.566  0.00  0.00    +0.000 A 
ATOM     16  C   UNL     1      -0.895  12.141  22.199  0.00  0.00    +0.000 A 
ATOM     17  C   UNL     1      -1.941  12.005  21.296  0.00  0.00    +0.000 A 
ENDROOT
BRANCH   9  18
ATOM     18  O   UNL     1      -7.127  12.160  21.009  0.00  0.00    +0.000 OA
ATOM     19  C   UNL     1      -7.916  11.059  21.429  0.00  0.00    +0.000 C 
ENDBRANCH   9  18
BRANCH   1  20
ATOM     20  C   UNL     1       0.814  10.900  20.157  0.00  0.00    +0.000 C 
BRANCH  20  21
ATOM     21  C   UNL     1       0.783   9.477  19.608  0.00  0.00    +0.000 C 
BRANCH  21  23
ATOM     22  N   UNL     1       2.419   7.988  18.699  0.00  0.00    +0.000 N 
ATOM     23  C   UNL     1       1.771   9.196  18.499  0.00  0.00    +0.000 C 
ATOM     24  O   UNL     1       1.981   9.942  17.558  0.00  0.00    +0.000 OA
ATOM     25  H   UNL     1       2.214   7.427  19.529  0.00  0.00    +0.000 HD
BRANCH  22  26
ATOM     26  C   UNL     1       3.379   7.460  17.769  0.00  0.00    +0.000 C 
BRANCH  26  31
ATOM     27  C   UNL     1       2.434   3.824  18.340  0.00  0.00    +0.000 A 
ATOM     28  C   UNL     1       3.374   3.126  17.597  0.00  0.00    +0.000 A 
ATOM     29  C   UNL     1       4.354   3.814  16.884  0.00  0.00    +0.000 A 
ATOM     30  C   UNL     1       4.433   5.215  16.923  0.00  0.00    +0.000 A 
ATOM     31  C   UNL     1       3.467   5.947  17.643  0.00  0.00    +0.000 A 
ATOM     32  C   UNL     1       2.475   5.221  18.352  0.00  0.00    +0.000 A 
BRANCH  27  34
ATOM     33  C   UNL     1       0.894   3.603  20.132  0.00  0.00    +0.000 C 
ATOM     34  O   UNL     1       1.543   3.032  19.006  0.00  0.00    +0.000 OA
ENDBRANCH  27  34
BRANCH  30  35
ATOM     35  O   UNL     1       5.417   5.904  16.256  0.00  0.00    +0.000 OA
ATOM     36  C   UNL     1       6.728   5.766  16.812  0.00  0.00    +0.000 C 
ENDBRANCH  30  35
ENDBRANCH  26  31
ENDBRANCH  22  26
ENDBRANCH  21  23
ENDBRANCH  20  21
ENDBRANCH   1  20
TORSDOF 8
ENDMDL
