MODEL 1
REMARK VINA RESULT:      -7.8      0.000      0.000
REMARK  Name = 
REMARK  11 active torsions:
REMARK  status: ('A' for Active; 'I' for Inactive)
REMARK    1  A    between atoms: C_1  and  C_2
REMARK    2  A    between atoms: C_5  and  C_6
REMARK    3  A    between atoms: C_6  and  C_7
REMARK    4  A    between atoms: C_6  and  N_8
REMARK    5  A    between atoms: N_8  and  C_9
REMARK    6  A    between atoms: C_9  and  C_10
REMARK    7  A    between atoms: C_9  and  C_20
REMARK    8  A    between atoms: C_12  and  C_13
REMARK    9  A    between atoms: C_20  and  C_21
REMARK   10  A    between atoms: C_20  and  C_22
REMARK   11  A    between atoms: C_20  and  C_23
REMARK                            x       y       z     vdW  Elec       q    Type
REMARK                         _______ _______ _______ _____ _____    ______ ____
ROOT
ATOM      1  C   UNL     1       3.071   4.909  19.155  0.00  0.00    +0.000 C 
ENDROOT
BRANCH   1   2
ATOM      2  C   UNL     1       2.546   6.248  19.611  0.00  0.00    +0.000 A 
ATOM      3  N   UNL     1       2.128   6.627  20.800  0.00  0.00    +0.000 NA
ATOM      4  C   UNL     1       1.647   7.889  20.549  0.00  0.00    +0.000 A 
ATOM      5  N   UNL     1       1.796   8.305  19.286  0.00  0.00    +0.000 NA
ATOM      6  O   UNL     1       2.384   7.208  18.652  0.00  0.00    +0.000 OA
BRANCH   4   7
ATOM      7  C   UNL     1       0.967   8.649  21.622  0.00  0.00    +0.000 A 
ATOM      8  N   UNL     1       1.500   9.444  22.527  0.00  0.00    +0.000 NA
ATOM      9  N   UNL     1       0.471   9.983  23.273  0.00  0.00    +0.000 NA
ATOM     10  C   UNL     1      -0.657   9.498  22.806  0.00  0.00    +0.000 A 
ATOM     11  N   UNL     1      -0.393   8.648  21.782  0.00  0.00    +0.000 N 
ATOM     12  H   UNL     1      -1.046   8.127  21.214  0.00  0.00    +0.000 HD
ENDBRANCH   4   7
ENDBRANCH   1   2
BRANCH   1  13
ATOM     13  C   UNL     1       1.910   3.845  19.037  0.00  0.00    +0.000 C 
ATOM     14  C   UNL     1       2.471   2.410  19.177  0.00  0.00    +0.000 C 
ATOM     15  C   UNL     1       0.873   4.023  20.172  0.00  0.00    +0.000 C 
ATOM     16  C   UNL     1       1.175   3.951  17.687  0.00  0.00    +0.000 C 
ENDBRANCH   1  13
BRANCH   1  17
ATOM     17  N   UNL     1       3.827   5.024  17.872  0.00  0.00    +0.000 NA
ATOM     18  H   UNL     1       3.307   4.526  17.149  0.00  0.00    +0.000 HD
BRANCH  17  19
ATOM     19  C   UNL     1       5.174   4.415  17.902  0.00  0.00    +0.000 C 
ATOM     20  C   UNL     1       5.983   5.056  19.034  0.00  0.00    +0.000 C 
BRANCH  19  25
ATOM     21  C   UNL     1       5.731   3.632  13.169  0.00  0.00    +0.000 C 
ATOM     22  C   UNL     1       6.148   4.217  14.458  0.00  0.00    +0.000 A 
ATOM     23  C   UNL     1       7.229   4.972  14.858  0.00  0.00    +0.000 A 
ATOM     24  C   UNL     1       7.059   5.211  16.242  0.00  0.00    +0.000 A 
ATOM     25  C   UNL     1       5.882   4.587  16.599  0.00  0.00    +0.000 A 
ATOM     26  O   UNL     1       5.326   3.976  15.514  0.00  0.00    +0.000 OA
ENDBRANCH  19  25
ENDBRANCH  17  19
ENDBRANCH   1  17
TORSDOF 6
ENDMDL
MODEL 2
REMARK VINA RESULT:      -7.6      3.433      8.065
REMARK  Name = 
REMARK  11 active torsions:
REMARK  status: ('A' for Active; 'I' for Inactive)
REMARK    1  A    between atoms: C_1  and  C_2
REMARK    2  A    between atoms: C_5  and  C_6
REMARK    3  A    between atoms: C_6  and  C_7
REMARK    4  A    between atoms: C_6  and  N_8
REMARK    5  A    between atoms: N_8  and  C_9
REMARK    6  A    between atoms: C_9  and  C_10
REMARK    7  A    between atoms: C_9  and  C_20
REMARK    8  A    between atoms: C_12  and  C_13
REMARK    9  A    between atoms: C_20  and  C_21
REMARK   10  A    between atoms: C_20  and  C_22
REMARK   11  A    between atoms: C_20  and  C_23
REMARK                            x       y       z     vdW  Elec       q    Type
REMARK                         _______ _______ _______ _____ _____    ______ ____
ROOT
ATOM      1  C   UNL     1       5.587   5.636  17.300  0.00  0.00    +0.000 C 
ENDROOT
BRANCH   1   2
ATOM      2  C   UNL     1       5.836   5.279  15.856  0.00  0.00    +0.000 A 
ATOM      3  N   UNL     1       5.198   4.432  15.076  0.00  0.00    +0.000 NA
ATOM      4  C   UNL     1       5.974   4.441  13.942  0.00  0.00    +0.000 A 
ATOM      5  N   UNL     1       7.016   5.281  13.982  0.00  0.00    +0.000 NA
ATOM      6  O   UNL     1       6.936   5.833  15.263  0.00  0.00    +0.000 OA
BRANCH   4   7
ATOM      7  C   UNL     1       5.666   3.519  12.827  0.00  0.00    +0.000 A 
ATOM      8  N   UNL     1       4.543   3.400  12.150  0.00  0.00    +0.000 NA
ATOM      9  N   UNL     1       4.745   2.457  11.160  0.00  0.00    +0.000 NA
ATOM     10  C   UNL     1       5.982   2.025  11.267  0.00  0.00    +0.000 A 
ATOM     11  N   UNL     1       6.590   2.652  12.306  0.00  0.00    +0.000 N 
ATOM     12  H   UNL     1       7.539   2.545  12.635  0.00  0.00    +0.000 HD
ENDBRANCH   4   7
ENDBRANCH   1   2
BRANCH   1  13
ATOM     13  C   UNL     1       6.927   5.622  18.136  0.00  0.00    +0.000 C 
ATOM     14  C   UNL     1       6.630   5.382  19.635  0.00  0.00    +0.000 C 
ATOM     15  C   UNL     1       7.856   4.470  17.683  0.00  0.00    +0.000 C 
ATOM     16  C   UNL     1       7.697   6.950  18.000  0.00  0.00    +0.000 C 
ENDBRANCH   1  13
BRANCH   1  17
ATOM     17  N   UNL     1       4.887   6.948  17.429  0.00  0.00    +0.000 NA
ATOM     18  H   UNL     1       5.144   7.362  18.325  0.00  0.00    +0.000 HD
BRANCH  17  19
ATOM     19  C   UNL     1       3.412   6.855  17.428  0.00  0.00    +0.000 C 
ATOM     20  C   UNL     1       2.828   8.226  17.782  0.00  0.00    +0.000 C 
BRANCH  19  25
ATOM     21  C   UNL     1       1.245   2.683  18.536  0.00  0.00    +0.000 C 
ATOM     22  C   UNL     1       1.928   3.941  18.896  0.00  0.00    +0.000 A 
ATOM     23  C   UNL     1       2.252   4.542  20.093  0.00  0.00    +0.000 A 
ATOM     24  C   UNL     1       2.897   5.758  19.767  0.00  0.00    +0.000 A 
ATOM     25  C   UNL     1       2.927   5.822  18.390  0.00  0.00    +0.000 A 
ATOM     26  O   UNL     1       2.332   4.717  17.855  0.00  0.00    +0.000 OA
ENDBRANCH  19  25
ENDBRANCH  17  19
ENDBRANCH   1  17
TORSDOF 6
ENDMDL
MODEL 3
REMARK VINA RESULT:      -7.5      1.208      1.625
REMARK  Name = 
REMARK  11 active torsions:
REMARK  status: ('A' for Active; 'I' for Inactive)
REMARK    1  A    between atoms: C_1  and  C_2
REMARK    2  A    between atoms: C_5  and  C_6
REMARK    3  A    between atoms: C_6  and  C_7
REMARK    4  A    between atoms: C_6  and  N_8
REMARK    5  A    between atoms: N_8  and  C_9
REMARK    6  A    between atoms: C_9  and  C_10
REMARK    7  A    between atoms: C_9  and  C_20
REMARK    8  A    between atoms: C_12  and  C_13
REMARK    9  A    between atoms: C_20  and  C_21
REMARK   10  A    between atoms: C_20  and  C_22
REMARK   11  A    between atoms: C_20  and  C_23
REMARK                            x       y       z     vdW  Elec       q    Type
REMARK                         _______ _______ _______ _____ _____    ______ ____
ROOT
ATOM      1  C   UNL     1       3.653   5.445  18.425  0.00  0.00    +0.000 C 
ENDROOT
BRANCH   1   2
ATOM      2  C   UNL     1       2.923   6.665  18.932  0.00  0.00    +0.000 A 
ATOM      3  N   UNL     1       2.464   6.930  20.136  0.00  0.00    +0.000 NA
ATOM      4  C   UNL     1       1.782   8.106  19.934  0.00  0.00    +0.000 A 
ATOM      5  N   UNL     1       1.846   8.583  18.685  0.00  0.00    +0.000 NA
ATOM      6  O   UNL     1       2.596   7.618  18.008  0.00  0.00    +0.000 OA
BRANCH   4   7
ATOM      7  C   UNL     1       1.000   8.708  21.037  0.00  0.00    +0.000 A 
ATOM      8  N   UNL     1      -0.257   9.100  21.030  0.00  0.00    +0.000 NA
ATOM      9  N   UNL     1      -0.570   9.536  22.303  0.00  0.00    +0.000 NA
ATOM     10  C   UNL     1       0.506   9.403  23.045  0.00  0.00    +0.000 A 
ATOM     11  N   UNL     1       1.516   8.902  22.290  0.00  0.00    +0.000 N 
ATOM     12  H   UNL     1       2.461   8.679  22.572  0.00  0.00    +0.000 HD
ENDBRANCH   4   7
ENDBRANCH   1   2
BRANCH   1  13
ATOM     13  C   UNL     1       2.734   4.162  18.478  0.00  0.00    +0.000 C 
ATOM     14  C   UNL     1       3.450   2.954  17.830  0.00  0.00    +0.000 C 
ATOM     15  C   UNL     1       2.425   3.757  19.939  0.00  0.00    +0.000 C 
ATOM     16  C   UNL     1       1.398   4.386  17.743  0.00  0.00    +0.000 C 
ENDBRANCH   1  13
BRANCH   1  17
ATOM     17  N   UNL     1       4.195   5.662  17.050  0.00  0.00    +0.000 NA
ATOM     18  H   UNL     1       3.797   4.952  16.434  0.00  0.00    +0.000 HD
BRANCH  17  19
ATOM     19  C   UNL     1       5.662   5.522  16.945  0.00  0.00    +0.000 C 
ATOM     20  C   UNL     1       6.308   6.895  17.155  0.00  0.00    +0.000 C 
BRANCH  19  25
ATOM     21  C   UNL     1       8.225   5.552  12.852  0.00  0.00    +0.000 C 
ATOM     22  C   UNL     1       7.213   4.979  13.759  0.00  0.00    +0.000 A 
ATOM     23  C   UNL     1       6.360   3.900  13.677  0.00  0.00    +0.000 A 
ATOM     24  C   UNL     1       5.618   3.885  14.881  0.00  0.00    +0.000 A 
ATOM     25  C   UNL     1       6.066   4.957  15.624  0.00  0.00    +0.000 A 
ATOM     26  O   UNL     1       7.037   5.629  14.940  0.00  0.00    +0.000 OA
ENDBRANCH  19  25
ENDBRANCH  17  19
ENDBRANCH   1  17
TORSDOF 6
ENDMDL
MODEL 4
REMARK VINA RESULT:      -7.4      1.140      1.632
REMARK  Name = 
REMARK  11 active torsions:
REMARK  status: ('A' for Active; 'I' for Inactive)
REMARK    1  A    between atoms: C_1  and  C_2
REMARK    2  A    between atoms: C_5  and  C_6
REMARK    3  A    between atoms: C_6  and  C_7
REMARK    4  A    between atoms: C_6  and  N_8
REMARK    5  A    between atoms: N_8  and  C_9
REMARK    6  A    between atoms: C_9  and  C_10
REMARK    7  A    between atoms: C_9  and  C_20
REMARK    8  A    between atoms: C_12  and  C_13
REMARK    9  A    between atoms: C_20  and  C_21
REMARK   10  A    between atoms: C_20  and  C_22
REMARK   11  A    between atoms: C_20  and  C_23
REMARK                            x       y       z     vdW  Elec       q    Type
REMARK                         _______ _______ _______ _____ _____    ______ ____
ROOT
ATOM      1  C   UNL     1       3.312   5.785  18.741  0.00  0.00    +0.000 C 
ENDROOT
BRANCH   1   2
ATOM      2  C   UNL     1       2.588   7.026  19.202  0.00  0.00    +0.000 A 
ATOM      3  N   UNL     1       2.241   7.395  20.416  0.00  0.00    +0.000 NA
ATOM      4  C   UNL     1       1.495   8.523  20.175  0.00  0.00    +0.000 A 
ATOM      5  N   UNL     1       1.414   8.876  18.886  0.00  0.00    +0.000 NA
ATOM      6  O   UNL     1       2.131   7.872  18.231  0.00  0.00    +0.000 OA
BRANCH   4   7
ATOM      7  C   UNL     1       0.804   9.207  21.291  0.00  0.00    +0.000 A 
ATOM      8  N   UNL     1       1.028  10.410  21.777  0.00  0.00    +0.000 NA
ATOM      9  N   UNL     1       0.095  10.645  22.768  0.00  0.00    +0.000 NA
ATOM     10  C   UNL     1      -0.666   9.577  22.860  0.00  0.00    +0.000 A 
ATOM     11  N   UNL     1      -0.249   8.647  21.965  0.00  0.00    +0.000 N 
ATOM     12  H   UNL     1      -0.633   7.730  21.786  0.00  0.00    +0.000 HD
ENDBRANCH   4   7
ENDBRANCH   1   2
BRANCH   1  13
ATOM     13  C   UNL     1       2.376   4.515  18.805  0.00  0.00    +0.000 C 
ATOM     14  C   UNL     1       1.409   4.491  17.598  0.00  0.00    +0.000 C 
ATOM     15  C   UNL     1       3.202   3.208  18.731  0.00  0.00    +0.000 C 
ATOM     16  C   UNL     1       1.540   4.488  20.099  0.00  0.00    +0.000 C 
ENDBRANCH   1  13
BRANCH   1  17
ATOM     17  N   UNL     1       3.886   5.961  17.373  0.00  0.00    +0.000 NA
ATOM     18  H   UNL     1       3.480   5.251  16.763  0.00  0.00    +0.000 HD
BRANCH  17  19
ATOM     19  C   UNL     1       5.351   5.777  17.299  0.00  0.00    +0.000 C 
ATOM     20  C   UNL     1       6.027   7.150  17.374  0.00  0.00    +0.000 C 
BRANCH  19  25
ATOM     21  C   UNL     1       7.927   5.343  13.237  0.00  0.00    +0.000 C 
ATOM     22  C   UNL     1       6.905   4.881  14.195  0.00  0.00    +0.000 A 
ATOM     23  C   UNL     1       6.040   3.809  14.225  0.00  0.00    +0.000 A 
ATOM     24  C   UNL     1       5.294   3.930  15.421  0.00  0.00    +0.000 A 
ATOM     25  C   UNL     1       5.753   5.070  16.047  0.00  0.00    +0.000 A 
ATOM     26  O   UNL     1       6.732   5.655  15.300  0.00  0.00    +0.000 OA
ENDBRANCH  19  25
ENDBRANCH  17  19
ENDBRANCH   1  17
TORSDOF 6
ENDMDL
MODEL 5
REMARK VINA RESULT:      -7.4      1.314      1.999
REMARK  Name = 
REMARK  11 active torsions:
REMARK  status: ('A' for Active; 'I' for Inactive)
REMARK    1  A    between atoms: C_1  and  C_2
REMARK    2  A    between atoms: C_5  and  C_6
REMARK    3  A    between atoms: C_6  and  C_7
REMARK    4  A    between atoms: C_6  and  N_8
REMARK    5  A    between atoms: N_8  and  C_9
REMARK    6  A    between atoms: C_9  and  C_10
REMARK    7  A    between atoms: C_9  and  C_20
REMARK    8  A    between atoms: C_12  and  C_13
REMARK    9  A    between atoms: C_20  and  C_21
REMARK   10  A    between atoms: C_20  and  C_22
REMARK   11  A    between atoms: C_20  and  C_23
REMARK                            x       y       z     vdW  Elec       q    Type
REMARK                         _______ _______ _______ _____ _____    ______ ____
ROOT
ATOM      1  C   UNL     1       3.817   4.949  18.254  0.00  0.00    +0.000 C 
ENDROOT
BRANCH   1   2
ATOM      2  C   UNL     1       3.155   6.243  18.654  0.00  0.00    +0.000 A 
ATOM      3  N   UNL     1       2.701   6.628  19.828  0.00  0.00    +0.000 NA
ATOM      4  C   UNL     1       2.088   7.821  19.525  0.00  0.00    +0.000 A 
ATOM      5  N   UNL     1       2.190   8.193  18.244  0.00  0.00    +0.000 NA
ATOM      6  O   UNL     1       2.889   7.137  17.655  0.00  0.00    +0.000 OA
BRANCH   4   7
ATOM      7  C   UNL     1       1.333   8.551  20.568  0.00  0.00    +0.000 A 
ATOM      8  N   UNL     1       0.261   9.302  20.426  0.00  0.00    +0.000 NA
ATOM      9  N   UNL     1      -0.129   9.722  21.683  0.00  0.00    +0.000 NA
ATOM     10  C   UNL     1       0.719   9.220  22.552  0.00  0.00    +0.000 A 
ATOM     11  N   UNL     1       1.659   8.493  21.897  0.00  0.00    +0.000 N 
ATOM     12  H   UNL     1       2.437   7.977  22.284  0.00  0.00    +0.000 HD
ENDBRANCH   4   7
ENDBRANCH   1   2
BRANCH   1  13
ATOM     13  C   UNL     1       2.844   3.720  18.447  0.00  0.00    +0.000 C 
ATOM     14  C   UNL     1       1.436   4.051  17.899  0.00  0.00    +0.000 C 
ATOM     15  C   UNL     1       3.342   2.485  17.660  0.00  0.00    +0.000 C 
ATOM     16  C   UNL     1       2.708   3.328  19.931  0.00  0.00    +0.000 C 
ENDBRANCH   1  13
BRANCH   1  17
ATOM     17  N   UNL     1       4.338   5.008  16.856  0.00  0.00    +0.000 NA
ATOM     18  H   UNL     1       3.981   4.198  16.348  0.00  0.00    +0.000 HD
BRANCH  17  19
ATOM     19  C   UNL     1       5.810   4.944  16.750  0.00  0.00    +0.000 C 
ATOM     20  C   UNL     1       6.400   6.274  17.228  0.00  0.00    +0.000 C 
BRANCH  19  25
ATOM     21  C   UNL     1       8.449   5.814  12.800  0.00  0.00    +0.000 C 
ATOM     22  C   UNL     1       7.429   5.060  13.554  0.00  0.00    +0.000 A 
ATOM     23  C   UNL     1       6.596   4.008  13.242  0.00  0.00    +0.000 A 
ATOM     24  C   UNL     1       5.832   3.746  14.403  0.00  0.00    +0.000 A 
ATOM     25  C   UNL     1       6.249   4.656  15.353  0.00  0.00    +0.000 A 
ATOM     26  O   UNL     1       7.220   5.462  14.836  0.00  0.00    +0.000 OA
ENDBRANCH  19  25
ENDBRANCH  17  19
ENDBRANCH   1  17
TORSDOF 6
ENDMDL
MODEL 6
REMARK VINA RESULT:      -7.4      1.169      1.617
REMARK  Name = 
REMARK  11 active torsions:
REMARK  status: ('A' for Active; 'I' for Inactive)
REMARK    1  A    between atoms: C_1  and  C_2
REMARK    2  A    between atoms: C_5  and  C_6
REMARK    3  A    between atoms: C_6  and  C_7
REMARK    4  A    between atoms: C_6  and  N_8
REMARK    5  A    between atoms: N_8  and  C_9
REMARK    6  A    between atoms: C_9  and  C_10
REMARK    7  A    between atoms: C_9  and  C_20
REMARK    8  A    between atoms: C_12  and  C_13
REMARK    9  A    between atoms: C_20  and  C_21
REMARK   10  A    between atoms: C_20  and  C_22
REMARK   11  A    between atoms: C_20  and  C_23
REMARK                            x       y       z     vdW  Elec       q    Type
REMARK                         _______ _______ _______ _____ _____    ______ ____
ROOT
ATOM      1  C   UNL     1       3.536   5.533  18.500  0.00  0.00    +0.000 C 
ENDROOT
BRANCH   1   2
ATOM      2  C   UNL     1       2.820   6.776  18.969  0.00  0.00    +0.000 A 
ATOM      3  N   UNL     1       2.466   7.134  20.185  0.00  0.00    +0.000 NA
ATOM      4  C   UNL     1       1.733   8.272  19.950  0.00  0.00    +0.000 A 
ATOM      5  N   UNL     1       1.667   8.641  18.665  0.00  0.00    +0.000 NA
ATOM      6  O   UNL     1       2.380   7.638  18.005  0.00  0.00    +0.000 OA
BRANCH   4   7
ATOM      7  C   UNL     1       1.038   8.950  21.068  0.00  0.00    +0.000 A 
ATOM      8  N   UNL     1       1.415   9.048  22.326  0.00  0.00    +0.000 NA
ATOM      9  N   UNL     1       0.484   9.827  22.985  0.00  0.00    +0.000 NA
ATOM     10  C   UNL     1      -0.434  10.176  22.112  0.00  0.00    +0.000 A 
ATOM     11  N   UNL     1      -0.135   9.637  20.903  0.00  0.00    +0.000 N 
ATOM     12  H   UNL     1      -0.639   9.729  20.032  0.00  0.00    +0.000 HD
ENDBRANCH   4   7
ENDBRANCH   1   2
BRANCH   1  13
ATOM     13  C   UNL     1       2.609   4.260  18.608  0.00  0.00    +0.000 C 
ATOM     14  C   UNL     1       2.043   4.119  20.041  0.00  0.00    +0.000 C 
ATOM     15  C   UNL     1       1.388   4.376  17.664  0.00  0.00    +0.000 C 
ATOM     16  C   UNL     1       3.372   2.968  18.258  0.00  0.00    +0.000 C 
ENDBRANCH   1  13
BRANCH   1  17
ATOM     17  N   UNL     1       4.067   5.696  17.114  0.00  0.00    +0.000 NA
ATOM     18  H   UNL     1       3.683   4.949  16.535  0.00  0.00    +0.000 HD
BRANCH  17  19
ATOM     19  C   UNL     1       5.537   5.586  17.007  0.00  0.00    +0.000 C 
ATOM     20  C   UNL     1       6.153   6.978  17.177  0.00  0.00    +0.000 C 
BRANCH  19  25
ATOM     21  C   UNL     1       8.162   5.505  12.954  0.00  0.00    +0.000 C 
ATOM     22  C   UNL     1       7.124   4.966  13.852  0.00  0.00    +0.000 A 
ATOM     23  C   UNL     1       6.249   3.904  13.772  0.00  0.00    +0.000 A 
ATOM     24  C   UNL     1       5.489   3.921  14.965  0.00  0.00    +0.000 A 
ATOM     25  C   UNL     1       5.949   4.994  15.700  0.00  0.00    +0.000 A 
ATOM     26  O   UNL     1       6.943   5.636  15.022  0.00  0.00    +0.000 OA
ENDBRANCH  19  25
ENDBRANCH  17  19
ENDBRANCH   1  17
TORSDOF 6
ENDMDL
MODEL 7
REMARK VINA RESULT:      -7.3      0.838      1.371
REMARK  Name = 
REMARK  11 active torsions:
REMARK  status: ('A' for Active; 'I' for Inactive)
REMARK    1  A    between atoms: C_1  and  C_2
REMARK    2  A    between atoms: C_5  and  C_6
REMARK    3  A    between atoms: C_6  and  C_7
REMARK    4  A    between atoms: C_6  and  N_8
REMARK    5  A    between atoms: N_8  and  C_9
REMARK    6  A    between atoms: C_9  and  C_10
REMARK    7  A    between atoms: C_9  and  C_20
REMARK    8  A    between atoms: C_12  and  C_13
REMARK    9  A    between atoms: C_20  and  C_21
REMARK   10  A    between atoms: C_20  and  C_22
REMARK   11  A    between atoms: C_20  and  C_23
REMARK                            x       y       z     vdW  Elec       q    Type
REMARK                         _______ _______ _______ _____ _____    ______ ____
ROOT
ATOM      1  C   UNL     1       3.452   4.478  18.979  0.00  0.00    +0.000 C 
ENDROOT
BRANCH   1   2
ATOM      2  C   UNL     1       2.920   5.872  19.203  0.00  0.00    +0.000 A 
ATOM      3  N   UNL     1       2.422   6.417  20.292  0.00  0.00    +0.000 NA
ATOM      4  C   UNL     1       1.985   7.636  19.833  0.00  0.00    +0.000 A 
ATOM      5  N   UNL     1       2.236   7.870  18.539  0.00  0.00    +0.000 NA
ATOM      6  O   UNL     1       2.848   6.690  18.110  0.00  0.00    +0.000 OA
BRANCH   4   7
ATOM      7  C   UNL     1       1.241   8.545  20.734  0.00  0.00    +0.000 A 
ATOM      8  N   UNL     1       0.239   9.347  20.441  0.00  0.00    +0.000 NA
ATOM      9  N   UNL     1      -0.176   9.948  21.614  0.00  0.00    +0.000 NA
ATOM     10  C   UNL     1       0.589   9.500  22.584  0.00  0.00    +0.000 A 
ATOM     11  N   UNL     1       1.499   8.631  22.076  0.00  0.00    +0.000 N 
ATOM     12  H   UNL     1       2.215   8.113  22.567  0.00  0.00    +0.000 HD
ENDBRANCH   4   7
ENDBRANCH   1   2
BRANCH   1  13
ATOM     13  C   UNL     1       2.333   3.390  19.217  0.00  0.00    +0.000 C 
ATOM     14  C   UNL     1       1.099   3.676  18.329  0.00  0.00    +0.000 C 
ATOM     15  C   UNL     1       2.834   1.979  18.829  0.00  0.00    +0.000 C 
ATOM     16  C   UNL     1       1.876   3.356  20.688  0.00  0.00    +0.000 C 
ENDBRANCH   1  13
BRANCH   1  17
ATOM     17  N   UNL     1       4.061   4.335  17.623  0.00  0.00    +0.000 NA
ATOM     18  H   UNL     1       3.663   3.506  17.180  0.00  0.00    +0.000 HD
BRANCH  17  19
ATOM     19  C   UNL     1       5.525   4.133  17.630  0.00  0.00    +0.000 C 
ATOM     20  C   UNL     1       6.145   5.040  18.697  0.00  0.00    +0.000 C 
BRANCH  19  25
ATOM     21  C   UNL     1       5.911   3.500  12.858  0.00  0.00    +0.000 C 
ATOM     22  C   UNL     1       6.316   4.121  14.134  0.00  0.00    +0.000 A 
ATOM     23  C   UNL     1       7.301   5.016  14.489  0.00  0.00    +0.000 A 
ATOM     24  C   UNL     1       7.180   5.210  15.885  0.00  0.00    +0.000 A 
ATOM     25  C   UNL     1       6.125   4.420  16.294  0.00  0.00    +0.000 A 
ATOM     26  O   UNL     1       5.599   3.751  15.228  0.00  0.00    +0.000 OA
ENDBRANCH  19  25
ENDBRANCH  17  19
ENDBRANCH   1  17
TORSDOF 6
ENDMDL
MODEL 8
REMARK VINA RESULT:      -7.3      1.881      2.853
REMARK  Name = 
REMARK  11 active torsions:
REMARK  status: ('A' for Active; 'I' for Inactive)
REMARK    1  A    between atoms: C_1  and  C_2
REMARK    2  A    between atoms: C_5  and  C_6
REMARK    3  A    between atoms: C_6  and  C_7
REMARK    4  A    between atoms: C_6  and  N_8
REMARK    5  A    between atoms: N_8  and  C_9
REMARK    6  A    between atoms: C_9  and  C_10
REMARK    7  A    between atoms: C_9  and  C_20
REMARK    8  A    between atoms: C_12  and  C_13
REMARK    9  A    between atoms: C_20  and  C_21
REMARK   10  A    between atoms: C_20  and  C_22
REMARK   11  A    between atoms: C_20  and  C_23
REMARK                            x       y       z     vdW  Elec       q    Type
REMARK                         _______ _______ _______ _____ _____    ______ ____
ROOT
ATOM      1  C   UNL     1       4.104   5.097  17.808  0.00  0.00    +0.000 C 
ENDROOT
BRANCH   1   2
ATOM      2  C   UNL     1       3.420   6.373  18.231  0.00  0.00    +0.000 A 
ATOM      3  N   UNL     1       2.890   6.698  19.391  0.00  0.00    +0.000 NA
ATOM      4  C   UNL     1       2.302   7.909  19.112  0.00  0.00    +0.000 A 
ATOM      5  N   UNL     1       2.491   8.348  17.862  0.00  0.00    +0.000 NA
ATOM      6  O   UNL     1       3.225   7.320  17.266  0.00  0.00    +0.000 OA
BRANCH   4   7
ATOM      7  C   UNL     1       1.481   8.588  20.139  0.00  0.00    +0.000 A 
ATOM      8  N   UNL     1       0.563   9.516  19.969  0.00  0.00    +0.000 NA
ATOM      9  N   UNL     1       0.017   9.800  21.207  0.00  0.00    +0.000 NA
ATOM     10  C   UNL     1       0.623   9.042  22.093  0.00  0.00    +0.000 A 
ATOM     11  N   UNL     1       1.556   8.279  21.471  0.00  0.00    +0.000 N 
ATOM     12  H   UNL     1       2.176   7.591  21.875  0.00  0.00    +0.000 HD
ENDBRANCH   4   7
ENDBRANCH   1   2
BRANCH   1  13
ATOM     13  C   UNL     1       3.311   3.825  18.307  0.00  0.00    +0.000 C 
ATOM     14  C   UNL     1       3.450   3.665  19.839  0.00  0.00    +0.000 C 
ATOM     15  C   UNL     1       1.797   3.963  18.016  0.00  0.00    +0.000 C 
ATOM     16  C   UNL     1       3.820   2.536  17.634  0.00  0.00    +0.000 C 
ENDBRANCH   1  13
BRANCH   1  17
ATOM     17  N   UNL     1       4.317   5.052  16.331  0.00  0.00    +0.000 NA
ATOM     18  H   UNL     1       4.005   4.142  15.990  0.00  0.00    +0.000 HD
BRANCH  17  19
ATOM     19  C   UNL     1       5.729   5.184  15.914  0.00  0.00    +0.000 C 
ATOM     20  C   UNL     1       6.261   3.804  15.518  0.00  0.00    +0.000 C 
BRANCH  19  25
ATOM     21  C   UNL     1       8.174   8.793  17.993  0.00  0.00    +0.000 C 
ATOM     22  C   UNL     1       7.695   7.399  17.935  0.00  0.00    +0.000 A 
ATOM     23  C   UNL     1       7.886   6.290  18.729  0.00  0.00    +0.000 A 
ATOM     24  C   UNL     1       7.159   5.237  18.126  0.00  0.00    +0.000 A 
ATOM     25  C   UNL     1       6.569   5.771  17.000  0.00  0.00    +0.000 A 
ATOM     26  O   UNL     1       6.896   7.089  16.878  0.00  0.00    +0.000 OA
ENDBRANCH  19  25
ENDBRANCH  17  19
ENDBRANCH   1  17
TORSDOF 6
ENDMDL
MODEL 9
REMARK VINA RESULT:      -7.3      2.656      7.067
REMARK  Name = 
REMARK  11 active torsions:
REMARK  status: ('A' for Active; 'I' for Inactive)
REMARK    1  A    between atoms: C_1  and  C_2
REMARK    2  A    between atoms: C_5  and  C_6
REMARK    3  A    between atoms: C_6  and  C_7
REMARK    4  A    between atoms: C_6  and  N_8
REMARK    5  A    between atoms: N_8  and  C_9
REMARK    6  A    between atoms: C_9  and  C_10
REMARK    7  A    between atoms: C_9  and  C_20
REMARK    8  A    between atoms: C_12  and  C_13
REMARK    9  A    between atoms: C_20  and  C_21
REMARK   10  A    between atoms: C_20  and  C_22
REMARK   11  A    between atoms: C_20  and  C_23
REMARK                            x       y       z     vdW  Elec       q    Type
REMARK                         _______ _______ _______ _____ _____    ______ ____
ROOT
ATOM      1  C   UNL     1       3.210   4.175  19.456  0.00  0.00    +0.000 C 
ENDROOT
BRANCH   1   2
ATOM      2  C   UNL     1       4.443   4.446  18.629  0.00  0.00    +0.000 A 
ATOM      3  N   UNL     1       4.558   4.658  17.336  0.00  0.00    +0.000 NA
ATOM      4  C   UNL     1       5.922   4.692  17.168  0.00  0.00    +0.000 A 
ATOM      5  N   UNL     1       6.628   4.557  18.297  0.00  0.00    +0.000 NA
ATOM      6  O   UNL     1       5.646   4.379  19.273  0.00  0.00    +0.000 OA
BRANCH   4   7
ATOM      7  C   UNL     1       6.498   4.802  15.809  0.00  0.00    +0.000 A 
ATOM      8  N   UNL     1       7.425   5.632  15.379  0.00  0.00    +0.000 NA
ATOM      9  N   UNL     1       7.690   5.321  14.059  0.00  0.00    +0.000 NA
ATOM     10  C   UNL     1       6.913   4.316  13.723  0.00  0.00    +0.000 A 
ATOM     11  N   UNL     1       6.141   3.969  14.783  0.00  0.00    +0.000 N 
ATOM     12  H   UNL     1       5.453   3.231  14.844  0.00  0.00    +0.000 HD
ENDBRANCH   4   7
ENDBRANCH   1   2
BRANCH   1  13
ATOM     13  C   UNL     1       3.141   2.664  19.909  0.00  0.00    +0.000 C 
ATOM     14  C   UNL     1       1.983   1.933  19.191  0.00  0.00    +0.000 C 
ATOM     15  C   UNL     1       4.438   1.908  19.531  0.00  0.00    +0.000 C 
ATOM     16  C   UNL     1       2.930   2.534  21.430  0.00  0.00    +0.000 C 
ENDBRANCH   1  13
BRANCH   1  17
ATOM     17  N   UNL     1       3.125   5.093  20.631  0.00  0.00    +0.000 NA
ATOM     18  H   UNL     1       3.151   4.529  21.480  0.00  0.00    +0.000 HD
BRANCH  17  19
ATOM     19  C   UNL     1       1.875   5.880  20.699  0.00  0.00    +0.000 C 
ATOM     20  C   UNL     1       0.702   4.985  20.291  0.00  0.00    +0.000 C 
BRANCH  19  25
ATOM     21  C   UNL     1       0.882  10.484  19.628  0.00  0.00    +0.000 C 
ATOM     22  C   UNL     1       1.472   9.166  19.323  0.00  0.00    +0.000 A 
ATOM     23  C   UNL     1       2.139   8.648  18.235  0.00  0.00    +0.000 A 
ATOM     24  C   UNL     1       2.441   7.303  18.555  0.00  0.00    +0.000 A 
ATOM     25  C   UNL     1       1.937   7.085  19.820  0.00  0.00    +0.000 A 
ATOM     26  O   UNL     1       1.342   8.219  20.290  0.00  0.00    +0.000 OA
ENDBRANCH  19  25
ENDBRANCH  17  19
ENDBRANCH   1  17
TORSDOF 6
ENDMDL
