MODEL 1
REMARK VINA RESULT:      -6.9      0.000      0.000
REMARK  Name = 
REMARK  7 active torsions:
REMARK  status: ('A' for Active; 'I' for Inactive)
REMARK    1  A    between atoms: C_1  and  C_2
REMARK    2  A    between atoms: C_5  and  C_6
REMARK    3  A    between atoms: C_6  and  N_7
REMARK    4  A    between atoms: C_11  and  O_12
REMARK    5  A    between atoms: C_11  and  C_13
REMARK    6  A    between atoms: C_13  and  O_14
REMARK    7  A    between atoms: C_18  and  C_19
REMARK                            x       y       z     vdW  Elec       q    Type
REMARK                         _______ _______ _______ _____ _____    ______ ____
ROOT
ATOM      1  N   UNL     1       1.468   8.299  19.528  0.00  0.00    +0.000 NA
ATOM      2  C   UNL     1       1.139   8.867  20.839  0.00  0.00    +0.000 C 
ATOM      3  C   UNL     1       0.085   9.974  20.914  0.00  0.00    +0.000 C 
ATOM      4  C   UNL     1       0.563  11.257  20.241  0.00  0.00    +0.000 C 
ATOM      5  C   UNL     1       0.205  11.327  18.752  0.00  0.00    +0.000 C 
ATOM      6  C   UNL     1       0.384   9.992  18.011  0.00  0.00    +0.000 C 
ATOM      7  C   UNL     1       1.656   9.228  18.407  0.00  0.00    +0.000 C 
ENDROOT
BRANCH   5   8
ATOM      8  O   UNL     1       1.084  12.280  18.117  0.00  0.00    +0.000 OA
ATOM      9  H   UNL     1       1.089  13.090  18.657  0.00  0.00    +0.000 HD
ENDBRANCH   5   8
BRANCH   1  10
ATOM     10  C   UNL     1       2.581   7.322  19.625  0.00  0.00    +0.000 C 
BRANCH  10  15
ATOM     11  C   UNL     1       0.994   1.755  18.749  0.00  0.00    +0.000 C 
ATOM     12  C   UNL     1       1.444   3.167  19.008  0.00  0.00    +0.000 A 
ATOM     13  C   UNL     1       1.717   4.009  17.922  0.00  0.00    +0.000 A 
ATOM     14  C   UNL     1       2.114   5.329  18.126  0.00  0.00    +0.000 A 
ATOM     15  C   UNL     1       2.221   5.857  19.419  0.00  0.00    +0.000 A 
ATOM     16  C   UNL     1       1.977   5.006  20.508  0.00  0.00    +0.000 A 
ATOM     17  C   UNL     1       1.598   3.665  20.317  0.00  0.00    +0.000 A 
ATOM     18  C   UNL     1       1.359   2.789  21.517  0.00  0.00    +0.000 C 
ENDBRANCH  10  15
ENDBRANCH   1  10
BRANCH   5  19
ATOM     19  C   UNL     1      -1.233  11.870  18.573  0.00  0.00    +0.000 C 
BRANCH  19  20
ATOM     20  O   UNL     1      -1.351  12.609  17.357  0.00  0.00    +0.000 OA
ATOM     21  H   UNL     1      -0.911  13.463  17.523  0.00  0.00    +0.000 HD
ENDBRANCH  19  20
ENDBRANCH   5  19
TORSDOF 5
ENDMDL
MODEL 2
REMARK VINA RESULT:      -6.7      3.941      7.271
REMARK  Name = 
REMARK  7 active torsions:
REMARK  status: ('A' for Active; 'I' for Inactive)
REMARK    1  A    between atoms: C_1  and  C_2
REMARK    2  A    between atoms: C_5  and  C_6
REMARK    3  A    between atoms: C_6  and  N_7
REMARK    4  A    between atoms: C_11  and  O_12
REMARK    5  A    between atoms: C_11  and  C_13
REMARK    6  A    between atoms: C_13  and  O_14
REMARK    7  A    between atoms: C_18  and  C_19
REMARK                            x       y       z     vdW  Elec       q    Type
REMARK                         _______ _______ _______ _____ _____    ______ ____
ROOT
ATOM      1  N   UNL     1       2.914   6.268  18.383  0.00  0.00    +0.000 NA
ATOM      2  C   UNL     1       1.706   5.570  17.933  0.00  0.00    +0.000 C 
ATOM      3  C   UNL     1       1.613   4.057  18.141  0.00  0.00    +0.000 C 
ATOM      4  C   UNL     1       2.624   3.305  17.282  0.00  0.00    +0.000 C 
ATOM      5  C   UNL     1       3.971   3.092  17.984  0.00  0.00    +0.000 C 
ATOM      6  C   UNL     1       4.447   4.312  18.788  0.00  0.00    +0.000 C 
ATOM      7  C   UNL     1       4.212   5.654  18.079  0.00  0.00    +0.000 C 
ENDROOT
BRANCH   5   8
ATOM      8  O   UNL     1       4.973   2.838  16.976  0.00  0.00    +0.000 OA
ATOM      9  H   UNL     1       5.309   3.698  16.664  0.00  0.00    +0.000 HD
ENDBRANCH   5   8
BRANCH   1  10
ATOM     10  C   UNL     1       2.883   7.703  18.005  0.00  0.00    +0.000 C 
BRANCH  10  15
ATOM     11  C   UNL     1      -0.936  11.226  20.703  0.00  0.00    +0.000 C 
ATOM     12  C   UNL     1       0.019  10.276  20.032  0.00  0.00    +0.000 A 
ATOM     13  C   UNL     1       0.214  10.365  18.648  0.00  0.00    +0.000 A 
ATOM     14  C   UNL     1       1.107   9.515  17.998  0.00  0.00    +0.000 A 
ATOM     15  C   UNL     1       1.855   8.572  18.716  0.00  0.00    +0.000 A 
ATOM     16  C   UNL     1       1.637   8.462  20.097  0.00  0.00    +0.000 A 
ATOM     17  C   UNL     1       0.721   9.297  20.762  0.00  0.00    +0.000 A 
ATOM     18  C   UNL     1       0.515   9.132  22.243  0.00  0.00    +0.000 C 
ENDBRANCH  10  15
ENDBRANCH   1  10
BRANCH   5  19
ATOM     19  C   UNL     1       3.917   1.828  18.874  0.00  0.00    +0.000 C 
BRANCH  19  20
ATOM     20  O   UNL     1       4.956   1.848  19.853  0.00  0.00    +0.000 OA
ATOM     21  H   UNL     1       4.594   2.341  20.613  0.00  0.00    +0.000 HD
ENDBRANCH  19  20
ENDBRANCH   5  19
TORSDOF 5
ENDMDL
MODEL 3
REMARK VINA RESULT:      -6.7      4.634      7.375
REMARK  Name = 
REMARK  7 active torsions:
REMARK  status: ('A' for Active; 'I' for Inactive)
REMARK    1  A    between atoms: C_1  and  C_2
REMARK    2  A    between atoms: C_5  and  C_6
REMARK    3  A    between atoms: C_6  and  N_7
REMARK    4  A    between atoms: C_11  and  O_12
REMARK    5  A    between atoms: C_11  and  C_13
REMARK    6  A    between atoms: C_13  and  O_14
REMARK    7  A    between atoms: C_18  and  C_19
REMARK                            x       y       z     vdW  Elec       q    Type
REMARK                         _______ _______ _______ _____ _____    ______ ____
ROOT
ATOM      1  N   UNL     1       4.457   5.906  18.139  0.00  0.00    +0.000 NA
ATOM      2  C   UNL     1       5.812   6.004  18.691  0.00  0.00    +0.000 C 
ATOM      3  C   UNL     1       7.002   5.892  17.734  0.00  0.00    +0.000 C 
ATOM      4  C   UNL     1       7.117   4.494  17.137  0.00  0.00    +0.000 C 
ATOM      5  C   UNL     1       6.338   4.332  15.826  0.00  0.00    +0.000 C 
ATOM      6  C   UNL     1       4.964   5.021  15.837  0.00  0.00    +0.000 C 
ATOM      7  C   UNL     1       4.194   4.850  17.155  0.00  0.00    +0.000 C 
ENDROOT
BRANCH   5   8
ATOM      8  O   UNL     1       6.099   2.924  15.610  0.00  0.00    +0.000 OA
ATOM      9  H   UNL     1       6.034   2.775  14.650  0.00  0.00    +0.000 HD
ENDBRANCH   5   8
BRANCH   1  10
ATOM     10  C   UNL     1       3.433   5.925  19.214  0.00  0.00    +0.000 C 
BRANCH  10  15
ATOM     11  C   UNL     1       0.127  10.753  19.395  0.00  0.00    +0.000 C 
ATOM     12  C   UNL     1       0.933   9.483  19.370  0.00  0.00    +0.000 A 
ATOM     13  C   UNL     1       1.554   9.089  18.177  0.00  0.00    +0.000 A 
ATOM     14  C   UNL     1       2.326   7.930  18.124  0.00  0.00    +0.000 A 
ATOM     15  C   UNL     1       2.525   7.146  19.268  0.00  0.00    +0.000 A 
ATOM     16  C   UNL     1       1.879   7.522  20.454  0.00  0.00    +0.000 A 
ATOM     17  C   UNL     1       1.078   8.677  20.516  0.00  0.00    +0.000 A 
ATOM     18  C   UNL     1       0.396   9.032  21.809  0.00  0.00    +0.000 C 
ENDBRANCH  10  15
ENDBRANCH   1  10
BRANCH   5  19
ATOM     19  C   UNL     1       7.192   4.820  14.632  0.00  0.00    +0.000 C 
BRANCH  19  20
ATOM     20  O   UNL     1       6.708   4.277  13.403  0.00  0.00    +0.000 OA
ATOM     21  H   UNL     1       5.753   4.129  13.538  0.00  0.00    +0.000 HD
ENDBRANCH  19  20
ENDBRANCH   5  19
TORSDOF 5
ENDMDL
MODEL 4
REMARK VINA RESULT:      -6.6      4.138      7.255
REMARK  Name = 
REMARK  7 active torsions:
REMARK  status: ('A' for Active; 'I' for Inactive)
REMARK    1  A    between atoms: C_1  and  C_2
REMARK    2  A    between atoms: C_5  and  C_6
REMARK    3  A    between atoms: C_6  and  N_7
REMARK    4  A    between atoms: C_11  and  O_12
REMARK    5  A    between atoms: C_11  and  C_13
REMARK    6  A    between atoms: C_13  and  O_14
REMARK    7  A    between atoms: C_18  and  C_19
REMARK                            x       y       z     vdW  Elec       q    Type
REMARK                         _______ _______ _______ _____ _____    ______ ____
ROOT
ATOM      1  N   UNL     1       3.833   6.762  17.766  0.00  0.00    +0.000 NA
ATOM      2  C   UNL     1       3.430   5.364  17.587  0.00  0.00    +0.000 C 
ATOM      3  C   UNL     1       4.503   4.276  17.669  0.00  0.00    +0.000 C 
ATOM      4  C   UNL     1       5.486   4.363  16.506  0.00  0.00    +0.000 C 
ATOM      5  C   UNL     1       6.693   5.260  16.803  0.00  0.00    +0.000 C 
ATOM      6  C   UNL     1       6.334   6.546  17.565  0.00  0.00    +0.000 C 
ATOM      7  C   UNL     1       5.043   7.219  17.073  0.00  0.00    +0.000 C 
ENDROOT
BRANCH   5   8
ATOM      8  O   UNL     1       7.277   5.668  15.547  0.00  0.00    +0.000 OA
ATOM      9  H   UNL     1       6.596   6.147  15.042  0.00  0.00    +0.000 HD
ENDBRANCH   5   8
BRANCH   1  10
ATOM     10  C   UNL     1       2.692   7.687  17.547  0.00  0.00    +0.000 C 
BRANCH  10  15
ATOM     11  C   UNL     1      -0.220   9.427  22.318  0.00  0.00    +0.000 C 
ATOM     12  C   UNL     1       0.552   9.031  21.089  0.00  0.00    +0.000 A 
ATOM     13  C   UNL     1       1.343   7.876  21.120  0.00  0.00    +0.000 A 
ATOM     14  C   UNL     1       2.054   7.468  19.993  0.00  0.00    +0.000 A 
ATOM     15  C   UNL     1       1.971   8.186  18.792  0.00  0.00    +0.000 A 
ATOM     16  C   UNL     1       1.204   9.359  18.769  0.00  0.00    +0.000 A 
ATOM     17  C   UNL     1       0.500   9.795  19.906  0.00  0.00    +0.000 A 
ATOM     18  C   UNL     1      -0.300  11.067  19.835  0.00  0.00    +0.000 C 
ENDBRANCH  10  15
ENDBRANCH   1  10
BRANCH   5  19
ATOM     19  C   UNL     1       7.784   4.460  17.553  0.00  0.00    +0.000 C 
BRANCH  19  20
ATOM     20  O   UNL     1       7.810   4.806  18.938  0.00  0.00    +0.000 OA
ATOM     21  H   UNL     1       8.400   5.581  19.005  0.00  0.00    +0.000 HD
ENDBRANCH  19  20
ENDBRANCH   5  19
TORSDOF 5
ENDMDL
MODEL 5
REMARK VINA RESULT:      -6.6      3.852      7.432
REMARK  Name = 
REMARK  7 active torsions:
REMARK  status: ('A' for Active; 'I' for Inactive)
REMARK    1  A    between atoms: C_1  and  C_2
REMARK    2  A    between atoms: C_5  and  C_6
REMARK    3  A    between atoms: C_6  and  N_7
REMARK    4  A    between atoms: C_11  and  O_12
REMARK    5  A    between atoms: C_11  and  C_13
REMARK    6  A    between atoms: C_13  and  O_14
REMARK    7  A    between atoms: C_18  and  C_19
REMARK                            x       y       z     vdW  Elec       q    Type
REMARK                         _______ _______ _______ _____ _____    ______ ____
ROOT
ATOM      1  N   UNL     1       2.502   6.314  18.754  0.00  0.00    +0.000 NA
ATOM      2  C   UNL     1       1.606   5.538  17.891  0.00  0.00    +0.000 C 
ATOM      3  C   UNL     1       1.704   4.011  17.918  0.00  0.00    +0.000 C 
ATOM      4  C   UNL     1       3.029   3.520  17.343  0.00  0.00    +0.000 C 
ATOM      5  C   UNL     1       4.131   3.384  18.400  0.00  0.00    +0.000 C 
ATOM      6  C   UNL     1       4.149   4.531  19.423  0.00  0.00    +0.000 C 
ATOM      7  C   UNL     1       3.914   5.918  18.806  0.00  0.00    +0.000 C 
ENDROOT
BRANCH   5   8
ATOM      8  O   UNL     1       5.409   3.402  17.729  0.00  0.00    +0.000 OA
ATOM      9  H   UNL     1       5.301   3.887  16.891  0.00  0.00    +0.000 HD
ENDBRANCH   5   8
BRANCH   1  10
ATOM     10  C   UNL     1       2.349   7.773  18.521  0.00  0.00    +0.000 C 
BRANCH  10  15
ATOM     11  C   UNL     1      -0.749  10.610  22.600  0.00  0.00    +0.000 C 
ATOM     12  C   UNL     1       0.076   9.929  21.542  0.00  0.00    +0.000 A 
ATOM     13  C   UNL     1       0.747   8.740  21.856  0.00  0.00    +0.000 A 
ATOM     14  C   UNL     1       1.502   8.071  20.894  0.00  0.00    +0.000 A 
ATOM     15  C   UNL     1       1.584   8.554  19.581  0.00  0.00    +0.000 A 
ATOM     16  C   UNL     1       0.938   9.760  19.273  0.00  0.00    +0.000 A 
ATOM     17  C   UNL     1       0.193  10.458  20.241  0.00  0.00    +0.000 A 
ATOM     18  C   UNL     1      -0.472  11.754  19.865  0.00  0.00    +0.000 C 
ENDBRANCH  10  15
ENDBRANCH   1  10
BRANCH   5  19
ATOM     19  C   UNL     1       4.028   2.012  19.108  0.00  0.00    +0.000 C 
BRANCH  19  20
ATOM     20  O   UNL     1       5.109   1.826  20.021  0.00  0.00    +0.000 OA
ATOM     21  H   UNL     1       4.833   2.262  20.850  0.00  0.00    +0.000 HD
ENDBRANCH  19  20
ENDBRANCH   5  19
TORSDOF 5
ENDMDL
MODEL 6
REMARK VINA RESULT:      -6.5      3.521      6.805
REMARK  Name = 
REMARK  7 active torsions:
REMARK  status: ('A' for Active; 'I' for Inactive)
REMARK    1  A    between atoms: C_1  and  C_2
REMARK    2  A    between atoms: C_5  and  C_6
REMARK    3  A    between atoms: C_6  and  N_7
REMARK    4  A    between atoms: C_11  and  O_12
REMARK    5  A    between atoms: C_11  and  C_13
REMARK    6  A    between atoms: C_13  and  O_14
REMARK    7  A    between atoms: C_18  and  C_19
REMARK                            x       y       z     vdW  Elec       q    Type
REMARK                         _______ _______ _______ _____ _____    ______ ____
ROOT
ATOM      1  N   UNL     1       3.166   6.028  18.067  0.00  0.00    +0.000 NA
ATOM      2  C   UNL     1       4.126   5.603  19.090  0.00  0.00    +0.000 C 
ATOM      3  C   UNL     1       4.124   4.138  19.533  0.00  0.00    +0.000 C 
ATOM      4  C   UNL     1       2.845   3.775  20.279  0.00  0.00    +0.000 C 
ATOM      5  C   UNL     1       1.733   3.263  19.356  0.00  0.00    +0.000 C 
ATOM      6  C   UNL     1       1.623   4.039  18.034  0.00  0.00    +0.000 C 
ATOM      7  C   UNL     1       1.781   5.558  18.191  0.00  0.00    +0.000 C 
ENDROOT
BRANCH   5   8
ATOM      8  O   UNL     1       0.469   3.416  20.038  0.00  0.00    +0.000 OA
ATOM      9  H   UNL     1       0.655   3.619  20.972  0.00  0.00    +0.000 HD
ENDBRANCH   5   8
BRANCH   1  10
ATOM     10  C   UNL     1       3.232   7.493  17.838  0.00  0.00    +0.000 C 
BRANCH  10  15
ATOM     11  C   UNL     1      -0.794  10.915  20.360  0.00  0.00    +0.000 C 
ATOM     12  C   UNL     1       0.216   9.991  19.735  0.00  0.00    +0.000 A 
ATOM     13  C   UNL     1       0.437  10.051  18.353  0.00  0.00    +0.000 A 
ATOM     14  C   UNL     1       1.380   9.225  17.745  0.00  0.00    +0.000 A 
ATOM     15  C   UNL     1       2.152   8.335  18.504  0.00  0.00    +0.000 A 
ATOM     16  C   UNL     1       1.910   8.252  19.883  0.00  0.00    +0.000 A 
ATOM     17  C   UNL     1       0.945   9.063  20.506  0.00  0.00    +0.000 A 
ATOM     18  C   UNL     1       0.714   8.929  21.987  0.00  0.00    +0.000 C 
ENDBRANCH  10  15
ENDBRANCH   1  10
BRANCH   5  19
ATOM     19  C   UNL     1       1.909   1.748  19.096  0.00  0.00    +0.000 C 
BRANCH  19  20
ATOM     20  O   UNL     1       2.487   1.514  17.811  0.00  0.00    +0.000 OA
ATOM     21  H   UNL     1       3.091   2.264  17.653  0.00  0.00    +0.000 HD
ENDBRANCH  19  20
ENDBRANCH   5  19
TORSDOF 5
ENDMDL
MODEL 7
REMARK VINA RESULT:      -6.5      5.382      7.336
REMARK  Name = 
REMARK  7 active torsions:
REMARK  status: ('A' for Active; 'I' for Inactive)
REMARK    1  A    between atoms: C_1  and  C_2
REMARK    2  A    between atoms: C_5  and  C_6
REMARK    3  A    between atoms: C_6  and  N_7
REMARK    4  A    between atoms: C_11  and  O_12
REMARK    5  A    between atoms: C_11  and  C_13
REMARK    6  A    between atoms: C_13  and  O_14
REMARK    7  A    between atoms: C_18  and  C_19
REMARK                            x       y       z     vdW  Elec       q    Type
REMARK                         _______ _______ _______ _____ _____    ______ ____
ROOT
ATOM      1  N   UNL     1       4.910   5.358  18.358  0.00  0.00    +0.000 NA
ATOM      2  C   UNL     1       3.884   6.142  17.664  0.00  0.00    +0.000 C 
ATOM      3  C   UNL     1       2.451   6.109  18.199  0.00  0.00    +0.000 C 
ATOM      4  C   UNL     1       1.816   4.733  18.029  0.00  0.00    +0.000 C 
ATOM      5  C   UNL     1       2.046   3.810  19.231  0.00  0.00    +0.000 C 
ATOM      6  C   UNL     1       3.464   3.903  19.818  0.00  0.00    +0.000 C 
ATOM      7  C   UNL     1       4.571   3.987  18.756  0.00  0.00    +0.000 C 
ENDROOT
BRANCH   5   8
ATOM      8  O   UNL     1       1.861   2.445  18.799  0.00  0.00    +0.000 OA
ATOM      9  H   UNL     1       2.515   2.259  18.102  0.00  0.00    +0.000 HD
ENDBRANCH   5   8
BRANCH   1  10
ATOM     10  C   UNL     1       6.211   5.418  17.645  0.00  0.00    +0.000 C 
BRANCH  10  15
ATOM     11  C   UNL     1       6.311   3.377  12.159  0.00  0.00    +0.000 C 
ATOM     12  C   UNL     1       6.282   3.954  13.548  0.00  0.00    +0.000 A 
ATOM     13  C   UNL     1       5.342   3.474  14.469  0.00  0.00    +0.000 A 
ATOM     14  C   UNL     1       5.301   3.970  15.771  0.00  0.00    +0.000 A 
ATOM     15  C   UNL     1       6.218   4.940  16.200  0.00  0.00    +0.000 A 
ATOM     16  C   UNL     1       7.139   5.444  15.269  0.00  0.00    +0.000 A 
ATOM     17  C   UNL     1       7.175   4.968  13.946  0.00  0.00    +0.000 A 
ATOM     18  C   UNL     1       8.174   5.549  12.982  0.00  0.00    +0.000 C 
ENDBRANCH  10  15
ENDBRANCH   1  10
BRANCH   5  19
ATOM     19  C   UNL     1       0.979   4.073  20.320  0.00  0.00    +0.000 C 
BRANCH  19  20
ATOM     20  O   UNL     1       0.758   2.906  21.112  0.00  0.00    +0.000 OA
ATOM     21  H   UNL     1       0.011   2.439  20.692  0.00  0.00    +0.000 HD
ENDBRANCH  19  20
ENDBRANCH   5  19
TORSDOF 5
ENDMDL
MODEL 8
REMARK VINA RESULT:      -6.5      0.537      1.562
REMARK  Name = 
REMARK  7 active torsions:
REMARK  status: ('A' for Active; 'I' for Inactive)
REMARK    1  A    between atoms: C_1  and  C_2
REMARK    2  A    between atoms: C_5  and  C_6
REMARK    3  A    between atoms: C_6  and  N_7
REMARK    4  A    between atoms: C_11  and  O_12
REMARK    5  A    between atoms: C_11  and  C_13
REMARK    6  A    between atoms: C_13  and  O_14
REMARK    7  A    between atoms: C_18  and  C_19
REMARK                            x       y       z     vdW  Elec       q    Type
REMARK                         _______ _______ _______ _____ _____    ______ ____
ROOT
ATOM      1  N   UNL     1       1.315   8.472  19.719  0.00  0.00    +0.000 NA
ATOM      2  C   UNL     1       0.983   9.106  20.998  0.00  0.00    +0.000 C 
ATOM      3  C   UNL     1      -0.087  10.199  21.018  0.00  0.00    +0.000 C 
ATOM      4  C   UNL     1       0.368  11.450  20.275  0.00  0.00    +0.000 C 
ATOM      5  C   UNL     1       0.002  11.433  18.786  0.00  0.00    +0.000 C 
ATOM      6  C   UNL     1       0.198  10.063  18.118  0.00  0.00    +0.000 C 
ATOM      7  C   UNL     1       1.484   9.341  18.548  0.00  0.00    +0.000 C 
ENDROOT
BRANCH   5   8
ATOM      8  O   UNL     1       0.863  12.363  18.095  0.00  0.00    +0.000 OA
ATOM      9  H   UNL     1       1.572  12.628  18.708  0.00  0.00    +0.000 HD
ENDBRANCH   5   8
BRANCH   1  10
ATOM     10  C   UNL     1       2.444   7.518  19.863  0.00  0.00    +0.000 C 
BRANCH  10  15
ATOM     11  C   UNL     1       1.353   1.803  19.215  0.00  0.00    +0.000 C 
ATOM     12  C   UNL     1       1.609   3.281  19.332  0.00  0.00    +0.000 A 
ATOM     13  C   UNL     1       1.186   3.960  20.482  0.00  0.00    +0.000 A 
ATOM     14  C   UNL     1       1.426   5.325  20.632  0.00  0.00    +0.000 A 
ATOM     15  C   UNL     1       2.121   6.045  19.652  0.00  0.00    +0.000 A 
ATOM     16  C   UNL     1       2.517   5.373  18.486  0.00  0.00    +0.000 A 
ATOM     17  C   UNL     1       2.261   4.001  18.311  0.00  0.00    +0.000 A 
ATOM     18  C   UNL     1       2.695   3.327  17.038  0.00  0.00    +0.000 C 
ENDBRANCH  10  15
ENDBRANCH   1  10
BRANCH   5  19
ATOM     19  C   UNL     1      -1.445  11.944  18.585  0.00  0.00    +0.000 C 
BRANCH  19  20
ATOM     20  O   UNL     1      -1.677  12.295  17.220  0.00  0.00    +0.000 OA
ATOM     21  H   UNL     1      -2.081  11.507  16.811  0.00  0.00    +0.000 HD
ENDBRANCH  19  20
ENDBRANCH   5  19
TORSDOF 5
ENDMDL
MODEL 9
REMARK VINA RESULT:      -6.4      0.993      1.186
REMARK  Name = 
REMARK  7 active torsions:
REMARK  status: ('A' for Active; 'I' for Inactive)
REMARK    1  A    between atoms: C_1  and  C_2
REMARK    2  A    between atoms: C_5  and  C_6
REMARK    3  A    between atoms: C_6  and  N_7
REMARK    4  A    between atoms: C_11  and  O_12
REMARK    5  A    between atoms: C_11  and  C_13
REMARK    6  A    between atoms: C_13  and  O_14
REMARK    7  A    between atoms: C_18  and  C_19
REMARK                            x       y       z     vdW  Elec       q    Type
REMARK                         _______ _______ _______ _____ _____    ______ ____
ROOT
ATOM      1  N   UNL     1       0.808   8.900  20.413  0.00  0.00    +0.000 NA
ATOM      2  C   UNL     1       0.348   9.749  21.516  0.00  0.00    +0.000 C 
ATOM      3  C   UNL     1      -0.680  10.843  21.219  0.00  0.00    +0.000 C 
ATOM      4  C   UNL     1      -0.097  11.942  20.336  0.00  0.00    +0.000 C 
ATOM      5  C   UNL     1      -0.283  11.674  18.838  0.00  0.00    +0.000 C 
ATOM      6  C   UNL     1      -0.055  10.206  18.441  0.00  0.00    +0.000 C 
ATOM      7  C   UNL     1       1.145   9.553  19.143  0.00  0.00    +0.000 C 
ENDROOT
BRANCH   5   8
ATOM      8  O   UNL     1       0.686  12.459  18.112  0.00  0.00    +0.000 OA
ATOM      9  H   UNL     1       1.573  12.198  18.416  0.00  0.00    +0.000 HD
ENDBRANCH   5   8
BRANCH   1  10
ATOM     10  C   UNL     1       1.878   7.971  20.855  0.00  0.00    +0.000 C 
BRANCH  10  15
ATOM     11  C   UNL     1       2.272   3.063  17.687  0.00  0.00    +0.000 C 
ATOM     12  C   UNL     1       2.196   4.297  18.545  0.00  0.00    +0.000 A 
ATOM     13  C   UNL     1       2.717   5.503  18.058  0.00  0.00    +0.000 A 
ATOM     14  C   UNL     1       2.644   6.669  18.816  0.00  0.00    +0.000 A 
ATOM     15  C   UNL     1       2.020   6.673  20.071  0.00  0.00    +0.000 A 
ATOM     16  C   UNL     1       1.525   5.460  20.573  0.00  0.00    +0.000 A 
ATOM     17  C   UNL     1       1.614   4.271  19.828  0.00  0.00    +0.000 A 
ATOM     18  C   UNL     1       1.079   2.993  20.414  0.00  0.00    +0.000 C 
ENDBRANCH  10  15
ENDBRANCH   1  10
BRANCH   5  19
ATOM     19  C   UNL     1      -1.677  12.161  18.377  0.00  0.00    +0.000 C 
BRANCH  19  20
ATOM     20  O   UNL     1      -1.747  12.234  16.953  0.00  0.00    +0.000 OA
ATOM     21  H   UNL     1      -1.437  11.367  16.628  0.00  0.00    +0.000 HD
ENDBRANCH  19  20
ENDBRANCH   5  19
TORSDOF 5
ENDMDL
