MODEL 1
REMARK VINA RESULT:      -7.2      0.000      0.000
REMARK  Name = 
REMARK  8 active torsions:
REMARK  status: ('A' for Active; 'I' for Inactive)
REMARK    1  A    between atoms: C_2  and  C_3
REMARK    2  A    between atoms: C_7  and  N_8
REMARK    3  A    between atoms: N_15  and  C_16
REMARK    4  A    between atoms: C_19  and  N_20
REMARK    5  A    between atoms: N_23  and  C_24
REMARK    6  A    between atoms: N_31  and  C_32
REMARK    7  A    between atoms: C_32  and  C_33
REMARK    8  A    between atoms: C_32  and  C_34
REMARK                            x       y       z     vdW  Elec       q    Type
REMARK                         _______ _______ _______ _____ _____    ______ ____
ROOT
ATOM      1  N   UNL     1       2.261   6.373  19.857  0.00  0.00    +0.000 N 
ATOM      2  C   UNL     1       2.088   7.682  19.552  0.00  0.00    +0.000 A 
ATOM      3  N   UNL     1       2.382   8.291  18.421  0.00  0.00    +0.000 NA
ATOM      4  C   UNL     1       2.041   9.598  18.589  0.00  0.00    +0.000 A 
ATOM      5  C   UNL     1       2.137  10.710  17.765  0.00  0.00    +0.000 A 
ATOM      6  N   UNL     1       1.716  11.918  18.221  0.00  0.00    +0.000 NA
ATOM      7  C   UNL     1       1.195  11.999  19.465  0.00  0.00    +0.000 A 
ATOM      8  N   UNL     1       0.797  13.275  19.881  0.00  0.00    +0.000 N 
ATOM      9  N   UNL     1       1.059  10.970  20.324  0.00  0.00    +0.000 NA
ATOM     10  C   UNL     1       1.498   9.804  19.838  0.00  0.00    +0.000 A 
ATOM     11  N   UNL     1       1.518   8.577  20.454  0.00  0.00    +0.000 N 
ATOM     12  H   UNL     1       2.082   6.031  20.792  0.00  0.00    +0.000 HD
ATOM     13  H   UNL     1       0.908  13.900  19.093  0.00  0.00    +0.000 HD
ENDROOT
BRANCH   1  18
ATOM     14  C   UNL     1       3.986   4.320  17.219  0.00  0.00    +0.000 A 
ATOM     15  C   UNL     1       3.065   3.283  17.068  0.00  0.00    +0.000 A 
ATOM     16  C   UNL     1       1.914   3.263  17.854  0.00  0.00    +0.000 A 
ATOM     17  C   UNL     1       1.685   4.279  18.789  0.00  0.00    +0.000 A 
ATOM     18  C   UNL     1       2.600   5.331  18.959  0.00  0.00    +0.000 A 
ATOM     19  C   UNL     1       3.749   5.331  18.157  0.00  0.00    +0.000 A 
BRANCH  14  21
ATOM     20  C   UNL     1       6.185   4.415  15.768  0.00  0.00    +0.000 C 
ATOM     21  C   UNL     1       5.166   4.375  16.410  0.00  0.00    +0.000 C 
ENDBRANCH  14  21
ENDBRANCH   1  18
BRANCH   8  22
ATOM     22  C   UNL     1      -0.337  13.565  20.663  0.00  0.00    +0.000 A 
ATOM     23  C   UNL     1      -1.550  13.853  20.038  0.00  0.00    +0.000 A 
ATOM     24  C   UNL     1      -2.706  14.104  20.793  0.00  0.00    +0.000 A 
ATOM     25  C   UNL     1      -2.702  14.031  22.193  0.00  0.00    +0.000 A 
ATOM     26  C   UNL     1      -1.474  13.750  22.803  0.00  0.00    +0.000 A 
ATOM     27  C   UNL     1      -0.316  13.511  22.057  0.00  0.00    +0.000 A 
BRANCH  25  28
ATOM     28  N   UNL     1      -3.875  14.121  22.918  0.00  0.00    +0.000 N 
ATOM     29  C   UNL     1      -4.306  13.010  23.780  0.00  0.00    +0.000 C 
ATOM     30  C   UNL     1      -5.847  12.945  23.798  0.00  0.00    +0.000 C 
ATOM     31  N   UNL     1      -6.459  14.215  24.246  0.00  0.00    +0.000 NA
ATOM     32  C   UNL     1      -7.916  14.107  24.216  0.00  0.00    +0.000 C 
ATOM     33  C   UNL     1      -5.990  15.314  23.367  0.00  0.00    +0.000 C 
ATOM     34  C   UNL     1      -4.444  15.423  23.305  0.00  0.00    +0.000 C 
ENDBRANCH  25  28
ENDBRANCH   8  22
BRANCH  11  35
ATOM     35  C   UNL     1       1.057   8.278  21.809  0.00  0.00    +0.000 C 
ATOM     36  C   UNL     1       1.793   9.136  22.839  0.00  0.00    +0.000 C 
ATOM     37  C   UNL     1      -0.458   8.371  22.039  0.00  0.00    +0.000 C 
ENDBRANCH  11  35
TORSDOF 5
ENDMDL
MODEL 2
REMARK VINA RESULT:      -7.0      2.648     10.921
REMARK  Name = 
REMARK  8 active torsions:
REMARK  status: ('A' for Active; 'I' for Inactive)
REMARK    1  A    between atoms: C_2  and  C_3
REMARK    2  A    between atoms: C_7  and  N_8
REMARK    3  A    between atoms: N_15  and  C_16
REMARK    4  A    between atoms: C_19  and  N_20
REMARK    5  A    between atoms: N_23  and  C_24
REMARK    6  A    between atoms: N_31  and  C_32
REMARK    7  A    between atoms: C_32  and  C_33
REMARK    8  A    between atoms: C_32  and  C_34
REMARK                            x       y       z     vdW  Elec       q    Type
REMARK                         _______ _______ _______ _____ _____    ______ ____
ROOT
ATOM      1  N   UNL     1      -1.748  14.358  23.698  0.00  0.00    +0.000 N 
ATOM      2  C   UNL     1      -1.004  14.025  22.616  0.00  0.00    +0.000 A 
ATOM      3  N   UNL     1      -0.209  14.807  21.913  0.00  0.00    +0.000 NA
ATOM      4  C   UNL     1       0.313  14.034  20.922  0.00  0.00    +0.000 A 
ATOM      5  C   UNL     1       1.182  14.304  19.875  0.00  0.00    +0.000 A 
ATOM      6  N   UNL     1       1.523  13.309  19.016  0.00  0.00    +0.000 NA
ATOM      7  C   UNL     1       1.017  12.072  19.217  0.00  0.00    +0.000 A 
ATOM      8  N   UNL     1       1.391  11.097  18.286  0.00  0.00    +0.000 N 
ATOM      9  N   UNL     1       0.174  11.725  20.210  0.00  0.00    +0.000 NA
ATOM     10  C   UNL     1      -0.143  12.738  21.023  0.00  0.00    +0.000 A 
ATOM     11  N   UNL     1      -0.980  12.727  22.112  0.00  0.00    +0.000 N 
ATOM     12  H   UNL     1      -2.395  13.696  24.105  0.00  0.00    +0.000 HD
ATOM     13  H   UNL     1       2.070  11.516  17.663  0.00  0.00    +0.000 HD
ENDROOT
BRANCH   1  18
ATOM     14  C   UNL     1      -0.954  16.904  26.351  0.00  0.00    +0.000 A 
ATOM     15  C   UNL     1      -1.762  17.961  25.931  0.00  0.00    +0.000 A 
ATOM     16  C   UNL     1      -2.527  17.828  24.773  0.00  0.00    +0.000 A 
ATOM     17  C   UNL     1      -2.483  16.639  24.037  0.00  0.00    +0.000 A 
ATOM     18  C   UNL     1      -1.674  15.564  24.439  0.00  0.00    +0.000 A 
ATOM     19  C   UNL     1      -0.916  15.720  25.607  0.00  0.00    +0.000 A 
BRANCH  14  21
ATOM     20  C   UNL     1       0.450  17.066  28.575  0.00  0.00    +0.000 C 
ATOM     21  C   UNL     1      -0.175  17.009  27.547  0.00  0.00    +0.000 C 
ENDBRANCH  14  21
ENDBRANCH   1  18
BRANCH   8  22
ATOM     22  C   UNL     1       1.666   9.747  18.578  0.00  0.00    +0.000 A 
ATOM     23  C   UNL     1       2.321   8.958  17.633  0.00  0.00    +0.000 A 
ATOM     24  C   UNL     1       2.647   7.622  17.913  0.00  0.00    +0.000 A 
ATOM     25  C   UNL     1       2.373   7.043  19.160  0.00  0.00    +0.000 A 
ATOM     26  C   UNL     1       1.707   7.847  20.093  0.00  0.00    +0.000 A 
ATOM     27  C   UNL     1       1.369   9.175  19.815  0.00  0.00    +0.000 A 
BRANCH  25  28
ATOM     28  N   UNL     1       2.838   5.783  19.482  0.00  0.00    +0.000 N 
ATOM     29  C   UNL     1       4.275   5.475  19.401  0.00  0.00    +0.000 C 
ATOM     30  C   UNL     1       4.459   4.000  18.991  0.00  0.00    +0.000 C 
ATOM     31  N   UNL     1       3.783   3.068  19.920  0.00  0.00    +0.000 NA
ATOM     32  C   UNL     1       3.965   1.690  19.469  0.00  0.00    +0.000 C 
ATOM     33  C   UNL     1       2.343   3.417  19.990  0.00  0.00    +0.000 C 
ATOM     34  C   UNL     1       2.096   4.895  20.393  0.00  0.00    +0.000 C 
ENDBRANCH  25  28
ENDBRANCH   8  22
BRANCH  11  35
ATOM     35  C   UNL     1      -1.724  11.577  22.624  0.00  0.00    +0.000 C 
ATOM     36  C   UNL     1      -0.783  10.565  23.278  0.00  0.00    +0.000 C 
ATOM     37  C   UNL     1      -2.887  11.897  23.573  0.00  0.00    +0.000 C 
ENDBRANCH  11  35
TORSDOF 5
ENDMDL
MODEL 3
REMARK VINA RESULT:      -7.0      1.167      1.364
REMARK  Name = 
REMARK  8 active torsions:
REMARK  status: ('A' for Active; 'I' for Inactive)
REMARK    1  A    between atoms: C_2  and  C_3
REMARK    2  A    between atoms: C_7  and  N_8
REMARK    3  A    between atoms: N_15  and  C_16
REMARK    4  A    between atoms: C_19  and  N_20
REMARK    5  A    between atoms: N_23  and  C_24
REMARK    6  A    between atoms: N_31  and  C_32
REMARK    7  A    between atoms: C_32  and  C_33
REMARK    8  A    between atoms: C_32  and  C_34
REMARK                            x       y       z     vdW  Elec       q    Type
REMARK                         _______ _______ _______ _____ _____    ______ ____
ROOT
ATOM      1  N   UNL     1       2.094   6.253  20.787  0.00  0.00    +0.000 N 
ATOM      2  C   UNL     1       1.899   7.442  20.167  0.00  0.00    +0.000 A 
ATOM      3  N   UNL     1       2.269   7.785  18.949  0.00  0.00    +0.000 NA
ATOM      4  C   UNL     1       1.864   9.073  18.774  0.00  0.00    +0.000 A 
ATOM      5  C   UNL     1       1.991   9.965  17.720  0.00  0.00    +0.000 A 
ATOM      6  N   UNL     1       1.486  11.220  17.841  0.00  0.00    +0.000 NA
ATOM      7  C   UNL     1       0.855  11.560  18.986  0.00  0.00    +0.000 A 
ATOM      8  N   UNL     1       0.374  12.872  19.055  0.00  0.00    +0.000 N 
ATOM      9  N   UNL     1       0.683  10.754  20.053  0.00  0.00    +0.000 NA
ATOM     10  C   UNL     1       1.207   9.534  19.893  0.00  0.00    +0.000 A 
ATOM     11  N   UNL     1       1.219   8.489  20.783  0.00  0.00    +0.000 N 
ATOM     12  H   UNL     1       1.846   6.130  21.760  0.00  0.00    +0.000 HD
ATOM     13  H   UNL     1       0.530  13.301  18.152  0.00  0.00    +0.000 HD
ENDROOT
BRANCH   1  18
ATOM     14  C   UNL     1       3.724   3.786  18.462  0.00  0.00    +0.000 A 
ATOM     15  C   UNL     1       3.233   2.589  18.984  0.00  0.00    +0.000 A 
ATOM     16  C   UNL     1       2.403   2.614  20.104  0.00  0.00    +0.000 A 
ATOM     17  C   UNL     1       2.064   3.834  20.699  0.00  0.00    +0.000 A 
ATOM     18  C   UNL     1       2.550   5.050  20.192  0.00  0.00    +0.000 A 
ATOM     19  C   UNL     1       3.381   5.001  19.065  0.00  0.00    +0.000 A 
BRANCH  14  21
ATOM     20  C   UNL     1       5.242   3.828  16.307  0.00  0.00    +0.000 C 
ATOM     21  C   UNL     1       4.562   3.789  17.301  0.00  0.00    +0.000 C 
ENDBRANCH  14  21
ENDBRANCH   1  18
BRANCH   8  22
ATOM     22  C   UNL     1      -0.834  13.273  19.656  0.00  0.00    +0.000 A 
ATOM     23  C   UNL     1      -1.961  12.458  19.547  0.00  0.00    +0.000 A 
ATOM     24  C   UNL     1      -3.167  12.810  20.173  0.00  0.00    +0.000 A 
ATOM     25  C   UNL     1      -3.275  13.961  20.966  0.00  0.00    +0.000 A 
ATOM     26  C   UNL     1      -2.138  14.771  21.057  0.00  0.00    +0.000 A 
ATOM     27  C   UNL     1      -0.937  14.431  20.426  0.00  0.00    +0.000 A 
BRANCH  25  28
ATOM     28  N   UNL     1      -4.415  14.216  21.705  0.00  0.00    +0.000 N 
ATOM     29  C   UNL     1      -4.315  14.808  23.048  0.00  0.00    +0.000 C 
ATOM     30  C   UNL     1      -5.456  14.263  23.933  0.00  0.00    +0.000 C 
ATOM     31  N   UNL     1      -6.792  14.521  23.352  0.00  0.00    +0.000 NA
ATOM     32  C   UNL     1      -7.830  13.960  24.214  0.00  0.00    +0.000 C 
ATOM     33  C   UNL     1      -6.850  13.926  21.994  0.00  0.00    +0.000 C 
ATOM     34  C   UNL     1      -5.721  14.434  21.060  0.00  0.00    +0.000 C 
ENDBRANCH  25  28
ENDBRANCH   8  22
BRANCH  11  35
ATOM     35  C   UNL     1       0.651   8.489  22.131  0.00  0.00    +0.000 C 
ATOM     36  C   UNL     1       1.499   9.338  23.080  0.00  0.00    +0.000 C 
ATOM     37  C   UNL     1      -0.823   8.900  22.239  0.00  0.00    +0.000 C 
ENDBRANCH  11  35
TORSDOF 5
ENDMDL
MODEL 4
REMARK VINA RESULT:      -6.9      3.026     10.993
REMARK  Name = 
REMARK  8 active torsions:
REMARK  status: ('A' for Active; 'I' for Inactive)
REMARK    1  A    between atoms: C_2  and  C_3
REMARK    2  A    between atoms: C_7  and  N_8
REMARK    3  A    between atoms: N_15  and  C_16
REMARK    4  A    between atoms: C_19  and  N_20
REMARK    5  A    between atoms: N_23  and  C_24
REMARK    6  A    between atoms: N_31  and  C_32
REMARK    7  A    between atoms: C_32  and  C_33
REMARK    8  A    between atoms: C_32  and  C_34
REMARK                            x       y       z     vdW  Elec       q    Type
REMARK                         _______ _______ _______ _____ _____    ______ ____
ROOT
ATOM      1  N   UNL     1      -4.887  12.015  18.696  0.00  0.00    +0.000 N 
ATOM      2  C   UNL     1      -3.556  11.963  18.946  0.00  0.00    +0.000 A 
ATOM      3  N   UNL     1      -2.850  12.760  19.722  0.00  0.00    +0.000 NA
ATOM      4  C   UNL     1      -1.563  12.325  19.651  0.00  0.00    +0.000 A 
ATOM      5  C   UNL     1      -0.383  12.775  20.225  0.00  0.00    +0.000 A 
ATOM      6  N   UNL     1       0.781  12.130  19.954  0.00  0.00    +0.000 NA
ATOM      7  C   UNL     1       0.754  11.050  19.142  0.00  0.00    +0.000 A 
ATOM      8  N   UNL     1       1.988  10.442  18.888  0.00  0.00    +0.000 N 
ATOM      9  N   UNL     1      -0.347  10.544  18.551  0.00  0.00    +0.000 NA
ATOM     10  C   UNL     1      -1.466  11.219  18.836  0.00  0.00    +0.000 A 
ATOM     11  N   UNL     1      -2.742  10.979  18.390  0.00  0.00    +0.000 N 
ATOM     12  H   UNL     1      -5.309  11.405  18.009  0.00  0.00    +0.000 HD
ATOM     13  H   UNL     1       2.680  10.908  19.462  0.00  0.00    +0.000 HD
ENDROOT
BRANCH   1  18
ATOM     14  C   UNL     1      -7.195  13.393  21.327  0.00  0.00    +0.000 A 
ATOM     15  C   UNL     1      -7.916  14.314  20.568  0.00  0.00    +0.000 A 
ATOM     16  C   UNL     1      -7.612  14.485  19.218  0.00  0.00    +0.000 A 
ATOM     17  C   UNL     1      -6.588  13.735  18.630  0.00  0.00    +0.000 A 
ATOM     18  C   UNL     1      -5.847  12.805  19.376  0.00  0.00    +0.000 A 
ATOM     19  C   UNL     1      -6.171  12.649  20.730  0.00  0.00    +0.000 A 
BRANCH  14  21
ATOM     20  C   UNL     1      -7.762  12.962  23.865  0.00  0.00    +0.000 C 
ATOM     21  C   UNL     1      -7.501  13.184  22.710  0.00  0.00    +0.000 C 
ENDBRANCH  14  21
ENDBRANCH   1  18
BRANCH   8  22
ATOM     22  C   UNL     1       2.211   9.058  18.766  0.00  0.00    +0.000 A 
ATOM     23  C   UNL     1       2.836   8.559  17.623  0.00  0.00    +0.000 A 
ATOM     24  C   UNL     1       3.109   7.188  17.493  0.00  0.00    +0.000 A 
ATOM     25  C   UNL     1       2.813   6.278  18.518  0.00  0.00    +0.000 A 
ATOM     26  C   UNL     1       2.178   6.795  19.653  0.00  0.00    +0.000 A 
ATOM     27  C   UNL     1       1.892   8.158  19.783  0.00  0.00    +0.000 A 
BRANCH  25  28
ATOM     28  N   UNL     1       3.229   4.962  18.448  0.00  0.00    +0.000 N 
ATOM     29  C   UNL     1       2.657   4.052  17.444  0.00  0.00    +0.000 C 
ATOM     30  C   UNL     1       2.598   2.623  18.024  0.00  0.00    +0.000 C 
ATOM     31  N   UNL     1       3.925   2.139  18.464  0.00  0.00    +0.000 NA
ATOM     32  C   UNL     1       3.807   0.797  19.030  0.00  0.00    +0.000 C 
ATOM     33  C   UNL     1       4.478   3.088  19.461  0.00  0.00    +0.000 C 
ATOM     34  C   UNL     1       4.555   4.546  18.934  0.00  0.00    +0.000 C 
ENDBRANCH  25  28
ENDBRANCH   8  22
BRANCH  11  35
ATOM     35  C   UNL     1      -3.159   9.911  17.481  0.00  0.00    +0.000 C 
ATOM     36  C   UNL     1      -4.344   9.136  18.057  0.00  0.00    +0.000 C 
ATOM     37  C   UNL     1      -3.463  10.337  16.039  0.00  0.00    +0.000 C 
ENDBRANCH  11  35
TORSDOF 5
ENDMDL
MODEL 5
REMARK VINA RESULT:      -6.9      4.846     10.980
REMARK  Name = 
REMARK  8 active torsions:
REMARK  status: ('A' for Active; 'I' for Inactive)
REMARK    1  A    between atoms: C_2  and  C_3
REMARK    2  A    between atoms: C_7  and  N_8
REMARK    3  A    between atoms: N_15  and  C_16
REMARK    4  A    between atoms: C_19  and  N_20
REMARK    5  A    between atoms: N_23  and  C_24
REMARK    6  A    between atoms: N_31  and  C_32
REMARK    7  A    between atoms: C_32  and  C_33
REMARK    8  A    between atoms: C_32  and  C_34
REMARK                            x       y       z     vdW  Elec       q    Type
REMARK                         _______ _______ _______ _____ _____    ______ ____
ROOT
ATOM      1  N   UNL     1      -2.061  12.467  21.242  0.00  0.00    +0.000 N 
ATOM      2  C   UNL     1      -1.259  13.485  20.842  0.00  0.00    +0.000 A 
ATOM      3  N   UNL     1      -1.481  14.778  20.958  0.00  0.00    +0.000 NA
ATOM      4  C   UNL     1      -0.405  15.404  20.408  0.00  0.00    +0.000 A 
ATOM      5  C   UNL     1      -0.086  16.741  20.220  0.00  0.00    +0.000 A 
ATOM      6  N   UNL     1       1.084  17.071  19.614  0.00  0.00    +0.000 NA
ATOM      7  C   UNL     1       1.917  16.081  19.224  0.00  0.00    +0.000 A 
ATOM      8  N   UNL     1       3.096  16.486  18.589  0.00  0.00    +0.000 N 
ATOM      9  N   UNL     1       1.687  14.761  19.374  0.00  0.00    +0.000 NA
ATOM     10  C   UNL     1       0.519  14.484  19.963  0.00  0.00    +0.000 A 
ATOM     11  N   UNL     1      -0.021  13.254  20.248  0.00  0.00    +0.000 N 
ATOM     12  H   UNL     1      -1.830  11.508  21.020  0.00  0.00    +0.000 HD
ATOM     13  H   UNL     1       3.129  17.497  18.626  0.00  0.00    +0.000 HD
ENDROOT
BRANCH   1  18
ATOM     14  C   UNL     1      -5.573  13.069  22.446  0.00  0.00    +0.000 A 
ATOM     15  C   UNL     1      -5.393  12.925  23.822  0.00  0.00    +0.000 A 
ATOM     16  C   UNL     1      -4.132  12.606  24.323  0.00  0.00    +0.000 A 
ATOM     17  C   UNL     1      -3.054  12.431  23.449  0.00  0.00    +0.000 A 
ATOM     18  C   UNL     1      -3.213  12.568  22.060  0.00  0.00    +0.000 A 
ATOM     19  C   UNL     1      -4.488  12.891  21.580  0.00  0.00    +0.000 A 
BRANCH  14  21
ATOM     20  C   UNL     1      -7.916  13.693  21.412  0.00  0.00    +0.000 C 
ATOM     21  C   UNL     1      -6.853  13.417  21.907  0.00  0.00    +0.000 C 
ENDBRANCH  14  21
ENDBRANCH   1  18
BRANCH   8  22
ATOM     22  C   UNL     1       4.359  15.884  18.743  0.00  0.00    +0.000 A 
ATOM     23  C   UNL     1       4.869  15.082  17.722  0.00  0.00    +0.000 A 
ATOM     24  C   UNL     1       6.144  14.504  17.830  0.00  0.00    +0.000 A 
ATOM     25  C   UNL     1       6.970  14.745  18.937  0.00  0.00    +0.000 A 
ATOM     26  C   UNL     1       6.438  15.545  19.955  0.00  0.00    +0.000 A 
ATOM     27  C   UNL     1       5.164  16.113  19.859  0.00  0.00    +0.000 A 
BRANCH  25  28
ATOM     28  N   UNL     1       8.279  14.305  18.961  0.00  0.00    +0.000 N 
ATOM     29  C   UNL     1       9.320  15.020  18.207  0.00  0.00    +0.000 C 
ATOM     30  C   UNL     1      10.376  14.011  17.710  0.00  0.00    +0.000 C 
ATOM     31  N   UNL     1      10.979  13.236  18.816  0.00  0.00    +0.000 NA
ATOM     32  C   UNL     1      11.947  12.277  18.287  0.00  0.00    +0.000 C 
ATOM     33  C   UNL     1       9.901  12.542  19.563  0.00  0.00    +0.000 C 
ATOM     34  C   UNL     1       8.805  13.510  20.084  0.00  0.00    +0.000 C 
ENDBRANCH  25  28
ENDBRANCH   8  22
BRANCH  11  35
ATOM     35  C   UNL     1       0.580  11.953  19.956  0.00  0.00    +0.000 C 
ATOM     36  C   UNL     1       0.597  11.068  21.203  0.00  0.00    +0.000 C 
ATOM     37  C   UNL     1      -0.028  11.182  18.776  0.00  0.00    +0.000 C 
ENDBRANCH  11  35
TORSDOF 5
ENDMDL
MODEL 6
REMARK VINA RESULT:      -6.8      4.816     10.794
REMARK  Name = 
REMARK  8 active torsions:
REMARK  status: ('A' for Active; 'I' for Inactive)
REMARK    1  A    between atoms: C_2  and  C_3
REMARK    2  A    between atoms: C_7  and  N_8
REMARK    3  A    between atoms: N_15  and  C_16
REMARK    4  A    between atoms: C_19  and  N_20
REMARK    5  A    between atoms: N_23  and  C_24
REMARK    6  A    between atoms: N_31  and  C_32
REMARK    7  A    between atoms: C_32  and  C_33
REMARK    8  A    between atoms: C_32  and  C_34
REMARK                            x       y       z     vdW  Elec       q    Type
REMARK                         _______ _______ _______ _____ _____    ______ ____
ROOT
ATOM      1  N   UNL     1      -1.999  12.615  20.997  0.00  0.00    +0.000 N 
ATOM      2  C   UNL     1      -1.253  13.669  20.584  0.00  0.00    +0.000 A 
ATOM      3  N   UNL     1      -1.516  14.951  20.738  0.00  0.00    +0.000 NA
ATOM      4  C   UNL     1      -0.489  15.627  20.155  0.00  0.00    +0.000 A 
ATOM      5  C   UNL     1      -0.227  16.978  19.984  0.00  0.00    +0.000 A 
ATOM      6  N   UNL     1       0.902  17.363  19.334  0.00  0.00    +0.000 NA
ATOM      7  C   UNL     1       1.752  16.413  18.886  0.00  0.00    +0.000 A 
ATOM      8  N   UNL     1       2.886  16.875  18.209  0.00  0.00    +0.000 N 
ATOM      9  N   UNL     1       1.576  15.083  19.016  0.00  0.00    +0.000 NA
ATOM     10  C   UNL     1       0.447  14.751  19.650  0.00  0.00    +0.000 A 
ATOM     11  N   UNL     1      -0.035  13.496  19.931  0.00  0.00    +0.000 N 
ATOM     12  H   UNL     1      -1.744  11.670  20.743  0.00  0.00    +0.000 HD
ATOM     13  H   UNL     1       2.885  17.885  18.267  0.00  0.00    +0.000 HD
ENDROOT
BRANCH   1  18
ATOM     14  C   UNL     1      -5.487  12.991  22.352  0.00  0.00    +0.000 A 
ATOM     15  C   UNL     1      -5.233  12.907  23.721  0.00  0.00    +0.000 A 
ATOM     16  C   UNL     1      -3.929  12.699  24.169  0.00  0.00    +0.000 A 
ATOM     17  C   UNL     1      -2.883  12.577  23.249  0.00  0.00    +0.000 A 
ATOM     18  C   UNL     1      -3.116  12.655  21.867  0.00  0.00    +0.000 A 
ATOM     19  C   UNL     1      -4.433  12.866  21.440  0.00  0.00    +0.000 A 
BRANCH  14  21
ATOM     20  C   UNL     1      -7.914  13.417  21.414  0.00  0.00    +0.000 C 
ATOM     21  C   UNL     1      -6.814  13.224  21.867  0.00  0.00    +0.000 C 
ENDBRANCH  14  21
ENDBRANCH   1  18
BRANCH   8  22
ATOM     22  C   UNL     1       4.175  16.317  18.293  0.00  0.00    +0.000 A 
ATOM     23  C   UNL     1       5.141  16.931  19.091  0.00  0.00    +0.000 A 
ATOM     24  C   UNL     1       6.422  16.374  19.228  0.00  0.00    +0.000 A 
ATOM     25  C   UNL     1       6.766  15.162  18.614  0.00  0.00    +0.000 A 
ATOM     26  C   UNL     1       5.788  14.564  17.810  0.00  0.00    +0.000 A 
ATOM     27  C   UNL     1       4.515  15.122  17.659  0.00  0.00    +0.000 A 
BRANCH  25  28
ATOM     28  N   UNL     1       7.971  14.541  18.882  0.00  0.00    +0.000 N 
ATOM     29  C   UNL     1       8.481  13.486  17.993  0.00  0.00    +0.000 C 
ATOM     30  C   UNL     1       9.270  12.453  18.824  0.00  0.00    +0.000 C 
ATOM     31  N   UNL     1      10.380  13.070  19.583  0.00  0.00    +0.000 NA
ATOM     32  C   UNL     1      11.072  12.055  20.373  0.00  0.00    +0.000 C 
ATOM     33  C   UNL     1       9.832  14.138  20.455  0.00  0.00    +0.000 C 
ATOM     34  C   UNL     1       9.022  15.205  19.672  0.00  0.00    +0.000 C 
ENDBRANCH  25  28
ENDBRANCH   8  22
BRANCH  11  35
ATOM     35  C   UNL     1       0.598  12.224  19.584  0.00  0.00    +0.000 C 
ATOM     36  C   UNL     1       1.081  11.495  20.838  0.00  0.00    +0.000 C 
ATOM     37  C   UNL     1      -0.237  11.274  18.715  0.00  0.00    +0.000 C 
ENDBRANCH  11  35
TORSDOF 5
ENDMDL
MODEL 7
REMARK VINA RESULT:      -6.7      0.914      1.035
REMARK  Name = 
REMARK  8 active torsions:
REMARK  status: ('A' for Active; 'I' for Inactive)
REMARK    1  A    between atoms: C_2  and  C_3
REMARK    2  A    between atoms: C_7  and  N_8
REMARK    3  A    between atoms: N_15  and  C_16
REMARK    4  A    between atoms: C_19  and  N_20
REMARK    5  A    between atoms: N_23  and  C_24
REMARK    6  A    between atoms: N_31  and  C_32
REMARK    7  A    between atoms: C_32  and  C_33
REMARK    8  A    between atoms: C_32  and  C_34
REMARK                            x       y       z     vdW  Elec       q    Type
REMARK                         _______ _______ _______ _____ _____    ______ ____
ROOT
ATOM      1  N   UNL     1       2.314   6.418  19.769  0.00  0.00    +0.000 N 
ATOM      2  C   UNL     1       2.136   7.714  19.417  0.00  0.00    +0.000 A 
ATOM      3  N   UNL     1       2.577   8.323  18.334  0.00  0.00    +0.000 NA
ATOM      4  C   UNL     1       2.160   9.615  18.423  0.00  0.00    +0.000 A 
ATOM      5  C   UNL     1       2.337  10.721  17.604  0.00  0.00    +0.000 A 
ATOM      6  N   UNL     1       1.801  11.915  17.967  0.00  0.00    +0.000 NA
ATOM      7  C   UNL     1       1.091  11.988  19.114  0.00  0.00    +0.000 A 
ATOM      8  N   UNL     1       0.581  13.249  19.441  0.00  0.00    +0.000 N 
ATOM      9  N   UNL     1       0.866  10.964  19.962  0.00  0.00    +0.000 NA
ATOM     10  C   UNL     1       1.423   9.812  19.570  0.00  0.00    +0.000 A 
ATOM     11  N   UNL     1       1.398   8.595  20.204  0.00  0.00    +0.000 N 
ATOM     12  H   UNL     1       2.007   6.080  20.671  0.00  0.00    +0.000 HD
ATOM     13  H   UNL     1       0.787  13.870  18.669  0.00  0.00    +0.000 HD
ENDROOT
BRANCH   1  18
ATOM     14  C   UNL     1       4.555   4.369  17.548  0.00  0.00    +0.000 A 
ATOM     15  C   UNL     1       3.677   3.349  17.182  0.00  0.00    +0.000 A 
ATOM     16  C   UNL     1       2.380   3.338  17.693  0.00  0.00    +0.000 A 
ATOM     17  C   UNL     1       1.963   4.346  18.568  0.00  0.00    +0.000 A 
ATOM     18  C   UNL     1       2.830   5.381  18.953  0.00  0.00    +0.000 A 
ATOM     19  C   UNL     1       4.128   5.372  18.426  0.00  0.00    +0.000 A 
BRANCH  14  21
ATOM     20  C   UNL     1       7.020   4.428  16.616  0.00  0.00    +0.000 C 
ATOM     21  C   UNL     1       5.885   4.414  17.022  0.00  0.00    +0.000 C 
ENDBRANCH  14  21
ENDBRANCH   1  18
BRANCH   8  22
ATOM     22  C   UNL     1      -0.671  13.500  20.035  0.00  0.00    +0.000 A 
ATOM     23  C   UNL     1      -1.585  12.456  20.180  0.00  0.00    +0.000 A 
ATOM     24  C   UNL     1      -2.823  12.667  20.807  0.00  0.00    +0.000 A 
ATOM     25  C   UNL     1      -3.170  13.912  21.350  0.00  0.00    +0.000 A 
ATOM     26  C   UNL     1      -2.245  14.949  21.187  0.00  0.00    +0.000 A 
ATOM     27  C   UNL     1      -1.015  14.748  20.552  0.00  0.00    +0.000 A 
BRANCH  25  28
ATOM     28  N   UNL     1      -4.319  14.068  22.103  0.00  0.00    +0.000 N 
ATOM     29  C   UNL     1      -5.583  13.452  21.671  0.00  0.00    +0.000 C 
ATOM     30  C   UNL     1      -6.761  14.352  22.097  0.00  0.00    +0.000 C 
ATOM     31  N   UNL     1      -6.781  14.602  23.555  0.00  0.00    +0.000 NA
ATOM     32  C   UNL     1      -7.896  15.481  23.898  0.00  0.00    +0.000 C 
ATOM     33  C   UNL     1      -5.487  15.207  23.957  0.00  0.00    +0.000 C 
ATOM     34  C   UNL     1      -4.262  14.347  23.548  0.00  0.00    +0.000 C 
ENDBRANCH  25  28
ENDBRANCH   8  22
BRANCH  11  35
ATOM     35  C   UNL     1       0.745   8.292  21.478  0.00  0.00    +0.000 C 
ATOM     36  C   UNL     1       1.331   9.140  22.607  0.00  0.00    +0.000 C 
ATOM     37  C   UNL     1      -0.786   8.393  21.488  0.00  0.00    +0.000 C 
ENDBRANCH  11  35
TORSDOF 5
ENDMDL
MODEL 8
REMARK VINA RESULT:      -6.6      1.073      1.514
REMARK  Name = 
REMARK  8 active torsions:
REMARK  status: ('A' for Active; 'I' for Inactive)
REMARK    1  A    between atoms: C_2  and  C_3
REMARK    2  A    between atoms: C_7  and  N_8
REMARK    3  A    between atoms: N_15  and  C_16
REMARK    4  A    between atoms: C_19  and  N_20
REMARK    5  A    between atoms: N_23  and  C_24
REMARK    6  A    between atoms: N_31  and  C_32
REMARK    7  A    between atoms: C_32  and  C_33
REMARK    8  A    between atoms: C_32  and  C_34
REMARK                            x       y       z     vdW  Elec       q    Type
REMARK                         _______ _______ _______ _____ _____    ______ ____
ROOT
ATOM      1  N   UNL     1       2.475   6.461  19.880  0.00  0.00    +0.000 N 
ATOM      2  C   UNL     1       2.230   7.736  19.490  0.00  0.00    +0.000 A 
ATOM      3  N   UNL     1       2.624   8.329  18.381  0.00  0.00    +0.000 NA
ATOM      4  C   UNL     1       2.147   9.603  18.436  0.00  0.00    +0.000 A 
ATOM      5  C   UNL     1       2.258  10.688  17.580  0.00  0.00    +0.000 A 
ATOM      6  N   UNL     1       1.671  11.867  17.915  0.00  0.00    +0.000 NA
ATOM      7  C   UNL     1       0.976  11.943  19.071  0.00  0.00    +0.000 A 
ATOM      8  N   UNL     1       0.411  13.189  19.367  0.00  0.00    +0.000 N 
ATOM      9  N   UNL     1       0.814  10.937  19.953  0.00  0.00    +0.000 NA
ATOM     10  C   UNL     1       1.419   9.801  19.589  0.00  0.00    +0.000 A 
ATOM     11  N   UNL     1       1.463   8.605  20.262  0.00  0.00    +0.000 N 
ATOM     12  H   UNL     1       2.199   6.138  20.797  0.00  0.00    +0.000 HD
ATOM     13  H   UNL     1       0.575  13.793  18.571  0.00  0.00    +0.000 HD
ENDROOT
BRANCH   1  18
ATOM     14  C   UNL     1       4.816   4.410  17.768  0.00  0.00    +0.000 A 
ATOM     15  C   UNL     1       3.954   3.393  17.356  0.00  0.00    +0.000 A 
ATOM     16  C   UNL     1       2.634   3.385  17.803  0.00  0.00    +0.000 A 
ATOM     17  C   UNL     1       2.177   4.393  18.659  0.00  0.00    +0.000 A 
ATOM     18  C   UNL     1       3.028   5.424  19.088  0.00  0.00    +0.000 A 
ATOM     19  C   UNL     1       4.350   5.413  18.625  0.00  0.00    +0.000 A 
BRANCH  14  21
ATOM     20  C   UNL     1       7.319   4.525  16.948  0.00  0.00    +0.000 C 
ATOM     21  C   UNL     1       6.171   4.452  17.307  0.00  0.00    +0.000 C 
ENDBRANCH  14  21
ENDBRANCH   1  18
BRANCH   8  22
ATOM     22  C   UNL     1      -0.841  13.399  19.973  0.00  0.00    +0.000 A 
ATOM     23  C   UNL     1      -0.999  14.442  20.885  0.00  0.00    +0.000 A 
ATOM     24  C   UNL     1      -2.247  14.701  21.473  0.00  0.00    +0.000 A 
ATOM     25  C   UNL     1      -3.388  13.960  21.134  0.00  0.00    +0.000 A 
ATOM     26  C   UNL     1      -3.209  12.912  20.224  0.00  0.00    +0.000 A 
ATOM     27  C   UNL     1      -1.966  12.641  19.645  0.00  0.00    +0.000 A 
BRANCH  25  28
ATOM     28  N   UNL     1      -4.639  14.324  21.595  0.00  0.00    +0.000 N 
ATOM     29  C   UNL     1      -5.321  15.506  21.045  0.00  0.00    +0.000 C 
ATOM     30  C   UNL     1      -6.174  16.164  22.149  0.00  0.00    +0.000 C 
ATOM     31  N   UNL     1      -7.157  15.226  22.735  0.00  0.00    +0.000 NA
ATOM     32  C   UNL     1      -7.915  15.890  23.792  0.00  0.00    +0.000 C 
ATOM     33  C   UNL     1      -6.437  14.041  23.264  0.00  0.00    +0.000 C 
ATOM     34  C   UNL     1      -5.556  13.340  22.196  0.00  0.00    +0.000 C 
ENDBRANCH  25  28
ENDBRANCH   8  22
BRANCH  11  35
ATOM     35  C   UNL     1       0.845   8.313  21.555  0.00  0.00    +0.000 C 
ATOM     36  C   UNL     1       1.558   9.061  22.682  0.00  0.00    +0.000 C 
ATOM     37  C   UNL     1      -0.669   8.551  21.645  0.00  0.00    +0.000 C 
ENDBRANCH  11  35
TORSDOF 5
ENDMDL
MODEL 9
REMARK VINA RESULT:      -6.5      2.838     10.875
REMARK  Name = 
REMARK  8 active torsions:
REMARK  status: ('A' for Active; 'I' for Inactive)
REMARK    1  A    between atoms: C_2  and  C_3
REMARK    2  A    between atoms: C_7  and  N_8
REMARK    3  A    between atoms: N_15  and  C_16
REMARK    4  A    between atoms: C_19  and  N_20
REMARK    5  A    between atoms: N_23  and  C_24
REMARK    6  A    between atoms: N_31  and  C_32
REMARK    7  A    between atoms: C_32  and  C_33
REMARK    8  A    between atoms: C_32  and  C_34
REMARK                            x       y       z     vdW  Elec       q    Type
REMARK                         _______ _______ _______ _____ _____    ______ ____
ROOT
ATOM      1  N   UNL     1      -4.854  12.228  18.806  0.00  0.00    +0.000 N 
ATOM      2  C   UNL     1      -3.520  12.199  19.041  0.00  0.00    +0.000 A 
ATOM      3  N   UNL     1      -2.823  12.991  19.831  0.00  0.00    +0.000 NA
ATOM      4  C   UNL     1      -1.527  12.587  19.734  0.00  0.00    +0.000 A 
ATOM      5  C   UNL     1      -0.351  13.048  20.307  0.00  0.00    +0.000 A 
ATOM      6  N   UNL     1       0.824  12.437  20.007  0.00  0.00    +0.000 NA
ATOM      7  C   UNL     1       0.812  11.380  19.166  0.00  0.00    +0.000 A 
ATOM      8  N   UNL     1       2.056  10.807  18.882  0.00  0.00    +0.000 N 
ATOM      9  N   UNL     1      -0.284  10.865  18.573  0.00  0.00    +0.000 NA
ATOM     10  C   UNL     1      -1.415  11.506  18.888  0.00  0.00    +0.000 A 
ATOM     11  N   UNL     1      -2.690  11.249  18.449  0.00  0.00    +0.000 N 
ATOM     12  H   UNL     1      -5.270  11.627  18.108  0.00  0.00    +0.000 HD
ATOM     13  H   UNL     1       2.744  11.273  19.461  0.00  0.00    +0.000 HD
ENDROOT
BRANCH   1  18
ATOM     14  C   UNL     1      -7.102  13.536  21.524  0.00  0.00    +0.000 A 
ATOM     15  C   UNL     1      -7.917  14.392  20.783  0.00  0.00    +0.000 A 
ATOM     16  C   UNL     1      -7.693  14.545  19.415  0.00  0.00    +0.000 A 
ATOM     17  C   UNL     1      -6.657  13.842  18.791  0.00  0.00    +0.000 A 
ATOM     18  C   UNL     1      -5.824  12.977  19.518  0.00  0.00    +0.000 A 
ATOM     19  C   UNL     1      -6.067  12.838  20.891  0.00  0.00    +0.000 A 
BRANCH  14  21
ATOM     20  C   UNL     1      -7.543  13.220  24.104  0.00  0.00    +0.000 C 
ATOM     21  C   UNL     1      -7.323  13.347  22.926  0.00  0.00    +0.000 C 
ENDBRANCH  14  21
ENDBRANCH   1  18
BRANCH   8  22
ATOM     22  C   UNL     1       2.309   9.431  18.720  0.00  0.00    +0.000 A 
ATOM     23  C   UNL     1       1.997   8.548  19.754  0.00  0.00    +0.000 A 
ATOM     24  C   UNL     1       2.198   7.166  19.604  0.00  0.00    +0.000 A 
ATOM     25  C   UNL     1       2.670   6.618  18.404  0.00  0.00    +0.000 A 
ATOM     26  C   UNL     1       2.985   7.520  17.381  0.00  0.00    +0.000 A 
ATOM     27  C   UNL     1       2.800   8.898  17.529  0.00  0.00    +0.000 A 
BRANCH  25  28
ATOM     28  N   UNL     1       2.713   5.250  18.211  0.00  0.00    +0.000 N 
ATOM     29  C   UNL     1       1.525   4.423  18.476  0.00  0.00    +0.000 C 
ATOM     30  C   UNL     1       1.971   3.037  18.988  0.00  0.00    +0.000 C 
ATOM     31  N   UNL     1       2.878   2.352  18.041  0.00  0.00    +0.000 NA
ATOM     32  C   UNL     1       3.291   1.062  18.588  0.00  0.00    +0.000 C 
ATOM     33  C   UNL     1       4.053   3.220  17.785  0.00  0.00    +0.000 C 
ATOM     34  C   UNL     1       3.665   4.632  17.272  0.00  0.00    +0.000 C 
ENDBRANCH  25  28
ENDBRANCH   8  22
BRANCH  11  35
ATOM     35  C   UNL     1      -3.093  10.197  17.517  0.00  0.00    +0.000 C 
ATOM     36  C   UNL     1      -3.988   9.168  18.208  0.00  0.00    +0.000 C 
ATOM     37  C   UNL     1      -3.750  10.670  16.213  0.00  0.00    +0.000 C 
ENDBRANCH  11  35
TORSDOF 5
ENDMDL
