MODEL 1
REMARK VINA RESULT:      -7.2      0.000      0.000
REMARK  Name = 
REMARK  12 active torsions:
REMARK  status: ('A' for Active; 'I' for Inactive)
REMARK    1  A    between atoms: C_1  and  O_2
REMARK    2  A    between atoms: O_2  and  C_3
REMARK    3  A    between atoms: C_6  and  C_7
REMARK    4  A    between atoms: N_9  and  C_10
REMARK    5  A    between atoms: C_15  and  C_16
REMARK    6  A    between atoms: C_18  and  C_19
REMARK    7  A    between atoms: C_19  and  N_20
REMARK    8  A    between atoms: N_20  and  C_21
REMARK    9  A    between atoms: C_21  and  C_22
REMARK   10  A    between atoms: C_21  and  C_23
REMARK   11  A    between atoms: N_25  and  C_26
REMARK   12  A    between atoms: C_28  and  C_29
REMARK                            x       y       z     vdW  Elec       q    Type
REMARK                         _______ _______ _______ _____ _____    ______ ____
ROOT
ATOM      1  C   UNL     1      -1.316  11.347  18.459  0.00  0.00    +0.000 A 
ATOM      2  N   UNL     1      -0.828  10.101  18.403  0.00  0.00    +0.000 NA
ATOM      3  N   UNL     1       0.482  10.197  18.717  0.00  0.00    +0.000 N 
ATOM      4  C   UNL     1       0.851  11.503  18.931  0.00  0.00    +0.000 A 
ATOM      5  C   UNL     1      -0.271  12.286  18.748  0.00  0.00    +0.000 A 
ENDROOT
BRANCH   1   9
ATOM      6  C   UNL     1      -5.530  11.998  17.880  0.00  0.00    +0.000 A 
ATOM      7  C   UNL     1      -4.703  11.687  16.796  0.00  0.00    +0.000 A 
ATOM      8  C   UNL     1      -3.325  11.482  16.981  0.00  0.00    +0.000 A 
ATOM      9  C   UNL     1      -2.749  11.595  18.255  0.00  0.00    +0.000 A 
ATOM     10  C   UNL     1      -3.581  11.940  19.323  0.00  0.00    +0.000 A 
ATOM     11  C   UNL     1      -4.950  12.120  19.138  0.00  0.00    +0.000 A 
ATOM     12  F   UNL     1      -5.671  12.413  20.230  0.00  0.00    +0.000 F 
BRANCH   6  14
ATOM     13  C   UNL     1      -7.208  13.372  16.912  0.00  0.00    +0.000 C 
ATOM     14  O   UNL     1      -6.853  12.158  17.571  0.00  0.00    +0.000 OA
ENDBRANCH   6  14
ENDBRANCH   1   9
BRANCH   3  15
ATOM     15  C   UNL     1       1.316   9.054  18.847  0.00  0.00    +0.000 A 
ATOM     16  C   UNL     1       2.091   8.664  17.738  0.00  0.00    +0.000 A 
ATOM     17  C   UNL     1       2.957   7.575  17.824  0.00  0.00    +0.000 A 
ATOM     18  C   UNL     1       3.040   6.849  19.007  0.00  0.00    +0.000 A 
ATOM     19  C   UNL     1       2.254   7.212  20.107  0.00  0.00    +0.000 A 
ATOM     20  C   UNL     1       1.379   8.307  20.044  0.00  0.00    +0.000 A 
ATOM     21  C   UNL     1       0.498   8.582  21.237  0.00  0.00    +0.000 C 
ENDBRANCH   3  15
BRANCH   5  22
ATOM     22  C   UNL     1      -0.400  13.766  18.867  0.00  0.00    +0.000 C 
BRANCH  22  23
ATOM     23  N   UNL     1      -1.289  14.136  19.962  0.00  0.00    +0.000 NA
ATOM     24  H   UNL     1      -2.193  13.688  19.802  0.00  0.00    +0.000 HD
BRANCH  23  25
ATOM     25  C   UNL     1      -0.783  13.665  21.256  0.00  0.00    +0.000 C 
ATOM     26  C   UNL     1       0.103  14.692  21.968  0.00  0.00    +0.000 C 
BRANCH  25  27
ATOM     27  C   UNL     1      -1.973  13.279  22.083  0.00  0.00    +0.000 A 
ATOM     28  C   UNL     1      -3.138  14.005  22.244  0.00  0.00    +0.000 A 
ATOM     29  N   UNL     1      -3.934  13.278  23.072  0.00  0.00    +0.000 N 
ATOM     30  C   UNL     1      -5.257  13.621  23.536  0.00  0.00    +0.000 C 
ATOM     31  N   UNL     1      -3.378  12.121  23.473  0.00  0.00    +0.000 NA
ATOM     32  C   UNL     1      -2.178  12.116  22.882  0.00  0.00    +0.000 A 
ATOM     33  C   UNL     1      -1.256  10.974  23.110  0.00  0.00    +0.000 C 
ENDBRANCH  25  27
ENDBRANCH  23  25
ENDBRANCH  22  23
ENDBRANCH   5  22
TORSDOF 7
ENDMDL
MODEL 2
REMARK VINA RESULT:      -7.1      3.159      5.829
REMARK  Name = 
REMARK  12 active torsions:
REMARK  status: ('A' for Active; 'I' for Inactive)
REMARK    1  A    between atoms: C_1  and  O_2
REMARK    2  A    between atoms: O_2  and  C_3
REMARK    3  A    between atoms: C_6  and  C_7
REMARK    4  A    between atoms: N_9  and  C_10
REMARK    5  A    between atoms: C_15  and  C_16
REMARK    6  A    between atoms: C_18  and  C_19
REMARK    7  A    between atoms: C_19  and  N_20
REMARK    8  A    between atoms: N_20  and  C_21
REMARK    9  A    between atoms: C_21  and  C_22
REMARK   10  A    between atoms: C_21  and  C_23
REMARK   11  A    between atoms: N_25  and  C_26
REMARK   12  A    between atoms: C_28  and  C_29
REMARK                            x       y       z     vdW  Elec       q    Type
REMARK                         _______ _______ _______ _____ _____    ______ ____
ROOT
ATOM      1  C   UNL     1       1.284   8.462  20.079  0.00  0.00    +0.000 A 
ATOM      2  N   UNL     1       1.758   7.281  20.495  0.00  0.00    +0.000 NA
ATOM      3  N   UNL     1       2.422   6.752  19.445  0.00  0.00    +0.000 N 
ATOM      4  C   UNL     1       2.341   7.566  18.341  0.00  0.00    +0.000 A 
ATOM      5  C   UNL     1       1.592   8.670  18.695  0.00  0.00    +0.000 A 
ENDROOT
BRANCH   1   9
ATOM      6  C   UNL     1      -0.719  11.066  22.859  0.00  0.00    +0.000 A 
ATOM      7  C   UNL     1      -0.917   9.683  22.911  0.00  0.00    +0.000 A 
ATOM      8  C   UNL     1      -0.271   8.831  22.000  0.00  0.00    +0.000 A 
ATOM      9  C   UNL     1       0.580   9.351  21.012  0.00  0.00    +0.000 A 
ATOM     10  C   UNL     1       0.740  10.738  20.950  0.00  0.00    +0.000 A 
ATOM     11  C   UNL     1       0.115  11.575  21.870  0.00  0.00    +0.000 A 
ATOM     12  F   UNL     1       0.360  12.889  21.752  0.00  0.00    +0.000 F 
BRANCH   6  14
ATOM     13  C   UNL     1      -2.593  12.427  23.387  0.00  0.00    +0.000 C 
ATOM     14  O   UNL     1      -1.392  11.783  23.810  0.00  0.00    +0.000 OA
ENDBRANCH   6  14
ENDBRANCH   1   9
BRANCH   3  15
ATOM     15  C   UNL     1       3.140   5.530  19.540  0.00  0.00    +0.000 A 
ATOM     16  C   UNL     1       4.490   5.516  19.139  0.00  0.00    +0.000 A 
ATOM     17  C   UNL     1       5.253   4.354  19.251  0.00  0.00    +0.000 A 
ATOM     18  C   UNL     1       4.670   3.189  19.739  0.00  0.00    +0.000 A 
ATOM     19  C   UNL     1       3.322   3.185  20.116  0.00  0.00    +0.000 A 
ATOM     20  C   UNL     1       2.538   4.345  20.016  0.00  0.00    +0.000 A 
ATOM     21  C   UNL     1       1.072   4.241  20.354  0.00  0.00    +0.000 C 
ENDBRANCH   3  15
BRANCH   5  22
ATOM     22  C   UNL     1       1.217   9.845  17.857  0.00  0.00    +0.000 C 
BRANCH  22  23
ATOM     23  N   UNL     1      -0.103   9.673  17.260  0.00  0.00    +0.000 NA
ATOM     24  H   UNL     1      -0.392   8.705  17.406  0.00  0.00    +0.000 HD
BRANCH  23  25
ATOM     25  C   UNL     1      -1.104  10.536  17.898  0.00  0.00    +0.000 C 
ATOM     26  C   UNL     1      -0.575  11.937  18.220  0.00  0.00    +0.000 C 
BRANCH  25  27
ATOM     27  C   UNL     1      -2.294  10.580  16.987  0.00  0.00    +0.000 A 
ATOM     28  C   UNL     1      -2.354  10.128  15.682  0.00  0.00    +0.000 A 
ATOM     29  N   UNL     1      -3.620  10.367  15.249  0.00  0.00    +0.000 N 
ATOM     30  C   UNL     1      -4.169  10.068  13.948  0.00  0.00    +0.000 C 
ATOM     31  N   UNL     1      -4.405  10.947  16.174  0.00  0.00    +0.000 NA
ATOM     32  C   UNL     1      -3.603  11.089  17.236  0.00  0.00    +0.000 A 
ATOM     33  C   UNL     1      -4.132  11.719  18.472  0.00  0.00    +0.000 C 
ENDBRANCH  25  27
ENDBRANCH  23  25
ENDBRANCH  22  23
ENDBRANCH   5  22
TORSDOF 7
ENDMDL
MODEL 3
REMARK VINA RESULT:      -7.1      5.079     10.163
REMARK  Name = 
REMARK  12 active torsions:
REMARK  status: ('A' for Active; 'I' for Inactive)
REMARK    1  A    between atoms: C_1  and  O_2
REMARK    2  A    between atoms: O_2  and  C_3
REMARK    3  A    between atoms: C_6  and  C_7
REMARK    4  A    between atoms: N_9  and  C_10
REMARK    5  A    between atoms: C_15  and  C_16
REMARK    6  A    between atoms: C_18  and  C_19
REMARK    7  A    between atoms: C_19  and  N_20
REMARK    8  A    between atoms: N_20  and  C_21
REMARK    9  A    between atoms: C_21  and  C_22
REMARK   10  A    between atoms: C_21  and  C_23
REMARK   11  A    between atoms: N_25  and  C_26
REMARK   12  A    between atoms: C_28  and  C_29
REMARK                            x       y       z     vdW  Elec       q    Type
REMARK                         _______ _______ _______ _____ _____    ______ ____
ROOT
ATOM      1  C   UNL     1       2.083   7.200  18.833  0.00  0.00    +0.000 A 
ATOM      2  N   UNL     1       1.184   7.893  19.543  0.00  0.00    +0.000 NA
ATOM      3  N   UNL     1       1.296   9.177  19.140  0.00  0.00    +0.000 N 
ATOM      4  C   UNL     1       2.294   9.323  18.206  0.00  0.00    +0.000 A 
ATOM      5  C   UNL     1       2.850   8.077  17.997  0.00  0.00    +0.000 A 
ENDROOT
BRANCH   1   9
ATOM      6  C   UNL     1       2.406   2.925  19.201  0.00  0.00    +0.000 A 
ATOM      7  C   UNL     1       2.133   3.513  17.962  0.00  0.00    +0.000 A 
ATOM      8  C   UNL     1       2.019   4.908  17.841  0.00  0.00    +0.000 A 
ATOM      9  C   UNL     1       2.167   5.740  18.961  0.00  0.00    +0.000 A 
ATOM     10  C   UNL     1       2.404   5.135  20.199  0.00  0.00    +0.000 A 
ATOM     11  C   UNL     1       2.538   3.754  20.309  0.00  0.00    +0.000 A 
ATOM     12  F   UNL     1       2.802   3.271  21.533  0.00  0.00    +0.000 F 
BRANCH   6  14
ATOM     13  C   UNL     1       3.735   1.022  18.694  0.00  0.00    +0.000 C 
ATOM     14  O   UNL     1       2.507   1.561  19.183  0.00  0.00    +0.000 OA
ENDBRANCH   6  14
ENDBRANCH   1   9
BRANCH   3  15
ATOM     15  C   UNL     1       0.432  10.199  19.616  0.00  0.00    +0.000 A 
ATOM     16  C   UNL     1      -0.212  11.022  18.672  0.00  0.00    +0.000 A 
ATOM     17  C   UNL     1      -1.103  12.013  19.082  0.00  0.00    +0.000 A 
ATOM     18  C   UNL     1      -1.341  12.210  20.439  0.00  0.00    +0.000 A 
ATOM     19  C   UNL     1      -0.686  11.414  21.386  0.00  0.00    +0.000 A 
ATOM     20  C   UNL     1       0.211  10.409  20.994  0.00  0.00    +0.000 A 
ATOM     21  C   UNL     1       0.946   9.654  22.074  0.00  0.00    +0.000 C 
ENDBRANCH   3  15
BRANCH   5  22
ATOM     22  C   UNL     1       3.962   7.699  17.078  0.00  0.00    +0.000 C 
BRANCH  22  23
ATOM     23  N   UNL     1       5.125   7.225  17.819  0.00  0.00    +0.000 NA
ATOM     24  H   UNL     1       4.908   6.299  18.190  0.00  0.00    +0.000 HD
BRANCH  23  25
ATOM     25  C   UNL     1       6.303   7.092  16.954  0.00  0.00    +0.000 C 
ATOM     26  C   UNL     1       7.627   7.182  17.719  0.00  0.00    +0.000 C 
BRANCH  25  27
ATOM     27  C   UNL     1       6.166   5.793  16.218  0.00  0.00    +0.000 A 
ATOM     28  C   UNL     1       6.242   5.604  14.851  0.00  0.00    +0.000 A 
ATOM     29  N   UNL     1       6.062   4.274  14.634  0.00  0.00    +0.000 N 
ATOM     30  C   UNL     1       6.058   3.589  13.364  0.00  0.00    +0.000 C 
ATOM     31  N   UNL     1       5.870   3.566  15.761  0.00  0.00    +0.000 NA
ATOM     32  C   UNL     1       5.924   4.485  16.734  0.00  0.00    +0.000 A 
ATOM     33  C   UNL     1       5.736   4.065  18.146  0.00  0.00    +0.000 C 
ENDBRANCH  25  27
ENDBRANCH  23  25
ENDBRANCH  22  23
ENDBRANCH   5  22
TORSDOF 7
ENDMDL
MODEL 4
REMARK VINA RESULT:      -7.0      4.066      5.892
REMARK  Name = 
REMARK  12 active torsions:
REMARK  status: ('A' for Active; 'I' for Inactive)
REMARK    1  A    between atoms: C_1  and  O_2
REMARK    2  A    between atoms: O_2  and  C_3
REMARK    3  A    between atoms: C_6  and  C_7
REMARK    4  A    between atoms: N_9  and  C_10
REMARK    5  A    between atoms: C_15  and  C_16
REMARK    6  A    between atoms: C_18  and  C_19
REMARK    7  A    between atoms: C_19  and  N_20
REMARK    8  A    between atoms: N_20  and  C_21
REMARK    9  A    between atoms: C_21  and  C_22
REMARK   10  A    between atoms: C_21  and  C_23
REMARK   11  A    between atoms: N_25  and  C_26
REMARK   12  A    between atoms: C_28  and  C_29
REMARK                            x       y       z     vdW  Elec       q    Type
REMARK                         _______ _______ _______ _____ _____    ______ ____
ROOT
ATOM      1  C   UNL     1       1.467   8.685  19.661  0.00  0.00    +0.000 A 
ATOM      2  N   UNL     1       1.939   7.451  19.882  0.00  0.00    +0.000 NA
ATOM      3  N   UNL     1       2.692   7.139  18.805  0.00  0.00    +0.000 N 
ATOM      4  C   UNL     1       2.672   8.147  17.872  0.00  0.00    +0.000 A 
ATOM      5  C   UNL     1       1.871   9.155  18.369  0.00  0.00    +0.000 A 
ENDROOT
BRANCH   1   9
ATOM      6  C   UNL     1      -0.915  10.641  22.664  0.00  0.00    +0.000 A 
ATOM      7  C   UNL     1      -1.040  10.993  21.316  0.00  0.00    +0.000 A 
ATOM      8  C   UNL     1      -0.258  10.362  20.335  0.00  0.00    +0.000 A 
ATOM      9  C   UNL     1       0.673   9.372  20.687  0.00  0.00    +0.000 A 
ATOM     10  C   UNL     1       0.812   9.056  22.041  0.00  0.00    +0.000 A 
ATOM     11  C   UNL     1       0.018   9.669  23.007  0.00  0.00    +0.000 A 
ATOM     12  F   UNL     1       0.200   9.273  24.276  0.00  0.00    +0.000 F 
BRANCH   6  14
ATOM     13  C   UNL     1      -1.983  12.691  23.212  0.00  0.00    +0.000 C 
ATOM     14  O   UNL     1      -1.742  11.318  23.517  0.00  0.00    +0.000 OA
ENDBRANCH   6  14
ENDBRANCH   1   9
BRANCH   3  15
ATOM     15  C   UNL     1       3.432   5.929  18.723  0.00  0.00    +0.000 A 
ATOM     16  C   UNL     1       4.786   5.946  19.112  0.00  0.00    +0.000 A 
ATOM     17  C   UNL     1       5.546   4.778  19.090  0.00  0.00    +0.000 A 
ATOM     18  C   UNL     1       4.972   3.587  18.658  0.00  0.00    +0.000 A 
ATOM     19  C   UNL     1       3.635   3.564  18.246  0.00  0.00    +0.000 A 
ATOM     20  C   UNL     1       2.850   4.727  18.263  0.00  0.00    +0.000 A 
ATOM     21  C   UNL     1       1.446   4.644  17.719  0.00  0.00    +0.000 C 
ENDBRANCH   3  15
BRANCH   5  22
ATOM     22  C   UNL     1       1.530  10.464  17.741  0.00  0.00    +0.000 C 
BRANCH  22  23
ATOM     23  N   UNL     1       2.525  11.481  18.059  0.00  0.00    +0.000 NA
ATOM     24  H   UNL     1       3.247  11.454  17.337  0.00  0.00    +0.000 HD
BRANCH  23  25
ATOM     25  C   UNL     1       1.945  12.829  18.055  0.00  0.00    +0.000 C 
ATOM     26  C   UNL     1       0.446  12.842  18.370  0.00  0.00    +0.000 C 
BRANCH  25  27
ATOM     27  C   UNL     1       2.732  13.652  19.030  0.00  0.00    +0.000 A 
ATOM     28  C   UNL     1       2.734  13.526  20.406  0.00  0.00    +0.000 A 
ATOM     29  N   UNL     1       3.588  14.472  20.880  0.00  0.00    +0.000 N 
ATOM     30  C   UNL     1       3.926  14.733  22.258  0.00  0.00    +0.000 C 
ATOM     31  N   UNL     1       4.152  15.219  19.914  0.00  0.00    +0.000 NA
ATOM     32  C   UNL     1       3.630  14.733  18.781  0.00  0.00    +0.000 A 
ATOM     33  C   UNL     1       4.019  15.334  17.480  0.00  0.00    +0.000 C 
ENDBRANCH  25  27
ENDBRANCH  23  25
ENDBRANCH  22  23
ENDBRANCH   5  22
TORSDOF 7
ENDMDL
MODEL 5
REMARK VINA RESULT:      -6.9      4.642      9.594
REMARK  Name = 
REMARK  12 active torsions:
REMARK  status: ('A' for Active; 'I' for Inactive)
REMARK    1  A    between atoms: C_1  and  O_2
REMARK    2  A    between atoms: O_2  and  C_3
REMARK    3  A    between atoms: C_6  and  C_7
REMARK    4  A    between atoms: N_9  and  C_10
REMARK    5  A    between atoms: C_15  and  C_16
REMARK    6  A    between atoms: C_18  and  C_19
REMARK    7  A    between atoms: C_19  and  N_20
REMARK    8  A    between atoms: N_20  and  C_21
REMARK    9  A    between atoms: C_21  and  C_22
REMARK   10  A    between atoms: C_21  and  C_23
REMARK   11  A    between atoms: N_25  and  C_26
REMARK   12  A    between atoms: C_28  and  C_29
REMARK                            x       y       z     vdW  Elec       q    Type
REMARK                         _______ _______ _______ _____ _____    ______ ____
ROOT
ATOM      1  C   UNL     1       1.957   7.823  18.756  0.00  0.00    +0.000 A 
ATOM      2  N   UNL     1       1.152   8.754  19.283  0.00  0.00    +0.000 NA
ATOM      3  N   UNL     1       1.436   9.905  18.638  0.00  0.00    +0.000 N 
ATOM      4  C   UNL     1       2.452   9.732  17.729  0.00  0.00    +0.000 A 
ATOM      5  C   UNL     1       2.839   8.408  17.789  0.00  0.00    +0.000 A 
ENDROOT
BRANCH   1   9
ATOM      6  C   UNL     1       1.554   3.716  19.976  0.00  0.00    +0.000 A 
ATOM      7  C   UNL     1       1.689   4.731  20.928  0.00  0.00    +0.000 A 
ATOM      8  C   UNL     1       1.829   6.072  20.533  0.00  0.00    +0.000 A 
ATOM      9  C   UNL     1       1.846   6.420  19.174  0.00  0.00    +0.000 A 
ATOM     10  C   UNL     1       1.746   5.391  18.233  0.00  0.00    +0.000 A 
ATOM     11  C   UNL     1       1.585   4.067  18.631  0.00  0.00    +0.000 A 
ATOM     12  F   UNL     1       1.461   3.156  17.654  0.00  0.00    +0.000 F 
BRANCH   6  14
ATOM     13  C   UNL     1       1.535   2.330  21.905  0.00  0.00    +0.000 C 
ATOM     14  O   UNL     1       1.410   2.456  20.490  0.00  0.00    +0.000 OA
ENDBRANCH   6  14
ENDBRANCH   1   9
BRANCH   3  15
ATOM     15  C   UNL     1       0.710  11.104  18.872  0.00  0.00    +0.000 A 
ATOM     16  C   UNL     1       1.348  12.145  19.574  0.00  0.00    +0.000 A 
ATOM     17  C   UNL     1       0.697  13.357  19.795  0.00  0.00    +0.000 A 
ATOM     18  C   UNL     1      -0.606  13.535  19.341  0.00  0.00    +0.000 A 
ATOM     19  C   UNL     1      -1.258  12.498  18.663  0.00  0.00    +0.000 A 
ATOM     20  C   UNL     1      -0.619  11.271  18.427  0.00  0.00    +0.000 A 
ATOM     21  C   UNL     1      -1.417  10.171  17.773  0.00  0.00    +0.000 C 
ENDBRANCH   3  15
BRANCH   5  22
ATOM     22  C   UNL     1       3.899   7.715  17.002  0.00  0.00    +0.000 C 
BRANCH  22  23
ATOM     23  N   UNL     1       5.167   7.694  17.722  0.00  0.00    +0.000 NA
ATOM     24  H   UNL     1       4.982   7.405  18.683  0.00  0.00    +0.000 HD
BRANCH  23  25
ATOM     25  C   UNL     1       6.106   6.727  17.141  0.00  0.00    +0.000 C 
ATOM     26  C   UNL     1       7.558   6.966  17.565  0.00  0.00    +0.000 C 
BRANCH  25  27
ATOM     27  C   UNL     1       5.625   5.360  17.526  0.00  0.00    +0.000 A 
ATOM     28  C   UNL     1       5.476   4.866  18.808  0.00  0.00    +0.000 A 
ATOM     29  N   UNL     1       5.017   3.592  18.681  0.00  0.00    +0.000 N 
ATOM     30  C   UNL     1       4.707   2.665  19.742  0.00  0.00    +0.000 C 
ATOM     31  N   UNL     1       4.854   3.205  17.403  0.00  0.00    +0.000 NA
ATOM     32  C   UNL     1       5.230   4.273  16.690  0.00  0.00    +0.000 A 
ATOM     33  C   UNL     1       5.196   4.210  15.206  0.00  0.00    +0.000 C 
ENDBRANCH  25  27
ENDBRANCH  23  25
ENDBRANCH  22  23
ENDBRANCH   5  22
TORSDOF 7
ENDMDL
MODEL 6
REMARK VINA RESULT:      -6.9      1.869      2.605
REMARK  Name = 
REMARK  12 active torsions:
REMARK  status: ('A' for Active; 'I' for Inactive)
REMARK    1  A    between atoms: C_1  and  O_2
REMARK    2  A    between atoms: O_2  and  C_3
REMARK    3  A    between atoms: C_6  and  C_7
REMARK    4  A    between atoms: N_9  and  C_10
REMARK    5  A    between atoms: C_15  and  C_16
REMARK    6  A    between atoms: C_18  and  C_19
REMARK    7  A    between atoms: C_19  and  N_20
REMARK    8  A    between atoms: N_20  and  C_21
REMARK    9  A    between atoms: C_21  and  C_22
REMARK   10  A    between atoms: C_21  and  C_23
REMARK   11  A    between atoms: N_25  and  C_26
REMARK   12  A    between atoms: C_28  and  C_29
REMARK                            x       y       z     vdW  Elec       q    Type
REMARK                         _______ _______ _______ _____ _____    ______ ____
ROOT
ATOM      1  C   UNL     1      -0.171  10.365  18.041  0.00  0.00    +0.000 A 
ATOM      2  N   UNL     1       0.281   9.106  17.962  0.00  0.00    +0.000 NA
ATOM      3  N   UNL     1       1.576   9.149  18.340  0.00  0.00    +0.000 N 
ATOM      4  C   UNL     1       1.974  10.435  18.618  0.00  0.00    +0.000 A 
ATOM      5  C   UNL     1       0.886  11.258  18.412  0.00  0.00    +0.000 A 
ENDROOT
BRANCH   1   9
ATOM      6  C   UNL     1      -4.293  11.310  17.241  0.00  0.00    +0.000 A 
ATOM      7  C   UNL     1      -3.709  11.652  18.465  0.00  0.00    +0.000 A 
ATOM      8  C   UNL     1      -2.366  11.338  18.732  0.00  0.00    +0.000 A 
ATOM      9  C   UNL     1      -1.585  10.665  17.780  0.00  0.00    +0.000 A 
ATOM     10  C   UNL     1      -2.192  10.298  16.576  0.00  0.00    +0.000 A 
ATOM     11  C   UNL     1      -3.517  10.632  16.308  0.00  0.00    +0.000 A 
ATOM     12  F   UNL     1      -3.999  10.269  15.110  0.00  0.00    +0.000 F 
BRANCH   6  14
ATOM     13  C   UNL     1      -6.328  11.921  18.305  0.00  0.00    +0.000 C 
ATOM     14  O   UNL     1      -5.601  11.685  17.100  0.00  0.00    +0.000 OA
ENDBRANCH   6  14
ENDBRANCH   1   9
BRANCH   3  15
ATOM     15  C   UNL     1       2.368   7.976  18.466  0.00  0.00    +0.000 A 
ATOM     16  C   UNL     1       3.205   7.617  17.392  0.00  0.00    +0.000 A 
ATOM     17  C   UNL     1       4.033   6.499  17.479  0.00  0.00    +0.000 A 
ATOM     18  C   UNL     1       4.017   5.714  18.627  0.00  0.00    +0.000 A 
ATOM     19  C   UNL     1       3.170   6.048  19.691  0.00  0.00    +0.000 A 
ATOM     20  C   UNL     1       2.331   7.171  19.625  0.00  0.00    +0.000 A 
ATOM     21  C   UNL     1       1.381   7.415  20.771  0.00  0.00    +0.000 C 
ENDBRANCH   3  15
BRANCH   5  22
ATOM     22  C   UNL     1       0.796  12.738  18.579  0.00  0.00    +0.000 C 
BRANCH  22  23
ATOM     23  N   UNL     1       1.286  13.156  19.887  0.00  0.00    +0.000 NA
ATOM     24  H   UNL     1       2.020  13.851  19.743  0.00  0.00    +0.000 HD
BRANCH  23  25
ATOM     25  C   UNL     1       0.230  13.785  20.688  0.00  0.00    +0.000 C 
ATOM     26  C   UNL     1      -0.920  14.339  19.841  0.00  0.00    +0.000 C 
BRANCH  25  27
ATOM     27  C   UNL     1      -0.242  12.763  21.678  0.00  0.00    +0.000 A 
ATOM     28  C   UNL     1       0.019  11.406  21.654  0.00  0.00    +0.000 A 
ATOM     29  N   UNL     1      -0.604  10.874  22.740  0.00  0.00    +0.000 N 
ATOM     30  C   UNL     1      -0.621   9.490  23.145  0.00  0.00    +0.000 C 
ATOM     31  N   UNL     1      -1.262  11.783  23.481  0.00  0.00    +0.000 NA
ATOM     32  C   UNL     1      -1.055  12.938  22.838  0.00  0.00    +0.000 A 
ATOM     33  C   UNL     1      -1.655  14.188  23.369  0.00  0.00    +0.000 C 
ENDBRANCH  25  27
ENDBRANCH  23  25
ENDBRANCH  22  23
ENDBRANCH   5  22
TORSDOF 7
ENDMDL
MODEL 7
REMARK VINA RESULT:      -6.9      3.610      6.986
REMARK  Name = 
REMARK  12 active torsions:
REMARK  status: ('A' for Active; 'I' for Inactive)
REMARK    1  A    between atoms: C_1  and  O_2
REMARK    2  A    between atoms: O_2  and  C_3
REMARK    3  A    between atoms: C_6  and  C_7
REMARK    4  A    between atoms: N_9  and  C_10
REMARK    5  A    between atoms: C_15  and  C_16
REMARK    6  A    between atoms: C_18  and  C_19
REMARK    7  A    between atoms: C_19  and  N_20
REMARK    8  A    between atoms: N_20  and  C_21
REMARK    9  A    between atoms: C_21  and  C_22
REMARK   10  A    between atoms: C_21  and  C_23
REMARK   11  A    between atoms: N_25  and  C_26
REMARK   12  A    between atoms: C_28  and  C_29
REMARK                            x       y       z     vdW  Elec       q    Type
REMARK                         _______ _______ _______ _____ _____    ______ ____
ROOT
ATOM      1  C   UNL     1       0.177  10.443  18.885  0.00  0.00    +0.000 A 
ATOM      2  N   UNL     1      -1.147  10.270  18.786  0.00  0.00    +0.000 NA
ATOM      3  N   UNL     1      -1.668  11.492  18.542  0.00  0.00    +0.000 N 
ATOM      4  C   UNL     1      -0.691  12.458  18.527  0.00  0.00    +0.000 A 
ATOM      5  C   UNL     1       0.514  11.832  18.771  0.00  0.00    +0.000 A 
ENDROOT
BRANCH   1   9
ATOM      6  C   UNL     1       2.728   7.013  19.378  0.00  0.00    +0.000 A 
ATOM      7  C   UNL     1       1.956   7.484  20.445  0.00  0.00    +0.000 A 
ATOM      8  C   UNL     1       1.128   8.608  20.289  0.00  0.00    +0.000 A 
ATOM      9  C   UNL     1       1.066   9.289  19.063  0.00  0.00    +0.000 A 
ATOM     10  C   UNL     1       1.871   8.827  18.017  0.00  0.00    +0.000 A 
ATOM     11  C   UNL     1       2.672   7.699  18.170  0.00  0.00    +0.000 A 
ATOM     12  F   UNL     1       3.379   7.313  17.098  0.00  0.00    +0.000 F 
BRANCH   6  14
ATOM     13  C   UNL     1       2.966   4.657  19.182  0.00  0.00    +0.000 C 
ATOM     14  O   UNL     1       3.478   5.902  19.654  0.00  0.00    +0.000 OA
ENDBRANCH   6  14
ENDBRANCH   1   9
BRANCH   3  15
ATOM     15  C   UNL     1      -3.052  11.689  18.288  0.00  0.00    +0.000 A 
ATOM     16  C   UNL     1      -3.866  12.144  19.344  0.00  0.00    +0.000 A 
ATOM     17  C   UNL     1      -5.222  12.394  19.139  0.00  0.00    +0.000 A 
ATOM     18  C   UNL     1      -5.785  12.168  17.887  0.00  0.00    +0.000 A 
ATOM     19  C   UNL     1      -4.990  11.691  16.838  0.00  0.00    +0.000 A 
ATOM     20  C   UNL     1      -3.622  11.437  17.022  0.00  0.00    +0.000 A 
ATOM     21  C   UNL     1      -2.852  10.839  15.872  0.00  0.00    +0.000 C 
ENDBRANCH   3  15
BRANCH   5  22
ATOM     22  C   UNL     1       1.875  12.436  18.855  0.00  0.00    +0.000 C 
BRANCH  22  23
ATOM     23  N   UNL     1       2.127  12.999  20.176  0.00  0.00    +0.000 NA
ATOM     24  H   UNL     1       2.864  12.450  20.619  0.00  0.00    +0.000 HD
BRANCH  23  25
ATOM     25  C   UNL     1       2.595  14.387  20.095  0.00  0.00    +0.000 C 
ATOM     26  C   UNL     1       3.690  14.594  19.043  0.00  0.00    +0.000 C 
BRANCH  25  27
ATOM     27  C   UNL     1       1.394  15.245  19.832  0.00  0.00    +0.000 A 
ATOM     28  C   UNL     1       1.149  16.002  18.702  0.00  0.00    +0.000 A 
ATOM     29  N   UNL     1      -0.051  16.610  18.897  0.00  0.00    +0.000 N 
ATOM     30  C   UNL     1      -0.735  17.504  17.994  0.00  0.00    +0.000 C 
ATOM     31  N   UNL     1      -0.619  16.311  20.079  0.00  0.00    +0.000 NA
ATOM     32  C   UNL     1       0.258  15.485  20.661  0.00  0.00    +0.000 A 
ATOM     33  C   UNL     1      -0.031  14.949  22.015  0.00  0.00    +0.000 C 
ENDBRANCH  25  27
ENDBRANCH  23  25
ENDBRANCH  22  23
ENDBRANCH   5  22
TORSDOF 7
ENDMDL
MODEL 8
REMARK VINA RESULT:      -6.9      3.284      6.576
REMARK  Name = 
REMARK  12 active torsions:
REMARK  status: ('A' for Active; 'I' for Inactive)
REMARK    1  A    between atoms: C_1  and  O_2
REMARK    2  A    between atoms: O_2  and  C_3
REMARK    3  A    between atoms: C_6  and  C_7
REMARK    4  A    between atoms: N_9  and  C_10
REMARK    5  A    between atoms: C_15  and  C_16
REMARK    6  A    between atoms: C_18  and  C_19
REMARK    7  A    between atoms: C_19  and  N_20
REMARK    8  A    between atoms: N_20  and  C_21
REMARK    9  A    between atoms: C_21  and  C_22
REMARK   10  A    between atoms: C_21  and  C_23
REMARK   11  A    between atoms: N_25  and  C_26
REMARK   12  A    between atoms: C_28  and  C_29
REMARK                            x       y       z     vdW  Elec       q    Type
REMARK                         _______ _______ _______ _____ _____    ______ ____
ROOT
ATOM      1  C   UNL     1      -0.009  10.610  18.843  0.00  0.00    +0.000 A 
ATOM      2  N   UNL     1      -1.335  10.425  18.841  0.00  0.00    +0.000 NA
ATOM      3  N   UNL     1      -1.882  11.627  18.558  0.00  0.00    +0.000 N 
ATOM      4  C   UNL     1      -0.916  12.595  18.421  0.00  0.00    +0.000 A 
ATOM      5  C   UNL     1       0.308  11.991  18.624  0.00  0.00    +0.000 A 
ENDROOT
BRANCH   1   9
ATOM      6  C   UNL     1       2.601   7.230  19.369  0.00  0.00    +0.000 A 
ATOM      7  C   UNL     1       1.818   7.695  20.430  0.00  0.00    +0.000 A 
ATOM      8  C   UNL     1       0.971   8.803  20.263  0.00  0.00    +0.000 A 
ATOM      9  C   UNL     1       0.901   9.473  19.032  0.00  0.00    +0.000 A 
ATOM     10  C   UNL     1       1.715   9.019  17.992  0.00  0.00    +0.000 A 
ATOM     11  C   UNL     1       2.536   7.906  18.156  0.00  0.00    +0.000 A 
ATOM     12  F   UNL     1       3.253   7.524  17.088  0.00  0.00    +0.000 F 
BRANCH   6  14
ATOM     13  C   UNL     1       2.888   4.878  19.182  0.00  0.00    +0.000 C 
ATOM     14  O   UNL     1       3.371   6.135  19.655  0.00  0.00    +0.000 OA
ENDBRANCH   6  14
ENDBRANCH   1   9
BRANCH   3  15
ATOM     15  C   UNL     1      -3.281  11.801  18.383  0.00  0.00    +0.000 A 
ATOM     16  C   UNL     1      -4.040  12.247  19.482  0.00  0.00    +0.000 A 
ATOM     17  C   UNL     1      -5.410  12.474  19.354  0.00  0.00    +0.000 A 
ATOM     18  C   UNL     1      -6.040  12.235  18.137  0.00  0.00    +0.000 A 
ATOM     19  C   UNL     1      -5.298  11.768  17.046  0.00  0.00    +0.000 A 
ATOM     20  C   UNL     1      -3.918  11.536  17.152  0.00  0.00    +0.000 A 
ATOM     21  C   UNL     1      -3.205  10.946  15.961  0.00  0.00    +0.000 C 
ENDBRANCH   3  15
BRANCH   5  22
ATOM     22  C   UNL     1       1.666  12.606  18.583  0.00  0.00    +0.000 C 
BRANCH  22  23
ATOM     23  N   UNL     1       1.724  13.820  19.388  0.00  0.00    +0.000 NA
ATOM     24  H   UNL     1       0.806  14.268  19.354  0.00  0.00    +0.000 HD
BRANCH  23  25
ATOM     25  C   UNL     1       2.021  13.526  20.795  0.00  0.00    +0.000 C 
ATOM     26  C   UNL     1       3.398  14.029  21.239  0.00  0.00    +0.000 C 
BRANCH  25  27
ATOM     27  C   UNL     1       0.915  14.119  21.614  0.00  0.00    +0.000 A 
ATOM     28  C   UNL     1       0.779  15.443  21.986  0.00  0.00    +0.000 A 
ATOM     29  N   UNL     1      -0.365  15.524  22.717  0.00  0.00    +0.000 N 
ATOM     30  C   UNL     1      -0.931  16.704  23.324  0.00  0.00    +0.000 C 
ATOM     31  N   UNL     1      -0.997  14.345  22.858  0.00  0.00    +0.000 NA
ATOM     32  C   UNL     1      -0.220  13.479  22.196  0.00  0.00    +0.000 A 
ATOM     33  C   UNL     1      -0.603  12.045  22.146  0.00  0.00    +0.000 C 
ENDBRANCH  25  27
ENDBRANCH  23  25
ENDBRANCH  22  23
ENDBRANCH   5  22
TORSDOF 7
ENDMDL
MODEL 9
REMARK VINA RESULT:      -6.8      3.382      7.260
REMARK  Name = 
REMARK  12 active torsions:
REMARK  status: ('A' for Active; 'I' for Inactive)
REMARK    1  A    between atoms: C_1  and  O_2
REMARK    2  A    between atoms: O_2  and  C_3
REMARK    3  A    between atoms: C_6  and  C_7
REMARK    4  A    between atoms: N_9  and  C_10
REMARK    5  A    between atoms: C_15  and  C_16
REMARK    6  A    between atoms: C_18  and  C_19
REMARK    7  A    between atoms: C_19  and  N_20
REMARK    8  A    between atoms: N_20  and  C_21
REMARK    9  A    between atoms: C_21  and  C_22
REMARK   10  A    between atoms: C_21  and  C_23
REMARK   11  A    between atoms: N_25  and  C_26
REMARK   12  A    between atoms: C_28  and  C_29
REMARK                            x       y       z     vdW  Elec       q    Type
REMARK                         _______ _______ _______ _____ _____    ______ ____
ROOT
ATOM      1  C   UNL     1      -0.607  10.836  20.291  0.00  0.00    +0.000 A 
ATOM      2  N   UNL     1      -0.645  11.403  21.503  0.00  0.00    +0.000 NA
ATOM      3  N   UNL     1      -1.671  12.280  21.475  0.00  0.00    +0.000 N 
ATOM      4  C   UNL     1      -2.266  12.314  20.236  0.00  0.00    +0.000 A 
ATOM      5  C   UNL     1      -1.595  11.418  19.430  0.00  0.00    +0.000 A 
ENDROOT
BRANCH   1   9
ATOM      6  C   UNL     1       2.132   7.633  19.420  0.00  0.00    +0.000 A 
ATOM      7  C   UNL     1       1.562   7.756  20.692  0.00  0.00    +0.000 A 
ATOM      8  C   UNL     1       0.674   8.805  20.981  0.00  0.00    +0.000 A 
ATOM      9  C   UNL     1       0.348   9.758  20.004  0.00  0.00    +0.000 A 
ATOM     10  C   UNL     1       0.952   9.642  18.749  0.00  0.00    +0.000 A 
ATOM     11  C   UNL     1       1.814   8.587  18.461  0.00  0.00    +0.000 A 
ATOM     12  F   UNL     1       2.315   8.542  17.217  0.00  0.00    +0.000 F 
BRANCH   6  14
ATOM     13  C   UNL     1       3.936   6.660  18.220  0.00  0.00    +0.000 C 
ATOM     14  O   UNL     1       2.967   6.561  19.262  0.00  0.00    +0.000 OA
ENDBRANCH   6  14
ENDBRANCH   1   9
BRANCH   3  15
ATOM     15  C   UNL     1      -2.075  13.012  22.624  0.00  0.00    +0.000 A 
ATOM     16  C   UNL     1      -3.275  12.644  23.263  0.00  0.00    +0.000 A 
ATOM     17  C   UNL     1      -3.696  13.301  24.417  0.00  0.00    +0.000 A 
ATOM     18  C   UNL     1      -2.938  14.348  24.933  0.00  0.00    +0.000 A 
ATOM     19  C   UNL     1      -1.757  14.738  24.291  0.00  0.00    +0.000 A 
ATOM     20  C   UNL     1      -1.313  14.087  23.130  0.00  0.00    +0.000 A 
ATOM     21  C   UNL     1      -0.081  14.623  22.444  0.00  0.00    +0.000 C 
ENDBRANCH   3  15
BRANCH   5  22
ATOM     22  C   UNL     1      -1.853  11.081  18.000  0.00  0.00    +0.000 C 
BRANCH  22  23
ATOM     23  N   UNL     1      -2.764  12.038  17.385  0.00  0.00    +0.000 NA
ATOM     24  H   UNL     1      -2.221  12.636  16.760  0.00  0.00    +0.000 HD
BRANCH  23  25
ATOM     25  C   UNL     1      -3.791  11.369  16.578  0.00  0.00    +0.000 C 
ATOM     26  C   UNL     1      -3.335  10.019  16.018  0.00  0.00    +0.000 C 
BRANCH  25  27
ATOM     27  C   UNL     1      -5.012  11.238  17.439  0.00  0.00    +0.000 A 
ATOM     28  C   UNL     1      -5.297  10.210  18.319  0.00  0.00    +0.000 A 
ATOM     29  N   UNL     1      -6.500  10.504  18.879  0.00  0.00    +0.000 N 
ATOM     30  C   UNL     1      -7.218   9.730  19.862  0.00  0.00    +0.000 C 
ATOM     31  N   UNL     1      -7.036  11.654  18.431  0.00  0.00    +0.000 NA
ATOM     32  C   UNL     1      -6.139  12.105  17.545  0.00  0.00    +0.000 A 
ATOM     33  C   UNL     1      -6.404  13.375  16.821  0.00  0.00    +0.000 C 
ENDBRANCH  25  27
ENDBRANCH  23  25
ENDBRANCH  22  23
ENDBRANCH   5  22
TORSDOF 7
ENDMDL
