MODEL 1
REMARK VINA RESULT:      -7.1      0.000      0.000
REMARK  Name = 
REMARK  7 active torsions:
REMARK  status: ('A' for Active; 'I' for Inactive)
REMARK    1  A    between atoms: C_1  and  C_2
REMARK    2  A    between atoms: C_2  and  C_3
REMARK    3  A    between atoms: C_5  and  C_6
REMARK    4  A    between atoms: N_8  and  C_9
REMARK    5  A    between atoms: N_8  and  C_11
REMARK    6  A    between atoms: C_9  and  C_10
REMARK    7  A    between atoms: C_18  and  C_19
REMARK                            x       y       z     vdW  Elec       q    Type
REMARK                         _______ _______ _______ _____ _____    ______ ____
ROOT
ATOM      1  C   UNL     1       5.653   4.144  14.262  0.00  0.00    +0.000 A 
ATOM      2  C   UNL     1       5.005   3.616  15.379  0.00  0.00    +0.000 A 
ATOM      3  C   UNL     1       5.293   4.105  16.666  0.00  0.00    +0.000 A 
ATOM      4  C   UNL     1       6.299   5.121  16.757  0.00  0.00    +0.000 A 
ATOM      5  C   UNL     1       6.949   5.980  17.710  0.00  0.00    +0.000 A 
ATOM      6  C   UNL     1       6.793   6.158  19.175  0.00  0.00    +0.000 C 
ATOM      7  N   UNL     1       7.888   6.736  17.135  0.00  0.00    +0.000 NA
ATOM      8  O   UNL     1       7.841   6.453  15.791  0.00  0.00    +0.000 OA
ATOM      9  C   UNL     1       6.894   5.512  15.558  0.00  0.00    +0.000 A 
ATOM     10  N   UNL     1       6.618   5.074  14.319  0.00  0.00    +0.000 NA
ENDROOT
BRANCH   3  11
ATOM     11  C   UNL     1       4.418   3.772  17.826  0.00  0.00    +0.000 C 
ATOM     12  O   UNL     1       4.747   2.726  18.394  0.00  0.00    +0.000 OA
ATOM     13  N   UNL     1       3.323   4.555  18.287  0.00  0.00    +0.000 N 
BRANCH  13  14
ATOM     14  C   UNL     1       2.522   3.953  19.326  0.00  0.00    +0.000 A 
ATOM     15  C   UNL     1       2.861   4.131  20.665  0.00  0.00    +0.000 A 
ATOM     16  C   UNL     1       2.119   3.512  21.679  0.00  0.00    +0.000 A 
ATOM     17  C   UNL     1       1.040   2.693  21.360  0.00  0.00    +0.000 A 
ATOM     18  C   UNL     1       0.689   2.509  20.021  0.00  0.00    +0.000 A 
ATOM     19  C   UNL     1       1.412   3.147  19.007  0.00  0.00    +0.000 A 
ENDBRANCH  13  14
BRANCH  13  20
ATOM     20  C   UNL     1       2.755   5.807  17.720  0.00  0.00    +0.000 C 
ATOM     21  C   UNL     1       3.087   7.073  18.531  0.00  0.00    +0.000 C 
ENDBRANCH  13  20
ENDBRANCH   3  11
BRANCH   1  23
ATOM     22  C   UNL     1       6.478   3.455  11.998  0.00  0.00    +0.000 C 
ATOM     23  C   UNL     1       5.263   3.695  12.873  0.00  0.00    +0.000 C 
ENDBRANCH   1  23
TORSDOF 4
ENDMDL
MODEL 2
REMARK VINA RESULT:      -7.1      0.286      1.027
REMARK  Name = 
REMARK  7 active torsions:
REMARK  status: ('A' for Active; 'I' for Inactive)
REMARK    1  A    between atoms: C_1  and  C_2
REMARK    2  A    between atoms: C_2  and  C_3
REMARK    3  A    between atoms: C_5  and  C_6
REMARK    4  A    between atoms: N_8  and  C_9
REMARK    5  A    between atoms: N_8  and  C_11
REMARK    6  A    between atoms: C_9  and  C_10
REMARK    7  A    between atoms: C_18  and  C_19
REMARK                            x       y       z     vdW  Elec       q    Type
REMARK                         _______ _______ _______ _____ _____    ______ ____
ROOT
ATOM      1  C   UNL     1       5.737   4.065  14.085  0.00  0.00    +0.000 A 
ATOM      2  C   UNL     1       5.083   3.517  15.189  0.00  0.00    +0.000 A 
ATOM      3  C   UNL     1       5.342   4.004  16.483  0.00  0.00    +0.000 A 
ATOM      4  C   UNL     1       6.325   5.040  16.595  0.00  0.00    +0.000 A 
ATOM      5  C   UNL     1       6.944   5.906  17.562  0.00  0.00    +0.000 A 
ATOM      6  C   UNL     1       6.763   6.072  19.025  0.00  0.00    +0.000 C 
ATOM      7  N   UNL     1       7.876   6.684  17.005  0.00  0.00    +0.000 NA
ATOM      8  O   UNL     1       7.855   6.408  15.659  0.00  0.00    +0.000 OA
ATOM      9  C   UNL     1       6.930   5.449  15.407  0.00  0.00    +0.000 A 
ATOM     10  N   UNL     1       6.682   5.013  14.161  0.00  0.00    +0.000 NA
ENDROOT
BRANCH   3  11
ATOM     11  C   UNL     1       4.457   3.647  17.628  0.00  0.00    +0.000 C 
ATOM     12  O   UNL     1       4.656   2.504  18.053  0.00  0.00    +0.000 OA
ATOM     13  N   UNL     1       3.488   4.503  18.223  0.00  0.00    +0.000 N 
BRANCH  13  14
ATOM     14  C   UNL     1       2.637   3.886  19.212  0.00  0.00    +0.000 A 
ATOM     15  C   UNL     1       1.378   3.409  18.854  0.00  0.00    +0.000 A 
ATOM     16  C   UNL     1       0.525   2.852  19.815  0.00  0.00    +0.000 A 
ATOM     17  C   UNL     1       0.917   2.785  21.148  0.00  0.00    +0.000 A 
ATOM     18  C   UNL     1       2.176   3.258  21.518  0.00  0.00    +0.000 A 
ATOM     19  C   UNL     1       3.042   3.791  20.556  0.00  0.00    +0.000 A 
ENDBRANCH  13  14
BRANCH  13  20
ATOM     20  C   UNL     1       3.080   5.879  17.832  0.00  0.00    +0.000 C 
ATOM     21  C   UNL     1       2.819   6.819  19.023  0.00  0.00    +0.000 C 
ENDBRANCH  13  20
ENDBRANCH   3  11
BRANCH   1  23
ATOM     22  C   UNL     1       6.603   3.205  11.895  0.00  0.00    +0.000 C 
ATOM     23  C   UNL     1       5.377   3.616  12.688  0.00  0.00    +0.000 C 
ENDBRANCH   1  23
TORSDOF 4
ENDMDL
MODEL 3
REMARK VINA RESULT:      -6.9      1.983      3.178
REMARK  Name = 
REMARK  7 active torsions:
REMARK  status: ('A' for Active; 'I' for Inactive)
REMARK    1  A    between atoms: C_1  and  C_2
REMARK    2  A    between atoms: C_2  and  C_3
REMARK    3  A    between atoms: C_5  and  C_6
REMARK    4  A    between atoms: N_8  and  C_9
REMARK    5  A    between atoms: N_8  and  C_11
REMARK    6  A    between atoms: C_9  and  C_10
REMARK    7  A    between atoms: C_18  and  C_19
REMARK                            x       y       z     vdW  Elec       q    Type
REMARK                         _______ _______ _______ _____ _____    ______ ____
ROOT
ATOM      1  C   UNL     1       5.654   4.277  14.501  0.00  0.00    +0.000 A 
ATOM      2  C   UNL     1       4.691   4.960  15.247  0.00  0.00    +0.000 A 
ATOM      3  C   UNL     1       4.972   5.373  16.562  0.00  0.00    +0.000 A 
ATOM      4  C   UNL     1       6.256   5.019  17.087  0.00  0.00    +0.000 A 
ATOM      5  C   UNL     1       7.080   5.182  18.255  0.00  0.00    +0.000 A 
ATOM      6  C   UNL     1       6.869   5.886  19.544  0.00  0.00    +0.000 C 
ATOM      7  N   UNL     1       8.245   4.542  18.132  0.00  0.00    +0.000 NA
ATOM      8  O   UNL     1       8.256   4.000  16.869  0.00  0.00    +0.000 OA
ATOM      9  C   UNL     1       7.092   4.291  16.240  0.00  0.00    +0.000 A 
ATOM     10  N   UNL     1       6.852   3.907  14.976  0.00  0.00    +0.000 NA
ENDROOT
BRANCH   3  11
ATOM     11  C   UNL     1       4.086   6.346  17.264  0.00  0.00    +0.000 C 
ATOM     12  O   UNL     1       4.376   7.522  17.024  0.00  0.00    +0.000 OA
ATOM     13  N   UNL     1       2.994   6.007  18.111  0.00  0.00    +0.000 N 
BRANCH  13  14
ATOM     14  C   UNL     1       2.383   7.113  18.809  0.00  0.00    +0.000 A 
ATOM     15  C   UNL     1       2.123   7.022  20.175  0.00  0.00    +0.000 A 
ATOM     16  C   UNL     1       1.487   8.070  20.853  0.00  0.00    +0.000 A 
ATOM     17  C   UNL     1       1.088   9.212  20.165  0.00  0.00    +0.000 A 
ATOM     18  C   UNL     1       1.345   9.315  18.797  0.00  0.00    +0.000 A 
ATOM     19  C   UNL     1       2.004   8.282  18.122  0.00  0.00    +0.000 A 
ENDBRANCH  13  14
BRANCH  13  20
ATOM     20  C   UNL     1       2.520   4.667  18.548  0.00  0.00    +0.000 C 
ATOM     21  C   UNL     1       1.461   4.042  17.622  0.00  0.00    +0.000 C 
ENDBRANCH  13  20
ENDBRANCH   3  11
BRANCH   1  23
ATOM     22  C   UNL     1       6.674   3.618  12.309  0.00  0.00    +0.000 C 
ATOM     23  C   UNL     1       5.391   3.932  13.054  0.00  0.00    +0.000 C 
ENDBRANCH   1  23
TORSDOF 4
ENDMDL
MODEL 4
REMARK VINA RESULT:      -6.9      1.366      3.367
REMARK  Name = 
REMARK  7 active torsions:
REMARK  status: ('A' for Active; 'I' for Inactive)
REMARK    1  A    between atoms: C_1  and  C_2
REMARK    2  A    between atoms: C_2  and  C_3
REMARK    3  A    between atoms: C_5  and  C_6
REMARK    4  A    between atoms: N_8  and  C_9
REMARK    5  A    between atoms: N_8  and  C_11
REMARK    6  A    between atoms: C_9  and  C_10
REMARK    7  A    between atoms: C_18  and  C_19
REMARK                            x       y       z     vdW  Elec       q    Type
REMARK                         _______ _______ _______ _____ _____    ______ ____
ROOT
ATOM      1  C   UNL     1       7.599   7.310  17.736  0.00  0.00    +0.000 A 
ATOM      2  C   UNL     1       6.500   6.797  18.427  0.00  0.00    +0.000 A 
ATOM      3  C   UNL     1       5.752   5.736  17.887  0.00  0.00    +0.000 A 
ATOM      4  C   UNL     1       6.154   5.257  16.598  0.00  0.00    +0.000 A 
ATOM      5  C   UNL     1       5.839   4.247  15.624  0.00  0.00    +0.000 A 
ATOM      6  C   UNL     1       4.827   3.163  15.590  0.00  0.00    +0.000 C 
ATOM      7  N   UNL     1       6.611   4.348  14.539  0.00  0.00    +0.000 NA
ATOM      8  O   UNL     1       7.494   5.372  14.789  0.00  0.00    +0.000 OA
ATOM      9  C   UNL     1       7.240   5.902  16.010  0.00  0.00    +0.000 A 
ATOM     10  N   UNL     1       7.981   6.901  16.517  0.00  0.00    +0.000 NA
ENDROOT
BRANCH   3  11
ATOM     11  C   UNL     1       4.771   4.986  18.724  0.00  0.00    +0.000 C 
ATOM     12  O   UNL     1       5.297   4.098  19.402  0.00  0.00    +0.000 OA
ATOM     13  N   UNL     1       3.374   5.244  18.790  0.00  0.00    +0.000 N 
BRANCH  13  14
ATOM     14  C   UNL     1       2.600   4.287  19.544  0.00  0.00    +0.000 A 
ATOM     15  C   UNL     1       2.526   4.382  20.932  0.00  0.00    +0.000 A 
ATOM     16  C   UNL     1       1.818   3.431  21.677  0.00  0.00    +0.000 A 
ATOM     17  C   UNL     1       1.192   2.363  21.040  0.00  0.00    +0.000 A 
ATOM     18  C   UNL     1       1.257   2.259  19.650  0.00  0.00    +0.000 A 
ATOM     19  C   UNL     1       1.942   3.222  18.900  0.00  0.00    +0.000 A 
ENDBRANCH  13  14
BRANCH  13  20
ATOM     20  C   UNL     1       2.560   6.230  18.030  0.00  0.00    +0.000 C 
ATOM     21  C   UNL     1       2.527   7.635  18.656  0.00  0.00    +0.000 C 
ENDBRANCH  13  20
ENDBRANCH   3  11
BRANCH   1  23
ATOM     22  C   UNL     1       8.143   9.754  17.827  0.00  0.00    +0.000 C 
ATOM     23  C   UNL     1       8.466   8.374  18.367  0.00  0.00    +0.000 C 
ENDBRANCH   1  23
TORSDOF 4
ENDMDL
MODEL 5
REMARK VINA RESULT:      -6.8      1.373      3.511
REMARK  Name = 
REMARK  7 active torsions:
REMARK  status: ('A' for Active; 'I' for Inactive)
REMARK    1  A    between atoms: C_1  and  C_2
REMARK    2  A    between atoms: C_2  and  C_3
REMARK    3  A    between atoms: C_5  and  C_6
REMARK    4  A    between atoms: N_8  and  C_9
REMARK    5  A    between atoms: N_8  and  C_11
REMARK    6  A    between atoms: C_9  and  C_10
REMARK    7  A    between atoms: C_18  and  C_19
REMARK                            x       y       z     vdW  Elec       q    Type
REMARK                         _______ _______ _______ _____ _____    ______ ____
ROOT
ATOM      1  C   UNL     1       7.641   7.329  17.752  0.00  0.00    +0.000 A 
ATOM      2  C   UNL     1       6.553   6.796  18.445  0.00  0.00    +0.000 A 
ATOM      3  C   UNL     1       5.816   5.729  17.899  0.00  0.00    +0.000 A 
ATOM      4  C   UNL     1       6.217   5.268  16.603  0.00  0.00    +0.000 A 
ATOM      5  C   UNL     1       5.910   4.263  15.621  0.00  0.00    +0.000 A 
ATOM      6  C   UNL     1       4.913   3.165  15.582  0.00  0.00    +0.000 C 
ATOM      7  N   UNL     1       6.674   4.385  14.533  0.00  0.00    +0.000 NA
ATOM      8  O   UNL     1       7.544   5.418  14.787  0.00  0.00    +0.000 OA
ATOM      9  C   UNL     1       7.291   5.934  16.014  0.00  0.00    +0.000 A 
ATOM     10  N   UNL     1       8.020   6.938  16.527  0.00  0.00    +0.000 NA
ENDROOT
BRANCH   3  11
ATOM     11  C   UNL     1       4.851   4.958  18.734  0.00  0.00    +0.000 C 
ATOM     12  O   UNL     1       5.393   4.072  19.402  0.00  0.00    +0.000 OA
ATOM     13  N   UNL     1       3.450   5.195  18.809  0.00  0.00    +0.000 N 
BRANCH  13  14
ATOM     14  C   UNL     1       2.694   4.220  19.559  0.00  0.00    +0.000 A 
ATOM     15  C   UNL     1       2.042   3.180  18.899  0.00  0.00    +0.000 A 
ATOM     16  C   UNL     1       1.267   2.256  19.611  0.00  0.00    +0.000 A 
ATOM     17  C   UNL     1       1.121   2.376  20.990  0.00  0.00    +0.000 A 
ATOM     18  C   UNL     1       1.772   3.411  21.662  0.00  0.00    +0.000 A 
ATOM     19  C   UNL     1       2.569   4.321  20.957  0.00  0.00    +0.000 A 
ENDBRANCH  13  14
BRANCH  13  20
ATOM     20  C   UNL     1       2.618   6.175  18.061  0.00  0.00    +0.000 C 
ATOM     21  C   UNL     1       2.509   7.553  18.738  0.00  0.00    +0.000 C 
ENDBRANCH  13  20
ENDBRANCH   3  11
BRANCH   1  23
ATOM     22  C   UNL     1       8.160   9.779  17.855  0.00  0.00    +0.000 C 
ATOM     23  C   UNL     1       8.496   8.400  18.388  0.00  0.00    +0.000 C 
ENDBRANCH   1  23
TORSDOF 4
ENDMDL
MODEL 6
REMARK VINA RESULT:      -6.6      2.086      3.368
REMARK  Name = 
REMARK  7 active torsions:
REMARK  status: ('A' for Active; 'I' for Inactive)
REMARK    1  A    between atoms: C_1  and  C_2
REMARK    2  A    between atoms: C_2  and  C_3
REMARK    3  A    between atoms: C_5  and  C_6
REMARK    4  A    between atoms: N_8  and  C_9
REMARK    5  A    between atoms: N_8  and  C_11
REMARK    6  A    between atoms: C_9  and  C_10
REMARK    7  A    between atoms: C_18  and  C_19
REMARK                            x       y       z     vdW  Elec       q    Type
REMARK                         _______ _______ _______ _____ _____    ______ ____
ROOT
ATOM      1  C   UNL     1       6.296   4.710  14.388  0.00  0.00    +0.000 A 
ATOM      2  C   UNL     1       5.211   5.327  15.012  0.00  0.00    +0.000 A 
ATOM      3  C   UNL     1       5.231   5.571  16.397  0.00  0.00    +0.000 A 
ATOM      4  C   UNL     1       6.386   5.118  17.113  0.00  0.00    +0.000 A 
ATOM      5  C   UNL     1       6.967   5.115  18.429  0.00  0.00    +0.000 A 
ATOM      6  C   UNL     1       6.512   5.665  19.729  0.00  0.00    +0.000 C 
ATOM      7  N   UNL     1       8.130   4.460  18.456  0.00  0.00    +0.000 NA
ATOM      8  O   UNL     1       8.384   4.073  17.161  0.00  0.00    +0.000 OA
ATOM      9  C   UNL     1       7.367   4.473  16.360  0.00  0.00    +0.000 A 
ATOM     10  N   UNL     1       7.377   4.250  15.036  0.00  0.00    +0.000 NA
ENDROOT
BRANCH   3  11
ATOM     11  C   UNL     1       4.231   6.478  17.030  0.00  0.00    +0.000 C 
ATOM     12  O   UNL     1       4.371   7.658  16.693  0.00  0.00    +0.000 OA
ATOM     13  N   UNL     1       3.191   6.075  17.913  0.00  0.00    +0.000 N 
BRANCH  13  14
ATOM     14  C   UNL     1       2.447   7.148  18.527  0.00  0.00    +0.000 A 
ATOM     15  C   UNL     1       2.001   8.222  17.760  0.00  0.00    +0.000 A 
ATOM     16  C   UNL     1       1.320   9.291  18.354  0.00  0.00    +0.000 A 
ATOM     17  C   UNL     1       1.094   9.304  19.727  0.00  0.00    +0.000 A 
ATOM     18  C   UNL     1       1.533   8.233  20.506  0.00  0.00    +0.000 A 
ATOM     19  C   UNL     1       2.191   7.150  19.912  0.00  0.00    +0.000 A 
ENDBRANCH  13  14
BRANCH  13  20
ATOM     20  C   UNL     1       2.890   4.725  18.460  0.00  0.00    +0.000 C 
ATOM     21  C   UNL     1       1.901   3.907  17.609  0.00  0.00    +0.000 C 
ENDBRANCH  13  20
ENDBRANCH   3  11
BRANCH   1  23
ATOM     22  C   UNL     1       5.488   3.363  12.435  0.00  0.00    +0.000 C 
ATOM     23  C   UNL     1       6.320   4.548  12.886  0.00  0.00    +0.000 C 
ENDBRANCH   1  23
TORSDOF 4
ENDMDL
MODEL 7
REMARK VINA RESULT:      -6.2      2.319      7.020
REMARK  Name = 
REMARK  7 active torsions:
REMARK  status: ('A' for Active; 'I' for Inactive)
REMARK    1  A    between atoms: C_1  and  C_2
REMARK    2  A    between atoms: C_2  and  C_3
REMARK    3  A    between atoms: C_5  and  C_6
REMARK    4  A    between atoms: N_8  and  C_9
REMARK    5  A    between atoms: N_8  and  C_11
REMARK    6  A    between atoms: C_9  and  C_10
REMARK    7  A    between atoms: C_18  and  C_19
REMARK                            x       y       z     vdW  Elec       q    Type
REMARK                         _______ _______ _______ _____ _____    ______ ____
ROOT
ATOM      1  C   UNL     1       1.823   7.072  20.519  0.00  0.00    +0.000 A 
ATOM      2  C   UNL     1       2.801   6.979  19.527  0.00  0.00    +0.000 A 
ATOM      3  C   UNL     1       3.199   5.722  19.037  0.00  0.00    +0.000 A 
ATOM      4  C   UNL     1       2.585   4.575  19.635  0.00  0.00    +0.000 A 
ATOM      5  C   UNL     1       2.546   3.140  19.539  0.00  0.00    +0.000 A 
ATOM      6  C   UNL     1       3.233   2.172  18.649  0.00  0.00    +0.000 C 
ATOM      7  N   UNL     1       1.744   2.604  20.463  0.00  0.00    +0.000 NA
ATOM      8  O   UNL     1       1.183   3.658  21.144  0.00  0.00    +0.000 OA
ATOM      9  C   UNL     1       1.663   4.825  20.650  0.00  0.00    +0.000 A 
ATOM     10  N   UNL     1       1.253   6.015  21.117  0.00  0.00    +0.000 NA
ENDROOT
BRANCH   3  11
ATOM     11  C   UNL     1       4.011   5.608  17.792  0.00  0.00    +0.000 C 
ATOM     12  O   UNL     1       3.433   6.056  16.796  0.00  0.00    +0.000 OA
ATOM     13  N   UNL     1       5.327   5.074  17.709  0.00  0.00    +0.000 N 
BRANCH  13  14
ATOM     14  C   UNL     1       5.852   4.917  16.374  0.00  0.00    +0.000 A 
ATOM     15  C   UNL     1       5.307   3.967  15.513  0.00  0.00    +0.000 A 
ATOM     16  C   UNL     1       5.839   3.773  14.233  0.00  0.00    +0.000 A 
ATOM     17  C   UNL     1       6.936   4.516  13.807  0.00  0.00    +0.000 A 
ATOM     18  C   UNL     1       7.489   5.472  14.660  0.00  0.00    +0.000 A 
ATOM     19  C   UNL     1       6.943   5.688  15.930  0.00  0.00    +0.000 A 
ENDBRANCH  13  14
BRANCH  13  20
ATOM     20  C   UNL     1       6.163   4.458  18.774  0.00  0.00    +0.000 C 
ATOM     21  C   UNL     1       7.108   5.446  19.482  0.00  0.00    +0.000 C 
ENDBRANCH  13  20
ENDBRANCH   3  11
BRANCH   1  23
ATOM     22  C   UNL     1      -0.103   8.349  21.488  0.00  0.00    +0.000 C 
ATOM     23  C   UNL     1       1.319   8.424  20.966  0.00  0.00    +0.000 C 
ENDBRANCH   1  23
TORSDOF 4
ENDMDL
MODEL 8
REMARK VINA RESULT:      -6.2      2.191      6.816
REMARK  Name = 
REMARK  7 active torsions:
REMARK  status: ('A' for Active; 'I' for Inactive)
REMARK    1  A    between atoms: C_1  and  C_2
REMARK    2  A    between atoms: C_2  and  C_3
REMARK    3  A    between atoms: C_5  and  C_6
REMARK    4  A    between atoms: N_8  and  C_9
REMARK    5  A    between atoms: N_8  and  C_11
REMARK    6  A    between atoms: C_9  and  C_10
REMARK    7  A    between atoms: C_18  and  C_19
REMARK                            x       y       z     vdW  Elec       q    Type
REMARK                         _______ _______ _______ _____ _____    ______ ____
ROOT
ATOM      1  C   UNL     1       1.853   6.994  20.457  0.00  0.00    +0.000 A 
ATOM      2  C   UNL     1       2.834   6.891  19.470  0.00  0.00    +0.000 A 
ATOM      3  C   UNL     1       3.279   5.628  19.039  0.00  0.00    +0.000 A 
ATOM      4  C   UNL     1       2.708   4.488  19.692  0.00  0.00    +0.000 A 
ATOM      5  C   UNL     1       2.722   3.050  19.665  0.00  0.00    +0.000 A 
ATOM      6  C   UNL     1       3.445   2.067  18.821  0.00  0.00    +0.000 C 
ATOM      7  N   UNL     1       1.940   2.529  20.613  0.00  0.00    +0.000 NA
ATOM      8  O   UNL     1       1.339   3.593  21.244  0.00  0.00    +0.000 OA
ATOM      9  C   UNL     1       1.776   4.752  20.695  0.00  0.00    +0.000 A 
ATOM     10  N   UNL     1       1.321   5.947  21.105  0.00  0.00    +0.000 NA
ENDROOT
BRANCH   3  11
ATOM     11  C   UNL     1       4.097   5.485  17.801  0.00  0.00    +0.000 C 
ATOM     12  O   UNL     1       3.496   5.842  16.782  0.00  0.00    +0.000 OA
ATOM     13  N   UNL     1       5.440   5.019  17.746  0.00  0.00    +0.000 N 
BRANCH  13  14
ATOM     14  C   UNL     1       5.973   4.812  16.420  0.00  0.00    +0.000 A 
ATOM     15  C   UNL     1       6.953   5.665  15.918  0.00  0.00    +0.000 A 
ATOM     16  C   UNL     1       7.443   5.503  14.616  0.00  0.00    +0.000 A 
ATOM     17  C   UNL     1       6.941   4.496  13.796  0.00  0.00    +0.000 A 
ATOM     18  C   UNL     1       5.960   3.634  14.290  0.00  0.00    +0.000 A 
ATOM     19  C   UNL     1       5.488   3.776  15.599  0.00  0.00    +0.000 A 
ENDBRANCH  13  14
BRANCH  13  20
ATOM     20  C   UNL     1       6.308   4.512  18.843  0.00  0.00    +0.000 C 
ATOM     21  C   UNL     1       7.237   5.577  19.452  0.00  0.00    +0.000 C 
ENDBRANCH  13  20
ENDBRANCH   3  11
BRANCH   1  23
ATOM     22  C   UNL     1       1.100   9.236  19.627  0.00  0.00    +0.000 C 
ATOM     23  C   UNL     1       1.298   8.347  20.839  0.00  0.00    +0.000 C 
ENDBRANCH   1  23
TORSDOF 4
ENDMDL
MODEL 9
REMARK VINA RESULT:      -6.2      3.111      5.363
REMARK  Name = 
REMARK  7 active torsions:
REMARK  status: ('A' for Active; 'I' for Inactive)
REMARK    1  A    between atoms: C_1  and  C_2
REMARK    2  A    between atoms: C_2  and  C_3
REMARK    3  A    between atoms: C_5  and  C_6
REMARK    4  A    between atoms: N_8  and  C_9
REMARK    5  A    between atoms: N_8  and  C_11
REMARK    6  A    between atoms: C_9  and  C_10
REMARK    7  A    between atoms: C_18  and  C_19
REMARK                            x       y       z     vdW  Elec       q    Type
REMARK                         _______ _______ _______ _____ _____    ______ ____
ROOT
ATOM      1  C   UNL     1       4.742   5.519  16.912  0.00  0.00    +0.000 A 
ATOM      2  C   UNL     1       4.004   6.436  17.662  0.00  0.00    +0.000 A 
ATOM      3  C   UNL     1       2.916   6.004  18.442  0.00  0.00    +0.000 A 
ATOM      4  C   UNL     1       2.597   4.609  18.385  0.00  0.00    +0.000 A 
ATOM      5  C   UNL     1       1.700   3.634  18.945  0.00  0.00    +0.000 A 
ATOM      6  C   UNL     1       0.607   3.730  19.944  0.00  0.00    +0.000 C 
ATOM      7  N   UNL     1       1.901   2.420  18.427  0.00  0.00    +0.000 NA
ATOM      8  O   UNL     1       2.968   2.540  17.568  0.00  0.00    +0.000 OA
ATOM      9  C   UNL     1       3.395   3.826  17.551  0.00  0.00    +0.000 A 
ATOM     10  N   UNL     1       4.450   4.214  16.816  0.00  0.00    +0.000 NA
ENDROOT
BRANCH   3  11
ATOM     11  C   UNL     1       2.305   6.899  19.466  0.00  0.00    +0.000 C 
ATOM     12  O   UNL     1       2.311   6.408  20.600  0.00  0.00    +0.000 OA
ATOM     13  N   UNL     1       1.781   8.199  19.222  0.00  0.00    +0.000 N 
BRANCH  13  14
ATOM     14  C   UNL     1       1.094   8.812  20.333  0.00  0.00    +0.000 A 
ATOM     15  C   UNL     1      -0.043   9.587  20.114  0.00  0.00    +0.000 A 
ATOM     16  C   UNL     1      -0.689  10.226  21.179  0.00  0.00    +0.000 A 
ATOM     17  C   UNL     1      -0.192  10.109  22.474  0.00  0.00    +0.000 A 
ATOM     18  C   UNL     1       0.944   9.333  22.707  0.00  0.00    +0.000 A 
ATOM     19  C   UNL     1       1.577   8.672  21.648  0.00  0.00    +0.000 A 
ENDBRANCH  13  14
BRANCH  13  20
ATOM     20  C   UNL     1       1.649   8.935  17.936  0.00  0.00    +0.000 C 
ATOM     21  C   UNL     1       2.166  10.384  17.986  0.00  0.00    +0.000 C 
ENDBRANCH  13  20
ENDBRANCH   3  11
BRANCH   1  23
ATOM     22  C   UNL     1       7.066   6.438  17.105  0.00  0.00    +0.000 C 
ATOM     23  C   UNL     1       5.975   5.967  16.162  0.00  0.00    +0.000 C 
ENDBRANCH   1  23
TORSDOF 4
ENDMDL
