MODEL 1
REMARK VINA RESULT:      -6.1      0.000      0.000
REMARK  Name = 
REMARK  6 active torsions:
REMARK  status: ('A' for Active; 'I' for Inactive)
REMARK    1  A    between atoms: C_7  and  N_8
REMARK    2  A    between atoms: N_8  and  C_9
REMARK    3  A    between atoms: C_9  and  C_10
REMARK    4  A    between atoms: C_10  and  O_11
REMARK    5  A    between atoms: C_10  and  C_12
REMARK    6  A    between atoms: C_12  and  O_13
REMARK                            x       y       z     vdW  Elec       q    Type
REMARK                         _______ _______ _______ _____ _____    ______ ____
ROOT
ATOM      1  N   UNL     1       6.869   5.117  14.482  0.00  0.00    +0.000 N 
ATOM      2  C   UNL     1       6.868   5.304  15.847  0.00  0.00    +0.000 A 
ATOM      3  N   UNL     1       7.452   6.402  16.311  0.00  0.00    +0.000 NA
ATOM      4  C   UNL     1       7.381   6.563  17.638  0.00  0.00    +0.000 A 
ATOM      5 CL   UNL     1       8.185   7.962  18.225  0.00  0.00    +0.000 Cl
ATOM      6  C   UNL     1       6.756   5.705  18.503  0.00  0.00    +0.000 A 
ATOM      7  C   UNL     1       6.230   4.574  17.929  0.00  0.00    +0.000 A 
ATOM      8  N   UNL     1       6.298   4.360  16.604  0.00  0.00    +0.000 NA
ATOM      9  H   UNL     1       7.626   5.634  14.056  0.00  0.00    +0.000 HD
ATOM     10  H   UNL     1       6.782   4.138  14.255  0.00  0.00    +0.000 HD
ENDROOT
BRANCH   7  11
ATOM     11  N   UNL     1       5.618   3.637  18.775  0.00  0.00    +0.000 N 
ATOM     12  H   UNL     1       5.986   3.740  19.724  0.00  0.00    +0.000 HD
BRANCH  11  13
ATOM     13  C   UNL     1       4.154   3.635  18.773  0.00  0.00    +0.000 C 
BRANCH  13  14
ATOM     14  C   UNL     1       3.653   2.393  18.015  0.00  0.00    +0.000 C 
BRANCH  14  15
ATOM     15  O   UNL     1       4.177   1.211  18.647  0.00  0.00    +0.000 OA
ATOM     16  H   UNL     1       5.148   1.284  18.654  0.00  0.00    +0.000 HD
ENDBRANCH  14  15
BRANCH  14  17
ATOM     17  C   UNL     1       2.120   2.357  17.975  0.00  0.00    +0.000 C 
BRANCH  17  18
ATOM     18  O   UNL     1       1.583   3.581  17.479  0.00  0.00    +0.000 OA
ATOM     19  H   UNL     1       2.323   4.129  17.162  0.00  0.00    +0.000 HD
ENDBRANCH  17  18
ENDBRANCH  14  17
ENDBRANCH  13  14
ENDBRANCH  11  13
ENDBRANCH   7  11
TORSDOF 6
ENDMDL
MODEL 2
REMARK VINA RESULT:      -6.1      3.350      5.180
REMARK  Name = 
REMARK  6 active torsions:
REMARK  status: ('A' for Active; 'I' for Inactive)
REMARK    1  A    between atoms: C_7  and  N_8
REMARK    2  A    between atoms: N_8  and  C_9
REMARK    3  A    between atoms: C_9  and  C_10
REMARK    4  A    between atoms: C_10  and  O_11
REMARK    5  A    between atoms: C_10  and  C_12
REMARK    6  A    between atoms: C_12  and  O_13
REMARK                            x       y       z     vdW  Elec       q    Type
REMARK                         _______ _______ _______ _____ _____    ______ ____
ROOT
ATOM      1  N   UNL     1       5.173   1.612  20.451  0.00  0.00    +0.000 N 
ATOM      2  C   UNL     1       4.470   2.702  19.987  0.00  0.00    +0.000 A 
ATOM      3  N   UNL     1       3.200   2.809  20.356  0.00  0.00    +0.000 NA
ATOM      4  C   UNL     1       2.575   3.909  19.922  0.00  0.00    +0.000 A 
ATOM      5 CL   UNL     1       0.919   4.005  20.367  0.00  0.00    +0.000 Cl
ATOM      6  C   UNL     1       3.149   4.894  19.164  0.00  0.00    +0.000 A 
ATOM      7  C   UNL     1       4.451   4.663  18.791  0.00  0.00    +0.000 A 
ATOM      8  N   UNL     1       5.111   3.561  19.185  0.00  0.00    +0.000 NA
ATOM      9  H   UNL     1       4.541   0.861  20.690  0.00  0.00    +0.000 HD
ATOM     10  H   UNL     1       5.946   1.398  19.839  0.00  0.00    +0.000 HD
ENDROOT
BRANCH   7  11
ATOM     11  N   UNL     1       5.075   5.617  17.975  0.00  0.00    +0.000 N 
ATOM     12  H   UNL     1       4.520   6.476  17.963  0.00  0.00    +0.000 HD
BRANCH  11  13
ATOM     13  C   UNL     1       6.479   5.899  18.281  0.00  0.00    +0.000 C 
BRANCH  13  14
ATOM     14  C   UNL     1       7.372   5.195  17.244  0.00  0.00    +0.000 C 
BRANCH  14  15
ATOM     15  O   UNL     1       7.952   4.020  17.840  0.00  0.00    +0.000 OA
ATOM     16  H   UNL     1       7.568   3.918  18.729  0.00  0.00    +0.000 HD
ENDBRANCH  14  15
BRANCH  14  17
ATOM     17  C   UNL     1       6.568   4.829  15.989  0.00  0.00    +0.000 C 
BRANCH  17  18
ATOM     18  O   UNL     1       6.073   3.494  16.057  0.00  0.00    +0.000 OA
ATOM     19  H   UNL     1       5.733   3.253  15.177  0.00  0.00    +0.000 HD
ENDBRANCH  17  18
ENDBRANCH  14  17
ENDBRANCH  13  14
ENDBRANCH  11  13
ENDBRANCH   7  11
TORSDOF 6
ENDMDL
MODEL 3
REMARK VINA RESULT:      -6.1      2.145      2.940
REMARK  Name = 
REMARK  6 active torsions:
REMARK  status: ('A' for Active; 'I' for Inactive)
REMARK    1  A    between atoms: C_7  and  N_8
REMARK    2  A    between atoms: N_8  and  C_9
REMARK    3  A    between atoms: C_9  and  C_10
REMARK    4  A    between atoms: C_10  and  O_11
REMARK    5  A    between atoms: C_10  and  C_12
REMARK    6  A    between atoms: C_12  and  O_13
REMARK                            x       y       z     vdW  Elec       q    Type
REMARK                         _______ _______ _______ _____ _____    ______ ____
ROOT
ATOM      1  N   UNL     1       7.864   4.794  18.679  0.00  0.00    +0.000 N 
ATOM      2  C   UNL     1       7.027   4.631  17.596  0.00  0.00    +0.000 A 
ATOM      3  N   UNL     1       7.535   4.877  16.394  0.00  0.00    +0.000 NA
ATOM      4  C   UNL     1       6.700   4.657  15.372  0.00  0.00    +0.000 A 
ATOM      5 CL   UNL     1       7.356   5.029  13.829  0.00  0.00    +0.000 Cl
ATOM      6  C   UNL     1       5.415   4.201  15.489  0.00  0.00    +0.000 A 
ATOM      7  C   UNL     1       4.969   4.028  16.777  0.00  0.00    +0.000 A 
ATOM      8  N   UNL     1       5.765   4.258  17.834  0.00  0.00    +0.000 NA
ATOM      9  H   UNL     1       8.617   5.428  18.451  0.00  0.00    +0.000 HD
ATOM     10  H   UNL     1       7.332   4.977  19.517  0.00  0.00    +0.000 HD
ENDROOT
BRANCH   7  11
ATOM     11  N   UNL     1       3.643   3.606  16.957  0.00  0.00    +0.000 N 
ATOM     12  H   UNL     1       3.571   2.605  16.761  0.00  0.00    +0.000 HD
BRANCH  11  13
ATOM     13  C   UNL     1       3.038   3.936  18.250  0.00  0.00    +0.000 C 
BRANCH  13  14
ATOM     14  C   UNL     1       2.819   2.639  19.049  0.00  0.00    +0.000 C 
BRANCH  14  15
ATOM     15  O   UNL     1       2.909   1.514  18.157  0.00  0.00    +0.000 OA
ATOM     16  H   UNL     1       3.846   1.254  18.100  0.00  0.00    +0.000 HD
ENDBRANCH  14  15
BRANCH  14  17
ATOM     17  C   UNL     1       3.843   2.518  20.185  0.00  0.00    +0.000 C 
BRANCH  17  18
ATOM     18  O   UNL     1       5.041   1.883  19.743  0.00  0.00    +0.000 OA
ATOM     19  H   UNL     1       5.326   2.318  18.920  0.00  0.00    +0.000 HD
ENDBRANCH  17  18
ENDBRANCH  14  17
ENDBRANCH  13  14
ENDBRANCH  11  13
ENDBRANCH   7  11
TORSDOF 6
ENDMDL
MODEL 4
REMARK VINA RESULT:      -6.0      0.850      1.545
REMARK  Name = 
REMARK  6 active torsions:
REMARK  status: ('A' for Active; 'I' for Inactive)
REMARK    1  A    between atoms: C_7  and  N_8
REMARK    2  A    between atoms: N_8  and  C_9
REMARK    3  A    between atoms: C_9  and  C_10
REMARK    4  A    between atoms: C_10  and  O_11
REMARK    5  A    between atoms: C_10  and  C_12
REMARK    6  A    between atoms: C_12  and  O_13
REMARK                            x       y       z     vdW  Elec       q    Type
REMARK                         _______ _______ _______ _____ _____    ______ ____
ROOT
ATOM      1  N   UNL     1       7.221   5.117  14.205  0.00  0.00    +0.000 N 
ATOM      2  C   UNL     1       6.981   5.247  15.556  0.00  0.00    +0.000 A 
ATOM      3  N   UNL     1       7.579   6.251  16.186  0.00  0.00    +0.000 NA
ATOM      4  C   UNL     1       7.277   6.365  17.484  0.00  0.00    +0.000 A 
ATOM      5 CL   UNL     1       8.099   7.636  18.293  0.00  0.00    +0.000 Cl
ATOM      6  C   UNL     1       6.412   5.551  18.165  0.00  0.00    +0.000 A 
ATOM      7  C   UNL     1       5.886   4.512  17.436  0.00  0.00    +0.000 A 
ATOM      8  N   UNL     1       6.181   4.345  16.136  0.00  0.00    +0.000 NA
ATOM      9  H   UNL     1       8.095   5.559  13.958  0.00  0.00    +0.000 HD
ATOM     10  H   UNL     1       7.074   4.164  13.907  0.00  0.00    +0.000 HD
ENDROOT
BRANCH   7  11
ATOM     11  N   UNL     1       5.030   3.619  18.097  0.00  0.00    +0.000 N 
ATOM     12  H   UNL     1       4.968   3.870  19.086  0.00  0.00    +0.000 HD
BRANCH  11  13
ATOM     13  C   UNL     1       3.699   3.457  17.508  0.00  0.00    +0.000 C 
BRANCH  13  14
ATOM     14  C   UNL     1       2.838   2.587  18.440  0.00  0.00    +0.000 C 
BRANCH  14  15
ATOM     15  O   UNL     1       1.906   1.827  17.650  0.00  0.00    +0.000 OA
ATOM     16  H   UNL     1       2.416   1.175  17.136  0.00  0.00    +0.000 HD
ENDBRANCH  14  15
BRANCH  14  17
ATOM     17  C   UNL     1       3.717   1.660  19.289  0.00  0.00    +0.000 C 
BRANCH  17  18
ATOM     18  O   UNL     1       4.367   0.677  18.486  0.00  0.00    +0.000 OA
ATOM     19  H   UNL     1       4.911   0.121  19.071  0.00  0.00    +0.000 HD
ENDBRANCH  17  18
ENDBRANCH  14  17
ENDBRANCH  13  14
ENDBRANCH  11  13
ENDBRANCH   7  11
TORSDOF 6
ENDMDL
MODEL 5
REMARK VINA RESULT:      -6.0      3.796      4.886
REMARK  Name = 
REMARK  6 active torsions:
REMARK  status: ('A' for Active; 'I' for Inactive)
REMARK    1  A    between atoms: C_7  and  N_8
REMARK    2  A    between atoms: N_8  and  C_9
REMARK    3  A    between atoms: C_9  and  C_10
REMARK    4  A    between atoms: C_10  and  O_11
REMARK    5  A    between atoms: C_10  and  C_12
REMARK    6  A    between atoms: C_12  and  O_13
REMARK                            x       y       z     vdW  Elec       q    Type
REMARK                         _______ _______ _______ _____ _____    ______ ____
ROOT
ATOM      1  N   UNL     1       8.786   5.968  13.211  0.00  0.00    +0.000 N 
ATOM      2  C   UNL     1       7.729   5.170  13.591  0.00  0.00    +0.000 A 
ATOM      3  N   UNL     1       7.043   4.570  12.625  0.00  0.00    +0.000 NA
ATOM      4  C   UNL     1       6.059   3.767  13.045  0.00  0.00    +0.000 A 
ATOM      5 CL   UNL     1       5.150   3.040  11.783  0.00  0.00    +0.000 Cl
ATOM      6  C   UNL     1       5.742   3.529  14.356  0.00  0.00    +0.000 A 
ATOM      7  C   UNL     1       6.477   4.238  15.275  0.00  0.00    +0.000 A 
ATOM      8  N   UNL     1       7.459   5.073  14.897  0.00  0.00    +0.000 NA
ATOM      9  H   UNL     1       8.664   6.286  12.259  0.00  0.00    +0.000 HD
ATOM     10  H   UNL     1       8.980   6.663  13.917  0.00  0.00    +0.000 HD
ENDROOT
BRANCH   7  11
ATOM     11  N   UNL     1       6.163   4.068  16.632  0.00  0.00    +0.000 N 
ATOM     12  H   UNL     1       6.876   3.489  17.079  0.00  0.00    +0.000 HD
BRANCH  11  13
ATOM     13  C   UNL     1       5.928   5.298  17.391  0.00  0.00    +0.000 C 
BRANCH  13  14
ATOM     14  C   UNL     1       7.094   5.516  18.371  0.00  0.00    +0.000 C 
BRANCH  14  15
ATOM     15  O   UNL     1       8.052   4.454  18.210  0.00  0.00    +0.000 OA
ATOM     16  H   UNL     1       8.942   4.847  18.258  0.00  0.00    +0.000 HD
ENDBRANCH  14  15
BRANCH  14  17
ATOM     17  C   UNL     1       7.751   6.883  18.144  0.00  0.00    +0.000 C 
BRANCH  17  18
ATOM     18  O   UNL     1       7.775   7.227  16.760  0.00  0.00    +0.000 OA
ATOM     19  H   UNL     1       8.420   6.648  16.317  0.00  0.00    +0.000 HD
ENDBRANCH  17  18
ENDBRANCH  14  17
ENDBRANCH  13  14
ENDBRANCH  11  13
ENDBRANCH   7  11
TORSDOF 6
ENDMDL
MODEL 6
REMARK VINA RESULT:      -6.0      3.686      5.667
REMARK  Name = 
REMARK  6 active torsions:
REMARK  status: ('A' for Active; 'I' for Inactive)
REMARK    1  A    between atoms: C_7  and  N_8
REMARK    2  A    between atoms: N_8  and  C_9
REMARK    3  A    between atoms: C_9  and  C_10
REMARK    4  A    between atoms: C_10  and  O_11
REMARK    5  A    between atoms: C_10  and  C_12
REMARK    6  A    between atoms: C_12  and  O_13
REMARK                            x       y       z     vdW  Elec       q    Type
REMARK                         _______ _______ _______ _____ _____    ______ ____
ROOT
ATOM      1  N   UNL     1       5.198   1.606  20.448  0.00  0.00    +0.000 N 
ATOM      2  C   UNL     1       4.424   2.491  19.730  0.00  0.00    +0.000 A 
ATOM      3  N   UNL     1       3.143   2.183  19.563  0.00  0.00    +0.000 NA
ATOM      4  C   UNL     1       2.423   3.096  18.902  0.00  0.00    +0.000 A 
ATOM      5 CL   UNL     1       0.782   2.658  18.652  0.00  0.00    +0.000 Cl
ATOM      6  C   UNL     1       2.906   4.284  18.423  0.00  0.00    +0.000 A 
ATOM      7  C   UNL     1       4.254   4.483  18.601  0.00  0.00    +0.000 A 
ATOM      8  N   UNL     1       5.020   3.583  19.238  0.00  0.00    +0.000 NA
ATOM      9  H   UNL     1       4.789   0.682  20.426  0.00  0.00    +0.000 HD
ATOM     10  H   UNL     1       6.171   1.696  20.196  0.00  0.00    +0.000 HD
ENDROOT
BRANCH   7  11
ATOM     11  N   UNL     1       4.812   5.663  18.087  0.00  0.00    +0.000 N 
ATOM     12  H   UNL     1       5.408   6.098  18.794  0.00  0.00    +0.000 HD
BRANCH  11  13
ATOM     13  C   UNL     1       5.514   5.533  16.809  0.00  0.00    +0.000 C 
BRANCH  13  14
ATOM     14  C   UNL     1       6.902   6.189  16.927  0.00  0.00    +0.000 C 
BRANCH  14  15
ATOM     15  O   UNL     1       6.745   7.618  16.989  0.00  0.00    +0.000 OA
ATOM     16  H   UNL     1       5.795   7.808  17.084  0.00  0.00    +0.000 HD
ENDBRANCH  14  15
BRANCH  14  17
ATOM     17  C   UNL     1       7.648   5.668  18.162  0.00  0.00    +0.000 C 
BRANCH  17  18
ATOM     18  O   UNL     1       7.728   4.244  18.161  0.00  0.00    +0.000 OA
ATOM     19  H   UNL     1       7.657   3.938  17.239  0.00  0.00    +0.000 HD
ENDBRANCH  17  18
ENDBRANCH  14  17
ENDBRANCH  13  14
ENDBRANCH  11  13
ENDBRANCH   7  11
TORSDOF 6
ENDMDL
MODEL 7
REMARK VINA RESULT:      -6.0      3.576      5.484
REMARK  Name = 
REMARK  6 active torsions:
REMARK  status: ('A' for Active; 'I' for Inactive)
REMARK    1  A    between atoms: C_7  and  N_8
REMARK    2  A    between atoms: N_8  and  C_9
REMARK    3  A    between atoms: C_9  and  C_10
REMARK    4  A    between atoms: C_10  and  O_11
REMARK    5  A    between atoms: C_10  and  C_12
REMARK    6  A    between atoms: C_12  and  O_13
REMARK                            x       y       z     vdW  Elec       q    Type
REMARK                         _______ _______ _______ _____ _____    ______ ____
ROOT
ATOM      1  N   UNL     1       5.209   1.583  20.375  0.00  0.00    +0.000 N 
ATOM      2  C   UNL     1       4.390   2.495  19.744  0.00  0.00    +0.000 A 
ATOM      3  N   UNL     1       3.100   2.192  19.652  0.00  0.00    +0.000 NA
ATOM      4  C   UNL     1       2.339   3.130  19.077  0.00  0.00    +0.000 A 
ATOM      5 CL   UNL     1       0.684   2.700  18.921  0.00  0.00    +0.000 Cl
ATOM      6  C   UNL     1       2.792   4.335  18.611  0.00  0.00    +0.000 A 
ATOM      7  C   UNL     1       4.149   4.528  18.705  0.00  0.00    +0.000 A 
ATOM      8  N   UNL     1       4.954   3.604  19.255  0.00  0.00    +0.000 NA
ATOM      9  H   UNL     1       4.798   0.661  20.345  0.00  0.00    +0.000 HD
ATOM     10  H   UNL     1       6.163   1.683  20.061  0.00  0.00    +0.000 HD
ENDROOT
BRANCH   7  11
ATOM     11  N   UNL     1       4.673   5.727  18.200  0.00  0.00    +0.000 N 
ATOM     12  H   UNL     1       4.269   6.519  18.704  0.00  0.00    +0.000 HD
BRANCH  11  13
ATOM     13  C   UNL     1       6.134   5.817  18.158  0.00  0.00    +0.000 C 
BRANCH  13  14
ATOM     14  C   UNL     1       6.594   5.859  16.690  0.00  0.00    +0.000 C 
BRANCH  14  15
ATOM     15  O   UNL     1       7.639   6.838  16.550  0.00  0.00    +0.000 OA
ATOM     16  H   UNL     1       7.392   7.614  17.084  0.00  0.00    +0.000 HD
ENDBRANCH  14  15
BRANCH  14  17
ATOM     17  C   UNL     1       7.075   4.478  16.227  0.00  0.00    +0.000 C 
BRANCH  17  18
ATOM     18  O   UNL     1       6.024   3.515  16.282  0.00  0.00    +0.000 OA
ATOM     19  H   UNL     1       5.187   3.970  16.083  0.00  0.00    +0.000 HD
ENDBRANCH  17  18
ENDBRANCH  14  17
ENDBRANCH  13  14
ENDBRANCH  11  13
ENDBRANCH   7  11
TORSDOF 6
ENDMDL
MODEL 8
REMARK VINA RESULT:      -6.0      0.992      1.326
REMARK  Name = 
REMARK  6 active torsions:
REMARK  status: ('A' for Active; 'I' for Inactive)
REMARK    1  A    between atoms: C_7  and  N_8
REMARK    2  A    between atoms: N_8  and  C_9
REMARK    3  A    between atoms: C_9  and  C_10
REMARK    4  A    between atoms: C_10  and  O_11
REMARK    5  A    between atoms: C_10  and  C_12
REMARK    6  A    between atoms: C_12  and  O_13
REMARK                            x       y       z     vdW  Elec       q    Type
REMARK                         _______ _______ _______ _____ _____    ______ ____
ROOT
ATOM      1  N   UNL     1       6.645   5.139  14.617  0.00  0.00    +0.000 N 
ATOM      2  C   UNL     1       6.742   5.338  15.977  0.00  0.00    +0.000 A 
ATOM      3  N   UNL     1       7.372   6.433  16.387  0.00  0.00    +0.000 NA
ATOM      4  C   UNL     1       7.396   6.608  17.713  0.00  0.00    +0.000 A 
ATOM      5 CL   UNL     1       8.258   8.001  18.227  0.00  0.00    +0.000 Cl
ATOM      6  C   UNL     1       6.823   5.767  18.629  0.00  0.00    +0.000 A 
ATOM      7  C   UNL     1       6.243   4.638  18.105  0.00  0.00    +0.000 A 
ATOM      8  N   UNL     1       6.215   4.409  16.782  0.00  0.00    +0.000 NA
ATOM      9  H   UNL     1       7.377   5.640  14.133  0.00  0.00    +0.000 HD
ATOM     10  H   UNL     1       6.530   4.158  14.407  0.00  0.00    +0.000 HD
ENDROOT
BRANCH   7  11
ATOM     11  N   UNL     1       5.681   3.717  19.003  0.00  0.00    +0.000 N 
ATOM     12  H   UNL     1       6.319   3.568  19.787  0.00  0.00    +0.000 HD
BRANCH  11  13
ATOM     13  C   UNL     1       4.329   4.028  19.472  0.00  0.00    +0.000 C 
BRANCH  13  14
ATOM     14  C   UNL     1       3.507   2.729  19.537  0.00  0.00    +0.000 C 
BRANCH  14  15
ATOM     15  O   UNL     1       2.319   2.960  20.316  0.00  0.00    +0.000 OA
ATOM     16  H   UNL     1       2.523   3.652  20.971  0.00  0.00    +0.000 HD
ENDBRANCH  14  15
BRANCH  14  17
ATOM     17  C   UNL     1       3.149   2.238  18.129  0.00  0.00    +0.000 C 
BRANCH  17  18
ATOM     18  O   UNL     1       4.292   1.722  17.450  0.00  0.00    +0.000 OA
ATOM     19  H   UNL     1       4.009   1.424  16.567  0.00  0.00    +0.000 HD
ENDBRANCH  17  18
ENDBRANCH  14  17
ENDBRANCH  13  14
ENDBRANCH  11  13
ENDBRANCH   7  11
TORSDOF 6
ENDMDL
MODEL 9
REMARK VINA RESULT:      -5.9      1.341      1.474
REMARK  Name = 
REMARK  6 active torsions:
REMARK  status: ('A' for Active; 'I' for Inactive)
REMARK    1  A    between atoms: C_7  and  N_8
REMARK    2  A    between atoms: N_8  and  C_9
REMARK    3  A    between atoms: C_9  and  C_10
REMARK    4  A    between atoms: C_10  and  O_11
REMARK    5  A    between atoms: C_10  and  C_12
REMARK    6  A    between atoms: C_12  and  O_13
REMARK                            x       y       z     vdW  Elec       q    Type
REMARK                         _______ _______ _______ _____ _____    ______ ____
ROOT
ATOM      1  N   UNL     1       6.914   5.101  14.478  0.00  0.00    +0.000 N 
ATOM      2  C   UNL     1       6.888   5.311  15.840  0.00  0.00    +0.000 A 
ATOM      3  N   UNL     1       7.475   6.411  16.296  0.00  0.00    +0.000 NA
ATOM      4  C   UNL     1       7.380   6.596  17.618  0.00  0.00    +0.000 A 
ATOM      5 CL   UNL     1       8.188   7.996  18.197  0.00  0.00    +0.000 Cl
ATOM      6  C   UNL     1       6.730   5.760  18.485  0.00  0.00    +0.000 A 
ATOM      7  C   UNL     1       6.202   4.624  17.920  0.00  0.00    +0.000 A 
ATOM      8  N   UNL     1       6.294   4.386  16.601  0.00  0.00    +0.000 NA
ATOM      9  H   UNL     1       7.684   5.602  14.058  0.00  0.00    +0.000 HD
ATOM     10  H   UNL     1       6.821   4.119  14.266  0.00  0.00    +0.000 HD
ENDROOT
BRANCH   7  11
ATOM     11  N   UNL     1       5.565   3.709  18.771  0.00  0.00    +0.000 N 
ATOM     12  H   UNL     1       5.595   4.053  19.732  0.00  0.00    +0.000 HD
BRANCH  11  13
ATOM     13  C   UNL     1       4.204   3.324  18.390  0.00  0.00    +0.000 C 
BRANCH  13  14
ATOM     14  C   UNL     1       3.437   2.875  19.646  0.00  0.00    +0.000 C 
BRANCH  14  15
ATOM     15  O   UNL     1       4.354   2.245  20.559  0.00  0.00    +0.000 OA
ATOM     16  H   UNL     1       3.856   1.581  21.069  0.00  0.00    +0.000 HD
ENDBRANCH  14  15
BRANCH  14  17
ATOM     17  C   UNL     1       2.734   4.064  20.312  0.00  0.00    +0.000 C 
BRANCH  17  18
ATOM     18  O   UNL     1       3.491   5.264  20.169  0.00  0.00    +0.000 OA
ATOM     19  H   UNL     1       4.348   5.034  19.769  0.00  0.00    +0.000 HD
ENDBRANCH  17  18
ENDBRANCH  14  17
ENDBRANCH  13  14
ENDBRANCH  11  13
ENDBRANCH   7  11
TORSDOF 6
ENDMDL
