MODEL 1
REMARK VINA RESULT:      -7.4      0.000      0.000
REMARK  Name = 
REMARK  5 active torsions:
REMARK  status: ('A' for Active; 'I' for Inactive)
REMARK    1  A    between atoms: C_1  and  S_2
REMARK    2  A    between atoms: S_2  and  N_5
REMARK    3  A    between atoms: N_5  and  C_6
REMARK    4  A    between atoms: N_5  and  C_16
REMARK    5  A    between atoms: C_6  and  C_7
REMARK                            x       y       z     vdW  Elec       q    Type
REMARK                         _______ _______ _______ _____ _____    ______ ____
ROOT
ATOM      1  N   UNL     1       4.030   5.132  18.419  0.00  0.00    +0.000 N 
ENDROOT
BRANCH   1   2
ATOM      2  C   UNL     1       5.372   5.701  18.418  0.00  0.00    +0.000 A 
ATOM      3  C   UNL     1       6.271   5.354  19.443  0.00  0.00    +0.000 A 
ATOM      4  C   UNL     1       7.595   5.785  19.404  0.00  0.00    +0.000 A 
ATOM      5  C   UNL     1       8.054   6.523  18.319  0.00  0.00    +0.000 A 
ATOM      6  C   UNL     1       7.182   6.852  17.277  0.00  0.00    +0.000 A 
ATOM      7  C   UNL     1       5.844   6.447  17.326  0.00  0.00    +0.000 A 
ATOM      8 CL   UNL     1       4.793   6.935  16.045  0.00  0.00    +0.000 Cl
ENDBRANCH   1   2
BRANCH   1  10
ATOM      9  C   UNL     1       2.429   3.139  17.350  0.00  0.00    +0.000 C 
ATOM     10  S   UNL     1       4.084   3.479  17.900  0.00  0.00    +0.000 S 
ATOM     11  O   UNL     1       4.359   2.671  19.067  0.00  0.00    +0.000 OA
ATOM     12  O   UNL     1       4.940   3.400  16.735  0.00  0.00    +0.000 OA
ENDBRANCH   1  10
BRANCH   1  13
ATOM     13  C   UNL     1       3.260   5.377  19.678  0.00  0.00    +0.000 C 
BRANCH  13  14
ATOM     14  C   UNL     1       2.493   6.649  19.573  0.00  0.00    +0.000 A 
ATOM     15  N   UNL     1       2.358   7.394  18.494  0.00  0.00    +0.000 NA
ATOM     16  C   UNL     1       1.735   8.541  18.916  0.00  0.00    +0.000 A 
ATOM     17  C   UNL     1       1.430   9.706  18.201  0.00  0.00    +0.000 A 
ATOM     18  C   UNL     1       0.908  10.800  18.902  0.00  0.00    +0.000 A 
ATOM     19  C   UNL     1       0.657  10.718  20.275  0.00  0.00    +0.000 A 
ATOM     20  C   UNL     1       0.894   9.538  20.990  0.00  0.00    +0.000 A 
ATOM     21  C   UNL     1       1.445   8.475  20.274  0.00  0.00    +0.000 A 
ATOM     22  N   UNL     1       1.846   7.218  20.645  0.00  0.00    +0.000 N 
ATOM     23  H   UNL     1       1.793   6.823  21.574  0.00  0.00    +0.000 HD
ENDBRANCH  13  14
ENDBRANCH   1  13
TORSDOF 4
ENDMDL
MODEL 2
REMARK VINA RESULT:      -7.2      1.812      2.183
REMARK  Name = 
REMARK  5 active torsions:
REMARK  status: ('A' for Active; 'I' for Inactive)
REMARK    1  A    between atoms: C_1  and  S_2
REMARK    2  A    between atoms: S_2  and  N_5
REMARK    3  A    between atoms: N_5  and  C_6
REMARK    4  A    between atoms: N_5  and  C_16
REMARK    5  A    between atoms: C_6  and  C_7
REMARK                            x       y       z     vdW  Elec       q    Type
REMARK                         _______ _______ _______ _____ _____    ______ ____
ROOT
ATOM      1  N   UNL     1       3.988   4.252  18.614  0.00  0.00    +0.000 N 
ENDROOT
BRANCH   1   2
ATOM      2  C   UNL     1       5.028   4.301  17.594  0.00  0.00    +0.000 A 
ATOM      3  C   UNL     1       4.705   3.989  16.261  0.00  0.00    +0.000 A 
ATOM      4  C   UNL     1       5.647   4.142  15.247  0.00  0.00    +0.000 A 
ATOM      5  C   UNL     1       6.906   4.656  15.538  0.00  0.00    +0.000 A 
ATOM      6  C   UNL     1       7.234   5.000  16.854  0.00  0.00    +0.000 A 
ATOM      7  C   UNL     1       6.301   4.819  17.880  0.00  0.00    +0.000 A 
ATOM      8 CL   UNL     1       6.780   5.197  19.497  0.00  0.00    +0.000 Cl
ENDBRANCH   1   2
BRANCH   1  10
ATOM      9  C   UNL     1       2.398   2.713  20.281  0.00  0.00    +0.000 C 
ATOM     10  S   UNL     1       3.811   2.633  19.207  0.00  0.00    +0.000 S 
ATOM     11  O   UNL     1       4.981   2.335  20.002  0.00  0.00    +0.000 OA
ATOM     12  O   UNL     1       3.445   1.783  18.093  0.00  0.00    +0.000 OA
ENDBRANCH   1  10
BRANCH   1  13
ATOM     13  C   UNL     1       4.116   5.304  19.672  0.00  0.00    +0.000 C 
BRANCH  13  14
ATOM     14  C   UNL     1       3.138   6.400  19.427  0.00  0.00    +0.000 A 
ATOM     15  N   UNL     1       2.966   7.056  18.297  0.00  0.00    +0.000 NA
ATOM     16  C   UNL     1       2.105   8.081  18.595  0.00  0.00    +0.000 A 
ATOM     17  C   UNL     1       1.654   9.134  17.788  0.00  0.00    +0.000 A 
ATOM     18  C   UNL     1       0.876  10.137  18.375  0.00  0.00    +0.000 A 
ATOM     19  C   UNL     1       0.520  10.071  19.726  0.00  0.00    +0.000 A 
ATOM     20  C   UNL     1       0.906   8.991  20.529  0.00  0.00    +0.000 A 
ATOM     21  C   UNL     1       1.708   8.021  19.927  0.00  0.00    +0.000 A 
ATOM     22  N   UNL     1       2.302   6.882  20.405  0.00  0.00    +0.000 N 
ATOM     23  H   UNL     1       2.238   6.526  21.350  0.00  0.00    +0.000 HD
ENDBRANCH  13  14
ENDBRANCH   1  13
TORSDOF 4
ENDMDL
MODEL 3
REMARK VINA RESULT:      -7.2      0.789      1.565
REMARK  Name = 
REMARK  5 active torsions:
REMARK  status: ('A' for Active; 'I' for Inactive)
REMARK    1  A    between atoms: C_1  and  S_2
REMARK    2  A    between atoms: S_2  and  N_5
REMARK    3  A    between atoms: N_5  and  C_6
REMARK    4  A    between atoms: N_5  and  C_16
REMARK    5  A    between atoms: C_6  and  C_7
REMARK                            x       y       z     vdW  Elec       q    Type
REMARK                         _______ _______ _______ _____ _____    ______ ____
ROOT
ATOM      1  N   UNL     1       3.746   5.179  18.152  0.00  0.00    +0.000 N 
ENDROOT
BRANCH   1   2
ATOM      2  C   UNL     1       5.121   5.653  18.261  0.00  0.00    +0.000 A 
ATOM      3  C   UNL     1       5.904   5.258  19.360  0.00  0.00    +0.000 A 
ATOM      4  C   UNL     1       7.253   5.595  19.430  0.00  0.00    +0.000 A 
ATOM      5  C   UNL     1       7.853   6.285  18.382  0.00  0.00    +0.000 A 
ATOM      6  C   UNL     1       7.095   6.660  17.268  0.00  0.00    +0.000 A 
ATOM      7  C   UNL     1       5.733   6.350  17.207  0.00  0.00    +0.000 A 
ATOM      8 CL   UNL     1       4.830   6.894  15.839  0.00  0.00    +0.000 Cl
ENDBRANCH   1   2
BRANCH   1  10
ATOM      9  C   UNL     1       3.859   2.504  18.865  0.00  0.00    +0.000 C 
ATOM     10  S   UNL     1       3.718   3.588  17.465  0.00  0.00    +0.000 S 
ATOM     11  O   UNL     1       4.904   3.450  16.651  0.00  0.00    +0.000 OA
ATOM     12  O   UNL     1       2.406   3.368  16.893  0.00  0.00    +0.000 OA
ENDBRANCH   1  10
BRANCH   1  13
ATOM     13  C   UNL     1       2.939   5.344  19.402  0.00  0.00    +0.000 C 
BRANCH  13  14
ATOM     14  C   UNL     1       2.421   6.737  19.499  0.00  0.00    +0.000 A 
ATOM     15  N   UNL     1       1.867   7.293  20.557  0.00  0.00    +0.000 NA
ATOM     16  C   UNL     1       1.384   8.503  20.125  0.00  0.00    +0.000 A 
ATOM     17  C   UNL     1       0.629   9.461  20.813  0.00  0.00    +0.000 A 
ATOM     18  C   UNL     1       0.140  10.561  20.100  0.00  0.00    +0.000 A 
ATOM     19  C   UNL     1       0.433  10.723  18.743  0.00  0.00    +0.000 A 
ATOM     20  C   UNL     1       1.243   9.810  18.057  0.00  0.00    +0.000 A 
ATOM     21  C   UNL     1       1.690   8.706  18.783  0.00  0.00    +0.000 A 
ATOM     22  N   UNL     1       2.438   7.611  18.437  0.00  0.00    +0.000 N 
ATOM     23  H   UNL     1       2.828   7.417  17.525  0.00  0.00    +0.000 HD
ENDBRANCH  13  14
ENDBRANCH   1  13
TORSDOF 4
ENDMDL
MODEL 4
REMARK VINA RESULT:      -7.1      2.147      3.984
REMARK  Name = 
REMARK  5 active torsions:
REMARK  status: ('A' for Active; 'I' for Inactive)
REMARK    1  A    between atoms: C_1  and  S_2
REMARK    2  A    between atoms: S_2  and  N_5
REMARK    3  A    between atoms: N_5  and  C_6
REMARK    4  A    between atoms: N_5  and  C_16
REMARK    5  A    between atoms: C_6  and  C_7
REMARK                            x       y       z     vdW  Elec       q    Type
REMARK                         _______ _______ _______ _____ _____    ______ ____
ROOT
ATOM      1  N   UNL     1       3.895   5.317  18.909  0.00  0.00    +0.000 N 
ENDROOT
BRANCH   1   2
ATOM      2  C   UNL     1       2.930   4.227  18.827  0.00  0.00    +0.000 A 
ATOM      3  C   UNL     1       2.827   3.481  17.640  0.00  0.00    +0.000 A 
ATOM      4  C   UNL     1       2.002   2.361  17.573  0.00  0.00    +0.000 A 
ATOM      5  C   UNL     1       1.309   1.938  18.702  0.00  0.00    +0.000 A 
ATOM      6  C   UNL     1       1.424   2.651  19.900  0.00  0.00    +0.000 A 
ATOM      7  C   UNL     1       2.226   3.794  19.963  0.00  0.00    +0.000 A 
ATOM      8 CL   UNL     1       2.281   4.675  21.449  0.00  0.00    +0.000 Cl
ENDBRANCH   1   2
BRANCH   1  10
ATOM      9  C   UNL     1       6.038   4.635  17.291  0.00  0.00    +0.000 C 
ATOM     10  S   UNL     1       5.505   4.681  18.985  0.00  0.00    +0.000 S 
ATOM     11  O   UNL     1       5.410   3.325  19.478  0.00  0.00    +0.000 OA
ATOM     12  O   UNL     1       6.341   5.650  19.663  0.00  0.00    +0.000 OA
ENDBRANCH   1  10
BRANCH   1  13
ATOM     13  C   UNL     1       3.687   6.398  17.894  0.00  0.00    +0.000 C 
BRANCH  13  14
ATOM     14  C   UNL     1       2.807   7.462  18.450  0.00  0.00    +0.000 A 
ATOM     15  N   UNL     1       2.401   7.567  19.699  0.00  0.00    +0.000 NA
ATOM     16  C   UNL     1       1.473   8.579  19.699  0.00  0.00    +0.000 A 
ATOM     17  C   UNL     1       0.663   9.048  20.741  0.00  0.00    +0.000 A 
ATOM     18  C   UNL     1      -0.309  10.011  20.447  0.00  0.00    +0.000 A 
ATOM     19  C   UNL     1      -0.440  10.525  19.153  0.00  0.00    +0.000 A 
ATOM     20  C   UNL     1       0.407  10.115  18.116  0.00  0.00    +0.000 A 
ATOM     21  C   UNL     1       1.345   9.131  18.429  0.00  0.00    +0.000 A 
ATOM     22  N   UNL     1       2.280   8.469  17.676  0.00  0.00    +0.000 N 
ATOM     23  H   UNL     1       2.461   8.608  16.692  0.00  0.00    +0.000 HD
ENDBRANCH  13  14
ENDBRANCH   1  13
TORSDOF 4
ENDMDL
MODEL 5
REMARK VINA RESULT:      -7.1      2.147      3.826
REMARK  Name = 
REMARK  5 active torsions:
REMARK  status: ('A' for Active; 'I' for Inactive)
REMARK    1  A    between atoms: C_1  and  S_2
REMARK    2  A    between atoms: S_2  and  N_5
REMARK    3  A    between atoms: N_5  and  C_6
REMARK    4  A    between atoms: N_5  and  C_16
REMARK    5  A    between atoms: C_6  and  C_7
REMARK                            x       y       z     vdW  Elec       q    Type
REMARK                         _______ _______ _______ _____ _____    ______ ____
ROOT
ATOM      1  N   UNL     1       3.863   5.362  19.102  0.00  0.00    +0.000 N 
ENDROOT
BRANCH   1   2
ATOM      2  C   UNL     1       2.858   4.316  18.958  0.00  0.00    +0.000 A 
ATOM      3  C   UNL     1       2.626   3.747  17.693  0.00  0.00    +0.000 A 
ATOM      4  C   UNL     1       1.761   2.666  17.547  0.00  0.00    +0.000 A 
ATOM      5  C   UNL     1       1.155   2.103  18.665  0.00  0.00    +0.000 A 
ATOM      6  C   UNL     1       1.398   2.637  19.934  0.00  0.00    +0.000 A 
ATOM      7  C   UNL     1       2.241   3.742  20.083  0.00  0.00    +0.000 A 
ATOM      8 CL   UNL     1       2.455   4.403  21.665  0.00  0.00    +0.000 Cl
ENDBRANCH   1   2
BRANCH   1  10
ATOM      9  C   UNL     1       5.873   4.686  17.320  0.00  0.00    +0.000 C 
ATOM     10  S   UNL     1       5.452   4.673  19.046  0.00  0.00    +0.000 S 
ATOM     11  O   UNL     1       5.341   3.300  19.485  0.00  0.00    +0.000 OA
ATOM     12  O   UNL     1       6.362   5.583  19.708  0.00  0.00    +0.000 OA
ENDBRANCH   1  10
BRANCH   1  13
ATOM     13  C   UNL     1       3.651   6.543  18.207  0.00  0.00    +0.000 C 
BRANCH  13  14
ATOM     14  C   UNL     1       2.619   7.447  18.785  0.00  0.00    +0.000 A 
ATOM     15  N   UNL     1       1.976   8.406  18.150  0.00  0.00    +0.000 NA
ATOM     16  C   UNL     1       1.274   9.080  19.117  0.00  0.00    +0.000 A 
ATOM     17  C   UNL     1       0.494  10.238  19.011  0.00  0.00    +0.000 A 
ATOM     18  C   UNL     1      -0.014  10.809  20.184  0.00  0.00    +0.000 A 
ATOM     19  C   UNL     1       0.217  10.215  21.428  0.00  0.00    +0.000 A 
ATOM     20  C   UNL     1       0.937   9.020  21.543  0.00  0.00    +0.000 A 
ATOM     21  C   UNL     1       1.459   8.490  20.363  0.00  0.00    +0.000 A 
ATOM     22  N   UNL     1       2.238   7.392  20.105  0.00  0.00    +0.000 N 
ATOM     23  H   UNL     1       2.580   6.728  20.786  0.00  0.00    +0.000 HD
ENDBRANCH  13  14
ENDBRANCH   1  13
TORSDOF 4
ENDMDL
MODEL 6
REMARK VINA RESULT:      -6.9      1.880      3.602
REMARK  Name = 
REMARK  5 active torsions:
REMARK  status: ('A' for Active; 'I' for Inactive)
REMARK    1  A    between atoms: C_1  and  S_2
REMARK    2  A    between atoms: S_2  and  N_5
REMARK    3  A    between atoms: N_5  and  C_6
REMARK    4  A    between atoms: N_5  and  C_16
REMARK    5  A    between atoms: C_6  and  C_7
REMARK                            x       y       z     vdW  Elec       q    Type
REMARK                         _______ _______ _______ _____ _____    ______ ____
ROOT
ATOM      1  N   UNL     1       3.943   5.346  19.287  0.00  0.00    +0.000 N 
ENDROOT
BRANCH   1   2
ATOM      2  C   UNL     1       2.965   4.325  19.643  0.00  0.00    +0.000 A 
ATOM      3  C   UNL     1       2.570   4.183  20.985  0.00  0.00    +0.000 A 
ATOM      4  C   UNL     1       1.552   3.300  21.337  0.00  0.00    +0.000 A 
ATOM      5  C   UNL     1       0.878   2.586  20.352  0.00  0.00    +0.000 A 
ATOM      6  C   UNL     1       1.238   2.739  19.009  0.00  0.00    +0.000 A 
ATOM      7  C   UNL     1       2.280   3.600  18.654  0.00  0.00    +0.000 A 
ATOM      8 CL   UNL     1       2.728   3.702  16.988  0.00  0.00    +0.000 Cl
ENDBRANCH   1   2
BRANCH   1  10
ATOM      9  C   UNL     1       5.858   4.887  17.338  0.00  0.00    +0.000 C 
ATOM     10  S   UNL     1       5.501   4.622  19.058  0.00  0.00    +0.000 S 
ATOM     11  O   UNL     1       5.354   3.202  19.287  0.00  0.00    +0.000 OA
ATOM     12  O   UNL     1       6.470   5.390  19.813  0.00  0.00    +0.000 OA
ENDBRANCH   1  10
BRANCH   1  13
ATOM     13  C   UNL     1       3.502   6.263  18.190  0.00  0.00    +0.000 C 
BRANCH  13  14
ATOM     14  C   UNL     1       2.572   7.295  18.725  0.00  0.00    +0.000 A 
ATOM     15  N   UNL     1       2.038   8.292  18.049  0.00  0.00    +0.000 NA
ATOM     16  C   UNL     1       1.411   9.075  18.985  0.00  0.00    +0.000 A 
ATOM     17  C   UNL     1       0.761  10.306  18.829  0.00  0.00    +0.000 A 
ATOM     18  C   UNL     1       0.315  10.974  19.976  0.00  0.00    +0.000 A 
ATOM     19  C   UNL     1       0.477  10.407  21.243  0.00  0.00    +0.000 A 
ATOM     20  C   UNL     1       1.064   9.147  21.409  0.00  0.00    +0.000 A 
ATOM     21  C   UNL     1       1.528   8.518  20.254  0.00  0.00    +0.000 A 
ATOM     22  N   UNL     1       2.185   7.333  20.043  0.00  0.00    +0.000 N 
ATOM     23  H   UNL     1       2.451   6.664  20.752  0.00  0.00    +0.000 HD
ENDBRANCH  13  14
ENDBRANCH   1  13
TORSDOF 4
ENDMDL
MODEL 7
REMARK VINA RESULT:      -6.9      1.980      3.356
REMARK  Name = 
REMARK  5 active torsions:
REMARK  status: ('A' for Active; 'I' for Inactive)
REMARK    1  A    between atoms: C_1  and  S_2
REMARK    2  A    between atoms: S_2  and  N_5
REMARK    3  A    between atoms: N_5  and  C_6
REMARK    4  A    between atoms: N_5  and  C_16
REMARK    5  A    between atoms: C_6  and  C_7
REMARK                            x       y       z     vdW  Elec       q    Type
REMARK                         _______ _______ _______ _____ _____    ______ ____
ROOT
ATOM      1  N   UNL     1       5.250   5.521  18.572  0.00  0.00    +0.000 N 
ENDROOT
BRANCH   1   2
ATOM      2  C   UNL     1       4.699   4.171  18.554  0.00  0.00    +0.000 A 
ATOM      3  C   UNL     1       4.326   3.560  19.765  0.00  0.00    +0.000 A 
ATOM      4  C   UNL     1       3.687   2.322  19.769  0.00  0.00    +0.000 A 
ATOM      5  C   UNL     1       3.364   1.702  18.567  0.00  0.00    +0.000 A 
ATOM      6  C   UNL     1       3.700   2.310  17.354  0.00  0.00    +0.000 A 
ATOM      7  C   UNL     1       4.370   3.538  17.345  0.00  0.00    +0.000 A 
ATOM      8 CL   UNL     1       4.820   4.214  15.820  0.00  0.00    +0.000 Cl
ENDBRANCH   1   2
BRANCH   1  10
ATOM      9  C   UNL     1       7.522   6.960  17.905  0.00  0.00    +0.000 C 
ATOM     10  S   UNL     1       6.979   5.455  18.678  0.00  0.00    +0.000 S 
ATOM     11  O   UNL     1       7.417   4.337  17.872  0.00  0.00    +0.000 OA
ATOM     12  O   UNL     1       7.349   5.541  20.075  0.00  0.00    +0.000 OA
ENDBRANCH   1  10
BRANCH   1  13
ATOM     13  C   UNL     1       4.714   6.417  17.501  0.00  0.00    +0.000 C 
BRANCH  13  14
ATOM     14  C   UNL     1       3.521   7.156  17.999  0.00  0.00    +0.000 A 
ATOM     15  N   UNL     1       2.877   8.117  17.368  0.00  0.00    +0.000 NA
ATOM     16  C   UNL     1       1.978   8.614  18.278  0.00  0.00    +0.000 A 
ATOM     17  C   UNL     1       1.103   9.702  18.166  0.00  0.00    +0.000 A 
ATOM     18  C   UNL     1       0.377  10.092  19.297  0.00  0.00    +0.000 A 
ATOM     19  C   UNL     1       0.490   9.387  20.499  0.00  0.00    +0.000 A 
ATOM     20  C   UNL     1       1.308   8.256  20.607  0.00  0.00    +0.000 A 
ATOM     21  C   UNL     1       2.045   7.909  19.475  0.00  0.00    +0.000 A 
ATOM     22  N   UNL     1       2.964   6.921  19.234  0.00  0.00    +0.000 N 
ATOM     23  H   UNL     1       3.273   6.219  19.892  0.00  0.00    +0.000 HD
ENDBRANCH  13  14
ENDBRANCH   1  13
TORSDOF 4
ENDMDL
MODEL 8
REMARK VINA RESULT:      -6.9      1.813      3.870
REMARK  Name = 
REMARK  5 active torsions:
REMARK  status: ('A' for Active; 'I' for Inactive)
REMARK    1  A    between atoms: C_1  and  S_2
REMARK    2  A    between atoms: S_2  and  N_5
REMARK    3  A    between atoms: N_5  and  C_6
REMARK    4  A    between atoms: N_5  and  C_16
REMARK    5  A    between atoms: C_6  and  C_7
REMARK                            x       y       z     vdW  Elec       q    Type
REMARK                         _______ _______ _______ _____ _____    ______ ____
ROOT
ATOM      1  N   UNL     1       3.893   5.260  19.046  0.00  0.00    +0.000 N 
ENDROOT
BRANCH   1   2
ATOM      2  C   UNL     1       2.973   4.275  19.602  0.00  0.00    +0.000 A 
ATOM      3  C   UNL     1       2.730   4.258  20.987  0.00  0.00    +0.000 A 
ATOM      4  C   UNL     1       1.768   3.409  21.530  0.00  0.00    +0.000 A 
ATOM      5  C   UNL     1       1.000   2.604  20.696  0.00  0.00    +0.000 A 
ATOM      6  C   UNL     1       1.208   2.631  19.313  0.00  0.00    +0.000 A 
ATOM      7  C   UNL     1       2.193   3.458  18.766  0.00  0.00    +0.000 A 
ATOM      8 CL   UNL     1       2.454   3.404  17.059  0.00  0.00    +0.000 Cl
ENDBRANCH   1   2
BRANCH   1  10
ATOM      9  C   UNL     1       6.632   5.592  19.294  0.00  0.00    +0.000 C 
ATOM     10  S   UNL     1       5.395   4.503  18.630  0.00  0.00    +0.000 S 
ATOM     11  O   UNL     1       5.496   4.512  17.188  0.00  0.00    +0.000 OA
ATOM     12  O   UNL     1       5.491   3.259  19.364  0.00  0.00    +0.000 OA
ENDBRANCH   1  10
BRANCH   1  13
ATOM     13  C   UNL     1       3.298   6.120  17.975  0.00  0.00    +0.000 C 
BRANCH  13  14
ATOM     14  C   UNL     1       2.609   7.293  18.582  0.00  0.00    +0.000 A 
ATOM     15  N   UNL     1       2.208   7.403  19.832  0.00  0.00    +0.000 NA
ATOM     16  C   UNL     1       1.472   8.561  19.880  0.00  0.00    +0.000 A 
ATOM     17  C   UNL     1       0.740   9.111  20.940  0.00  0.00    +0.000 A 
ATOM     18  C   UNL     1      -0.042  10.244  20.691  0.00  0.00    +0.000 A 
ATOM     19  C   UNL     1      -0.061  10.839  19.426  0.00  0.00    +0.000 A 
ATOM     20  C   UNL     1       0.718  10.341  18.375  0.00  0.00    +0.000 A 
ATOM     21  C   UNL     1       1.463   9.192  18.641  0.00  0.00    +0.000 A 
ATOM     22  N   UNL     1       2.279   8.415  17.860  0.00  0.00    +0.000 N 
ATOM     23  H   UNL     1       2.498   8.571  16.885  0.00  0.00    +0.000 HD
ENDBRANCH  13  14
ENDBRANCH   1  13
TORSDOF 4
ENDMDL
MODEL 9
REMARK VINA RESULT:      -6.9      0.847      1.019
REMARK  Name = 
REMARK  5 active torsions:
REMARK  status: ('A' for Active; 'I' for Inactive)
REMARK    1  A    between atoms: C_1  and  S_2
REMARK    2  A    between atoms: S_2  and  N_5
REMARK    3  A    between atoms: N_5  and  C_6
REMARK    4  A    between atoms: N_5  and  C_16
REMARK    5  A    between atoms: C_6  and  C_7
REMARK                            x       y       z     vdW  Elec       q    Type
REMARK                         _______ _______ _______ _____ _____    ______ ____
ROOT
ATOM      1  N   UNL     1       3.810   5.229  18.349  0.00  0.00    +0.000 N 
ENDROOT
BRANCH   1   2
ATOM      2  C   UNL     1       5.179   5.729  18.380  0.00  0.00    +0.000 A 
ATOM      3  C   UNL     1       6.057   5.280  19.382  0.00  0.00    +0.000 A 
ATOM      4  C   UNL     1       7.401   5.646  19.367  0.00  0.00    +0.000 A 
ATOM      5  C   UNL     1       7.898   6.422  18.325  0.00  0.00    +0.000 A 
ATOM      6  C   UNL     1       7.045   6.853  17.305  0.00  0.00    +0.000 A 
ATOM      7  C   UNL     1       5.689   6.513  17.332  0.00  0.00    +0.000 A 
ATOM      8 CL   UNL     1       4.665   7.125  16.082  0.00  0.00    +0.000 Cl
ENDBRANCH   1   2
BRANCH   1  10
ATOM      9  C   UNL     1       5.055   3.650  16.443  0.00  0.00    +0.000 C 
ATOM     10  S   UNL     1       3.775   3.632  17.675  0.00  0.00    +0.000 S 
ATOM     11  O   UNL     1       2.499   3.471  17.015  0.00  0.00    +0.000 OA
ATOM     12  O   UNL     1       4.192   2.700  18.702  0.00  0.00    +0.000 OA
ENDBRANCH   1  10
BRANCH   1  13
ATOM     13  C   UNL     1       3.068   5.388  19.639  0.00  0.00    +0.000 C 
BRANCH  13  14
ATOM     14  C   UNL     1       2.347   6.691  19.660  0.00  0.00    +0.000 A 
ATOM     15  N   UNL     1       2.212   7.525  18.649  0.00  0.00    +0.000 NA
ATOM     16  C   UNL     1       1.644   8.656  19.180  0.00  0.00    +0.000 A 
ATOM     17  C   UNL     1       1.364   9.886  18.571  0.00  0.00    +0.000 A 
ATOM     18  C   UNL     1       0.901  10.936  19.373  0.00  0.00    +0.000 A 
ATOM     19  C   UNL     1       0.684  10.750  20.742  0.00  0.00    +0.000 A 
ATOM     20  C   UNL     1       0.894   9.508  21.352  0.00  0.00    +0.000 A 
ATOM     21  C   UNL     1       1.386   8.488  20.537  0.00  0.00    +0.000 A 
ATOM     22  N   UNL     1       1.750   7.192  20.792  0.00  0.00    +0.000 N 
ATOM     23  H   UNL     1       1.707   6.724  21.687  0.00  0.00    +0.000 HD
ENDBRANCH  13  14
ENDBRANCH   1  13
TORSDOF 4
ENDMDL
