MODEL 1
REMARK VINA RESULT:      -9.0      0.000      0.000
REMARK  Name = 
REMARK  5 active torsions:
REMARK  status: ('A' for Active; 'I' for Inactive)
REMARK    1  A    between atoms: C_1  and  N_2
REMARK    2  A    between atoms: C_3  and  C_5
REMARK    3  A    between atoms: C_5  and  C_6
REMARK    4  A    between atoms: C_6  and  C_7
REMARK    5  A    between atoms: C_18  and  C_19
REMARK                            x       y       z     vdW  Elec       q    Type
REMARK                         _______ _______ _______ _____ _____    ______ ____
ROOT
ATOM      1  C   UNL     1       0.323  12.642  21.403  0.00  0.00    +0.000 C 
ATOM      2  N   UNL     1      -0.302  11.717  20.456  0.00  0.00    +0.000 N 
ATOM      3  C   UNL     1      -1.558  11.952  19.873  0.00  0.00    +0.000 C 
ATOM      4  O   UNL     1      -2.121  11.155  19.123  0.00  0.00    +0.000 OA
ATOM      5  C   UNL     1       0.325  10.411  20.347  0.00  0.00    +0.000 A 
ATOM      6  C   UNL     1       0.520   9.713  21.547  0.00  0.00    +0.000 A 
ATOM      7  C   UNL     1       1.191   8.492  21.571  0.00  0.00    +0.000 A 
ATOM      8  C   UNL     1       1.685   8.051  20.348  0.00  0.00    +0.000 A 
ATOM      9  N   UNL     1       2.404   6.933  20.025  0.00  0.00    +0.000 N 
ATOM     10  C   UNL     1       2.763   6.916  18.691  0.00  0.00    +0.000 A 
ATOM     11  C   UNL     1       2.172   8.037  18.128  0.00  0.00    +0.000 A 
ATOM     12  C   UNL     1       1.490   8.773  19.174  0.00  0.00    +0.000 A 
ATOM     13  N   UNL     1       0.790   9.958  19.147  0.00  0.00    +0.000 NA
ATOM     14  H   UNL     1       2.688   6.196  20.661  0.00  0.00    +0.000 HD
ENDROOT
BRANCH  10  15
ATOM     15  C   UNL     1       3.621   5.780  18.187  0.00  0.00    +0.000 A 
ATOM     16  N   UNL     1       3.580   4.667  18.942  0.00  0.00    +0.000 NA
ATOM     17  N   UNL     1       4.377   3.796  18.315  0.00  0.00    +0.000 N 
ATOM     18  C   UNL     1       4.915   4.257  17.150  0.00  0.00    +0.000 A 
ATOM     19  C   UNL     1       5.727   3.607  16.215  0.00  0.00    +0.000 A 
ATOM     20  C   UNL     1       6.190   4.356  15.137  0.00  0.00    +0.000 A 
ATOM     21  C   UNL     1       5.858   5.703  15.028  0.00  0.00    +0.000 A 
ATOM     22  C   UNL     1       5.011   6.336  15.969  0.00  0.00    +0.000 A 
ATOM     23  C   UNL     1       4.498   5.594  17.057  0.00  0.00    +0.000 A 
ATOM     24  H   UNL     1       4.532   2.888  18.735  0.00  0.00    +0.000 HD
ENDBRANCH  10  15
BRANCH   3  25
ATOM     25  C   UNL     1      -2.264  13.285  20.238  0.00  0.00    +0.000 C 
BRANCH  25  26
ATOM     26  C   UNL     1      -3.787  13.149  20.409  0.00  0.00    +0.000 C 
BRANCH  26  27
ATOM     27  C   UNL     1      -4.229  12.936  21.850  0.00  0.00    +0.000 A 
ATOM     28  C   UNL     1      -3.292  12.628  22.847  0.00  0.00    +0.000 A 
ATOM     29  C   UNL     1      -3.694  12.452  24.176  0.00  0.00    +0.000 A 
ATOM     30  C   UNL     1      -5.031  12.576  24.533  0.00  0.00    +0.000 A 
ATOM     31  C   UNL     1      -5.972  12.889  23.556  0.00  0.00    +0.000 A 
ATOM     32  C   UNL     1      -5.575  13.071  22.225  0.00  0.00    +0.000 A 
ENDBRANCH  26  27
ENDBRANCH  25  26
ENDBRANCH   3  25
TORSDOF 4
ENDMDL
MODEL 2
REMARK VINA RESULT:      -8.9      2.805     11.412
REMARK  Name = 
REMARK  5 active torsions:
REMARK  status: ('A' for Active; 'I' for Inactive)
REMARK    1  A    between atoms: C_1  and  N_2
REMARK    2  A    between atoms: C_3  and  C_5
REMARK    3  A    between atoms: C_5  and  C_6
REMARK    4  A    between atoms: C_6  and  C_7
REMARK    5  A    between atoms: C_18  and  C_19
REMARK                            x       y       z     vdW  Elec       q    Type
REMARK                         _______ _______ _______ _____ _____    ______ ____
ROOT
ATOM      1  C   UNL     1       4.365   3.925  16.191  0.00  0.00    +0.000 C 
ATOM      2  N   UNL     1       4.920   5.245  16.500  0.00  0.00    +0.000 N 
ATOM      3  C   UNL     1       6.216   5.636  16.124  0.00  0.00    +0.000 C 
ATOM      4  O   UNL     1       6.716   6.719  16.428  0.00  0.00    +0.000 OA
ATOM      5  C   UNL     1       4.159   6.040  17.447  0.00  0.00    +0.000 A 
ATOM      6  C   UNL     1       3.844   5.423  18.666  0.00  0.00    +0.000 A 
ATOM      7  C   UNL     1       3.043   6.060  19.612  0.00  0.00    +0.000 A 
ATOM      8  C   UNL     1       2.550   7.307  19.243  0.00  0.00    +0.000 A 
ATOM      9  N   UNL     1       1.726   8.174  19.906  0.00  0.00    +0.000 N 
ATOM     10  C   UNL     1       1.417   9.282  19.141  0.00  0.00    +0.000 A 
ATOM     11  C   UNL     1       2.148   9.147  17.971  0.00  0.00    +0.000 A 
ATOM     12  C   UNL     1       2.867   7.889  18.018  0.00  0.00    +0.000 A 
ATOM     13  N   UNL     1       3.693   7.275  17.105  0.00  0.00    +0.000 NA
ATOM     14  H   UNL     1       1.339   8.045  20.835  0.00  0.00    +0.000 HD
ENDROOT
BRANCH  10  15
ATOM     15  C   UNL     1       0.459  10.306  19.703  0.00  0.00    +0.000 A 
ATOM     16  N   UNL     1       0.067  11.249  18.827  0.00  0.00    +0.000 NA
ATOM     17  N   UNL     1      -0.780  12.024  19.511  0.00  0.00    +0.000 N 
ATOM     18  C   UNL     1      -1.009  11.619  20.794  0.00  0.00    +0.000 A 
ATOM     19  C   UNL     1      -1.873  12.142  21.761  0.00  0.00    +0.000 A 
ATOM     20  C   UNL     1      -1.850  11.558  23.024  0.00  0.00    +0.000 A 
ATOM     21  C   UNL     1      -0.978  10.508  23.292  0.00  0.00    +0.000 A 
ATOM     22  C   UNL     1      -0.133   9.972  22.291  0.00  0.00    +0.000 A 
ATOM     23  C   UNL     1      -0.156  10.522  20.989  0.00  0.00    +0.000 A 
ATOM     24  H   UNL     1      -1.174  12.837  19.054  0.00  0.00    +0.000 HD
ENDBRANCH  10  15
BRANCH   3  25
ATOM     25  C   UNL     1       7.049   4.615  15.305  0.00  0.00    +0.000 C 
BRANCH  25  26
ATOM     26  C   UNL     1       7.162   4.968  13.811  0.00  0.00    +0.000 C 
BRANCH  26  27
ATOM     27  C   UNL     1       6.526   3.941  12.886  0.00  0.00    +0.000 A 
ATOM     28  C   UNL     1       5.139   3.931  12.674  0.00  0.00    +0.000 A 
ATOM     29  C   UNL     1       4.555   2.999  11.808  0.00  0.00    +0.000 A 
ATOM     30  C   UNL     1       5.338   2.063  11.144  0.00  0.00    +0.000 A 
ATOM     31  C   UNL     1       6.716   2.065  11.338  0.00  0.00    +0.000 A 
ATOM     32  C   UNL     1       7.307   2.998  12.200  0.00  0.00    +0.000 A 
ENDBRANCH  26  27
ENDBRANCH  25  26
ENDBRANCH   3  25
TORSDOF 4
ENDMDL
MODEL 3
REMARK VINA RESULT:      -8.8      1.533      1.965
REMARK  Name = 
REMARK  5 active torsions:
REMARK  status: ('A' for Active; 'I' for Inactive)
REMARK    1  A    between atoms: C_1  and  N_2
REMARK    2  A    between atoms: C_3  and  C_5
REMARK    3  A    between atoms: C_5  and  C_6
REMARK    4  A    between atoms: C_6  and  C_7
REMARK    5  A    between atoms: C_18  and  C_19
REMARK                            x       y       z     vdW  Elec       q    Type
REMARK                         _______ _______ _______ _____ _____    ______ ____
ROOT
ATOM      1  C   UNL     1      -0.535  12.000  20.940  0.00  0.00    +0.000 C 
ATOM      2  N   UNL     1      -0.804  11.024  19.882  0.00  0.00    +0.000 N 
ATOM      3  C   UNL     1      -1.966  11.053  19.092  0.00  0.00    +0.000 C 
ATOM      4  O   UNL     1      -2.233  10.205  18.241  0.00  0.00    +0.000 OA
ATOM      5  C   UNL     1       0.068   9.863  19.862  0.00  0.00    +0.000 A 
ATOM      6  C   UNL     1       0.186   9.154  21.066  0.00  0.00    +0.000 A 
ATOM      7  C   UNL     1       1.063   8.077  21.186  0.00  0.00    +0.000 A 
ATOM      8  C   UNL     1       1.830   7.796  20.061  0.00  0.00    +0.000 A 
ATOM      9  N   UNL     1       2.792   6.847  19.849  0.00  0.00    +0.000 N 
ATOM     10  C   UNL     1       3.368   6.963  18.599  0.00  0.00    +0.000 A 
ATOM     11  C   UNL     1       2.679   7.982  17.961  0.00  0.00    +0.000 A 
ATOM     12  C   UNL     1       1.703   8.528  18.884  0.00  0.00    +0.000 A 
ATOM     13  N   UNL     1       0.806   9.563  18.755  0.00  0.00    +0.000 NA
ATOM     14  H   UNL     1       3.100   6.144  20.513  0.00  0.00    +0.000 HD
ENDROOT
BRANCH  10  15
ATOM     15  C   UNL     1       4.499   6.030  18.234  0.00  0.00    +0.000 A 
ATOM     16  N   UNL     1       5.009   5.333  19.266  0.00  0.00    +0.000 NA
ATOM     17  N   UNL     1       5.962   4.568  18.727  0.00  0.00    +0.000 N 
ATOM     18  C   UNL     1       6.086   4.685  17.374  0.00  0.00    +0.000 A 
ATOM     19  C   UNL     1       6.919   3.999  16.484  0.00  0.00    +0.000 A 
ATOM     20  C   UNL     1       6.879   4.378  15.147  0.00  0.00    +0.000 A 
ATOM     21  C   UNL     1       6.047   5.416  14.739  0.00  0.00    +0.000 A 
ATOM     22  C   UNL     1       5.189   6.079  15.649  0.00  0.00    +0.000 A 
ATOM     23  C   UNL     1       5.182   5.695  17.010  0.00  0.00    +0.000 A 
ATOM     24  H   UNL     1       6.517   3.980  19.337  0.00  0.00    +0.000 HD
ENDBRANCH  10  15
BRANCH   3  25
ATOM     25  C   UNL     1      -2.963  12.214  19.351  0.00  0.00    +0.000 C 
BRANCH  25  26
ATOM     26  C   UNL     1      -4.325  12.022  18.660  0.00  0.00    +0.000 C 
BRANCH  26  27
ATOM     27  C   UNL     1      -5.492  11.890  19.627  0.00  0.00    +0.000 A 
ATOM     28  C   UNL     1      -6.473  10.905  19.434  0.00  0.00    +0.000 A 
ATOM     29  C   UNL     1      -7.536  10.770  20.335  0.00  0.00    +0.000 A 
ATOM     30  C   UNL     1      -7.643  11.612  21.435  0.00  0.00    +0.000 A 
ATOM     31  C   UNL     1      -6.675  12.589  21.644  0.00  0.00    +0.000 A 
ATOM     32  C   UNL     1      -5.605  12.726  20.749  0.00  0.00    +0.000 A 
ENDBRANCH  26  27
ENDBRANCH  25  26
ENDBRANCH   3  25
TORSDOF 4
ENDMDL
MODEL 4
REMARK VINA RESULT:      -8.8      2.884     11.279
REMARK  Name = 
REMARK  5 active torsions:
REMARK  status: ('A' for Active; 'I' for Inactive)
REMARK    1  A    between atoms: C_1  and  N_2
REMARK    2  A    between atoms: C_3  and  C_5
REMARK    3  A    between atoms: C_5  and  C_6
REMARK    4  A    between atoms: C_6  and  C_7
REMARK    5  A    between atoms: C_18  and  C_19
REMARK                            x       y       z     vdW  Elec       q    Type
REMARK                         _______ _______ _______ _____ _____    ______ ____
ROOT
ATOM      1  C   UNL     1       4.480   3.696  16.299  0.00  0.00    +0.000 C 
ATOM      2  N   UNL     1       4.977   5.053  16.536  0.00  0.00    +0.000 N 
ATOM      3  C   UNL     1       6.227   5.500  16.076  0.00  0.00    +0.000 C 
ATOM      4  O   UNL     1       6.682   6.618  16.319  0.00  0.00    +0.000 OA
ATOM      5  C   UNL     1       4.225   5.838  17.499  0.00  0.00    +0.000 A 
ATOM      6  C   UNL     1       4.011   5.246  18.752  0.00  0.00    +0.000 A 
ATOM      7  C   UNL     1       3.228   5.871  19.721  0.00  0.00    +0.000 A 
ATOM      8  C   UNL     1       2.648   7.077  19.342  0.00  0.00    +0.000 A 
ATOM      9  N   UNL     1       1.814   7.920  20.023  0.00  0.00    +0.000 N 
ATOM     10  C   UNL     1       1.404   8.984  19.243  0.00  0.00    +0.000 A 
ATOM     11  C   UNL     1       2.077   8.849  18.038  0.00  0.00    +0.000 A 
ATOM     12  C   UNL     1       2.865   7.633  18.085  0.00  0.00    +0.000 A 
ATOM     13  N   UNL     1       3.673   7.034  17.145  0.00  0.00    +0.000 NA
ATOM     14  H   UNL     1       1.486   7.803  20.976  0.00  0.00    +0.000 HD
ENDROOT
BRANCH  10  15
ATOM     15  C   UNL     1       0.422   9.974  19.826  0.00  0.00    +0.000 A 
ATOM     16  N   UNL     1       0.764  10.457  21.035  0.00  0.00    +0.000 NA
ATOM     17  N   UNL     1      -0.210  11.316  21.349  0.00  0.00    +0.000 N 
ATOM     18  C   UNL     1      -1.167  11.466  20.388  0.00  0.00    +0.000 A 
ATOM     19  C   UNL     1      -2.278  12.314  20.349  0.00  0.00    +0.000 A 
ATOM     20  C   UNL     1      -3.131  12.203  19.257  0.00  0.00    +0.000 A 
ATOM     21  C   UNL     1      -2.877  11.262  18.264  0.00  0.00    +0.000 A 
ATOM     22  C   UNL     1      -1.731  10.431  18.306  0.00  0.00    +0.000 A 
ATOM     23  C   UNL     1      -0.827  10.543  19.387  0.00  0.00    +0.000 A 
ATOM     24  H   UNL     1      -0.182  11.776  22.251  0.00  0.00    +0.000 HD
ENDBRANCH  10  15
BRANCH   3  25
ATOM     25  C   UNL     1       7.069   4.498  15.243  0.00  0.00    +0.000 C 
BRANCH  25  26
ATOM     26  C   UNL     1       7.198   4.884  13.759  0.00  0.00    +0.000 C 
BRANCH  26  27
ATOM     27  C   UNL     1       6.472   3.939  12.813  0.00  0.00    +0.000 A 
ATOM     28  C   UNL     1       7.178   2.954  12.106  0.00  0.00    +0.000 A 
ATOM     29  C   UNL     1       6.508   2.071  11.250  0.00  0.00    +0.000 A 
ATOM     30  C   UNL     1       5.132   2.156  11.082  0.00  0.00    +0.000 A 
ATOM     31  C   UNL     1       4.417   3.123  11.782  0.00  0.00    +0.000 A 
ATOM     32  C   UNL     1       5.080   4.006  12.643  0.00  0.00    +0.000 A 
ENDBRANCH  26  27
ENDBRANCH  25  26
ENDBRANCH   3  25
TORSDOF 4
ENDMDL
MODEL 5
REMARK VINA RESULT:      -8.8      2.731     11.318
REMARK  Name = 
REMARK  5 active torsions:
REMARK  status: ('A' for Active; 'I' for Inactive)
REMARK    1  A    between atoms: C_1  and  N_2
REMARK    2  A    between atoms: C_3  and  C_5
REMARK    3  A    between atoms: C_5  and  C_6
REMARK    4  A    between atoms: C_6  and  C_7
REMARK    5  A    between atoms: C_18  and  C_19
REMARK                            x       y       z     vdW  Elec       q    Type
REMARK                         _______ _______ _______ _____ _____    ______ ____
ROOT
ATOM      1  C   UNL     1       3.901   3.708  16.792  0.00  0.00    +0.000 C 
ATOM      2  N   UNL     1       4.446   5.065  16.861  0.00  0.00    +0.000 N 
ATOM      3  C   UNL     1       5.700   5.414  16.330  0.00  0.00    +0.000 C 
ATOM      4  O   UNL     1       6.196   6.535  16.433  0.00  0.00    +0.000 OA
ATOM      5  C   UNL     1       3.741   5.982  17.740  0.00  0.00    +0.000 A 
ATOM      6  C   UNL     1       3.536   5.545  19.057  0.00  0.00    +0.000 A 
ATOM      7  C   UNL     1       2.796   6.305  19.961  0.00  0.00    +0.000 A 
ATOM      8  C   UNL     1       2.246   7.478  19.456  0.00  0.00    +0.000 A 
ATOM      9  N   UNL     1       1.455   8.422  20.049  0.00  0.00    +0.000 N 
ATOM     10  C   UNL     1       1.062   9.402  19.159  0.00  0.00    +0.000 A 
ATOM     11  C   UNL     1       1.703   9.106  17.966  0.00  0.00    +0.000 A 
ATOM     12  C   UNL     1       2.453   7.878  18.139  0.00  0.00    +0.000 A 
ATOM     13  N   UNL     1       3.221   7.147  17.261  0.00  0.00    +0.000 NA
ATOM     14  H   UNL     1       1.144   8.426  21.015  0.00  0.00    +0.000 HD
ENDROOT
BRANCH  10  15
ATOM     15  C   UNL     1       0.125  10.486  19.642  0.00  0.00    +0.000 A 
ATOM     16  N   UNL     1      -0.251  11.365  18.695  0.00  0.00    +0.000 NA
ATOM     17  N   UNL     1      -1.081  12.207  19.319  0.00  0.00    +0.000 N 
ATOM     18  C   UNL     1      -1.313  11.908  20.629  0.00  0.00    +0.000 A 
ATOM     19  C   UNL     1      -2.163  12.522  21.554  0.00  0.00    +0.000 A 
ATOM     20  C   UNL     1      -2.147  12.038  22.858  0.00  0.00    +0.000 A 
ATOM     21  C   UNL     1      -1.295  10.995  23.207  0.00  0.00    +0.000 A 
ATOM     22  C   UNL     1      -0.464  10.366  22.249  0.00  0.00    +0.000 A 
ATOM     23  C   UNL     1      -0.480  10.813  20.908  0.00  0.00    +0.000 A 
ATOM     24  H   UNL     1      -1.460  12.990  18.800  0.00  0.00    +0.000 HD
ENDBRANCH  10  15
BRANCH   3  25
ATOM     25  C   UNL     1       6.491   4.294  15.604  0.00  0.00    +0.000 C 
BRANCH  25  26
ATOM     26  C   UNL     1       6.946   4.681  14.185  0.00  0.00    +0.000 C 
BRANCH  26  27
ATOM     27  C   UNL     1       6.281   3.869  13.083  0.00  0.00    +0.000 A 
ATOM     28  C   UNL     1       7.026   2.965  12.311  0.00  0.00    +0.000 A 
ATOM     29  C   UNL     1       6.411   2.203  11.311  0.00  0.00    +0.000 A 
ATOM     30  C   UNL     1       5.050   2.331  11.060  0.00  0.00    +0.000 A 
ATOM     31  C   UNL     1       4.296   3.218  11.822  0.00  0.00    +0.000 A 
ATOM     32  C   UNL     1       4.904   3.979  12.828  0.00  0.00    +0.000 A 
ENDBRANCH  26  27
ENDBRANCH  25  26
ENDBRANCH   3  25
TORSDOF 4
ENDMDL
MODEL 6
REMARK VINA RESULT:      -8.8      2.349     11.251
REMARK  Name = 
REMARK  5 active torsions:
REMARK  status: ('A' for Active; 'I' for Inactive)
REMARK    1  A    between atoms: C_1  and  N_2
REMARK    2  A    between atoms: C_3  and  C_5
REMARK    3  A    between atoms: C_5  and  C_6
REMARK    4  A    between atoms: C_6  and  C_7
REMARK    5  A    between atoms: C_18  and  C_19
REMARK                            x       y       z     vdW  Elec       q    Type
REMARK                         _______ _______ _______ _____ _____    ______ ____
ROOT
ATOM      1  C   UNL     1       3.085   4.234  17.607  0.00  0.00    +0.000 C 
ATOM      2  N   UNL     1       3.731   5.546  17.685  0.00  0.00    +0.000 N 
ATOM      3  C   UNL     1       5.065   5.765  17.300  0.00  0.00    +0.000 C 
ATOM      4  O   UNL     1       5.638   6.847  17.416  0.00  0.00    +0.000 OA
ATOM      5  C   UNL     1       3.005   6.561  18.428  0.00  0.00    +0.000 A 
ATOM      6  C   UNL     1       2.605   6.213  19.726  0.00  0.00    +0.000 A 
ATOM      7  C   UNL     1       1.828   7.076  20.496  0.00  0.00    +0.000 A 
ATOM      8  C   UNL     1       1.446   8.260  19.875  0.00  0.00    +0.000 A 
ATOM      9  N   UNL     1       0.671   9.295  20.323  0.00  0.00    +0.000 N 
ATOM     10  C   UNL     1       0.474  10.254  19.349  0.00  0.00    +0.000 A 
ATOM     11  C   UNL     1       1.228   9.844  18.260  0.00  0.00    +0.000 A 
ATOM     12  C   UNL     1       1.844   8.571  18.579  0.00  0.00    +0.000 A 
ATOM     13  N   UNL     1       2.648   7.736  17.837  0.00  0.00    +0.000 NA
ATOM     14  H   UNL     1       0.247   9.375  21.241  0.00  0.00    +0.000 HD
ENDROOT
BRANCH  10  15
ATOM     15  C   UNL     1      -0.418  11.432  19.663  0.00  0.00    +0.000 A 
ATOM     16  N   UNL     1      -0.683  12.231  18.613  0.00  0.00    +0.000 NA
ATOM     17  N   UNL     1      -1.492  13.178  19.096  0.00  0.00    +0.000 N 
ATOM     18  C   UNL     1      -1.819  13.027  20.412  0.00  0.00    +0.000 A 
ATOM     19  C   UNL     1      -2.680  13.780  21.217  0.00  0.00    +0.000 A 
ATOM     20  C   UNL     1      -2.770  13.431  22.561  0.00  0.00    +0.000 A 
ATOM     21  C   UNL     1      -2.007  12.381  23.063  0.00  0.00    +0.000 A 
ATOM     22  C   UNL     1      -1.163  11.612  22.226  0.00  0.00    +0.000 A 
ATOM     23  C   UNL     1      -1.074  11.921  20.850  0.00  0.00    +0.000 A 
ATOM     24  H   UNL     1      -1.791  13.924  18.481  0.00  0.00    +0.000 HD
ENDBRANCH  10  15
BRANCH   3  25
ATOM     25  C   UNL     1       5.841   4.548  16.729  0.00  0.00    +0.000 C 
BRANCH  25  26
ATOM     26  C   UNL     1       7.067   4.940  15.885  0.00  0.00    +0.000 C 
BRANCH  26  27
ATOM     27  C   UNL     1       6.922   4.620  14.405  0.00  0.00    +0.000 A 
ATOM     28  C   UNL     1       7.763   5.222  13.457  0.00  0.00    +0.000 A 
ATOM     29  C   UNL     1       7.644   4.913  12.097  0.00  0.00    +0.000 A 
ATOM     30  C   UNL     1       6.688   4.005  11.659  0.00  0.00    +0.000 A 
ATOM     31  C   UNL     1       5.852   3.393  12.587  0.00  0.00    +0.000 A 
ATOM     32  C   UNL     1       5.969   3.694  13.950  0.00  0.00    +0.000 A 
ENDBRANCH  26  27
ENDBRANCH  25  26
ENDBRANCH   3  25
TORSDOF 4
ENDMDL
MODEL 7
REMARK VINA RESULT:      -8.7      1.014      1.717
REMARK  Name = 
REMARK  5 active torsions:
REMARK  status: ('A' for Active; 'I' for Inactive)
REMARK    1  A    between atoms: C_1  and  N_2
REMARK    2  A    between atoms: C_3  and  C_5
REMARK    3  A    between atoms: C_5  and  C_6
REMARK    4  A    between atoms: C_6  and  C_7
REMARK    5  A    between atoms: C_18  and  C_19
REMARK                            x       y       z     vdW  Elec       q    Type
REMARK                         _______ _______ _______ _____ _____    ______ ____
ROOT
ATOM      1  C   UNL     1       0.366  12.338  21.224  0.00  0.00    +0.000 C 
ATOM      2  N   UNL     1      -0.212  11.410  20.250  0.00  0.00    +0.000 N 
ATOM      3  C   UNL     1      -1.460  11.622  19.640  0.00  0.00    +0.000 C 
ATOM      4  O   UNL     1      -1.984  10.822  18.865  0.00  0.00    +0.000 OA
ATOM      5  C   UNL     1       0.450  10.123  20.139  0.00  0.00    +0.000 A 
ATOM      6  C   UNL     1       0.634   9.413  21.334  0.00  0.00    +0.000 A 
ATOM      7  C   UNL     1       1.334   8.208  21.358  0.00  0.00    +0.000 A 
ATOM      8  C   UNL     1       1.868   7.797  20.142  0.00  0.00    +0.000 A 
ATOM      9  N   UNL     1       2.623   6.702  19.822  0.00  0.00    +0.000 N 
ATOM     10  C   UNL     1       3.014   6.713  18.497  0.00  0.00    +0.000 A 
ATOM     11  C   UNL     1       2.409   7.826  17.935  0.00  0.00    +0.000 A 
ATOM     12  C   UNL     1       1.684   8.531  18.974  0.00  0.00    +0.000 A 
ATOM     13  N   UNL     1       0.955   9.698  18.945  0.00  0.00    +0.000 NA
ATOM     14  H   UNL     1       2.910   5.963  20.455  0.00  0.00    +0.000 HD
ENDROOT
BRANCH  10  15
ATOM     15  C   UNL     1       3.913   5.605  17.999  0.00  0.00    +0.000 A 
ATOM     16  N   UNL     1       3.988   4.535  18.811  0.00  0.00    +0.000 NA
ATOM     17  N   UNL     1       4.801   3.681  18.180  0.00  0.00    +0.000 N 
ATOM     18  C   UNL     1       5.239   4.110  16.962  0.00  0.00    +0.000 A 
ATOM     19  C   UNL     1       6.035   3.461  16.013  0.00  0.00    +0.000 A 
ATOM     20  C   UNL     1       6.384   4.177  14.872  0.00  0.00    +0.000 A 
ATOM     21  C   UNL     1       5.961   5.493  14.716  0.00  0.00    +0.000 A 
ATOM     22  C   UNL     1       5.131   6.123  15.674  0.00  0.00    +0.000 A 
ATOM     23  C   UNL     1       4.731   5.412  16.828  0.00  0.00    +0.000 A 
ATOM     24  H   UNL     1       5.038   2.808  18.635  0.00  0.00    +0.000 HD
ENDBRANCH  10  15
BRANCH   3  25
ATOM     25  C   UNL     1      -2.207  12.932  20.005  0.00  0.00    +0.000 C 
BRANCH  25  26
ATOM     26  C   UNL     1      -3.190  12.774  21.179  0.00  0.00    +0.000 C 
BRANCH  26  27
ATOM     27  C   UNL     1      -4.641  12.617  20.749  0.00  0.00    +0.000 A 
ATOM     28  C   UNL     1      -5.674  12.625  21.699  0.00  0.00    +0.000 A 
ATOM     29  C   UNL     1      -7.011  12.501  21.303  0.00  0.00    +0.000 A 
ATOM     30  C   UNL     1      -7.341  12.362  19.961  0.00  0.00    +0.000 A 
ATOM     31  C   UNL     1      -6.329  12.359  19.006  0.00  0.00    +0.000 A 
ATOM     32  C   UNL     1      -4.989  12.488  19.395  0.00  0.00    +0.000 A 
ENDBRANCH  26  27
ENDBRANCH  25  26
ENDBRANCH   3  25
TORSDOF 4
ENDMDL
MODEL 8
REMARK VINA RESULT:      -8.5      2.509     11.229
REMARK  Name = 
REMARK  5 active torsions:
REMARK  status: ('A' for Active; 'I' for Inactive)
REMARK    1  A    between atoms: C_1  and  N_2
REMARK    2  A    between atoms: C_3  and  C_5
REMARK    3  A    between atoms: C_5  and  C_6
REMARK    4  A    between atoms: C_6  and  C_7
REMARK    5  A    between atoms: C_18  and  C_19
REMARK                            x       y       z     vdW  Elec       q    Type
REMARK                         _______ _______ _______ _____ _____    ______ ____
ROOT
ATOM      1  C   UNL     1       3.786   4.138  17.161  0.00  0.00    +0.000 C 
ATOM      2  N   UNL     1       4.353   5.479  17.321  0.00  0.00    +0.000 N 
ATOM      3  C   UNL     1       5.678   5.795  16.977  0.00  0.00    +0.000 C 
ATOM      4  O   UNL     1       6.184   6.902  17.162  0.00  0.00    +0.000 OA
ATOM      5  C   UNL     1       3.555   6.409  18.102  0.00  0.00    +0.000 A 
ATOM      6  C   UNL     1       3.154   5.969  19.372  0.00  0.00    +0.000 A 
ATOM      7  C   UNL     1       2.313   6.742  20.170  0.00  0.00    +0.000 A 
ATOM      8  C   UNL     1       1.873   7.934  19.605  0.00  0.00    +0.000 A 
ATOM      9  N   UNL     1       1.032   8.896  20.092  0.00  0.00    +0.000 N 
ATOM     10  C   UNL     1       0.795   9.894  19.166  0.00  0.00    +0.000 A 
ATOM     11  C   UNL     1       1.591   9.588  18.073  0.00  0.00    +0.000 A 
ATOM     12  C   UNL     1       2.276   8.337  18.336  0.00  0.00    +0.000 A 
ATOM     13  N   UNL     1       3.140   7.592  17.567  0.00  0.00    +0.000 NA
ATOM     14  H   UNL     1       0.587   8.902  21.004  0.00  0.00    +0.000 HD
ENDROOT
BRANCH  10  15
ATOM     15  C   UNL     1      -0.170  11.000  19.523  0.00  0.00    +0.000 A 
ATOM     16  N   UNL     1      -0.487  11.819  18.504  0.00  0.00    +0.000 NA
ATOM     17  N   UNL     1      -1.354  12.694  19.023  0.00  0.00    +0.000 N 
ATOM     18  C   UNL     1      -1.669  12.472  20.332  0.00  0.00    +0.000 A 
ATOM     19  C   UNL     1      -2.576  13.136  21.164  0.00  0.00    +0.000 A 
ATOM     20  C   UNL     1      -2.642  12.730  22.492  0.00  0.00    +0.000 A 
ATOM     21  C   UNL     1      -1.814  11.713  22.955  0.00  0.00    +0.000 A 
ATOM     22  C   UNL     1      -0.923  11.032  22.091  0.00  0.00    +0.000 A 
ATOM     23  C   UNL     1      -0.855  11.399  20.727  0.00  0.00    +0.000 A 
ATOM     24  H   UNL     1      -1.701  13.443  18.436  0.00  0.00    +0.000 HD
ENDBRANCH  10  15
BRANCH   3  25
ATOM     25  C   UNL     1       6.534   4.658  16.358  0.00  0.00    +0.000 C 
BRANCH  25  26
ATOM     26  C   UNL     1       7.187   5.039  15.017  0.00  0.00    +0.000 C 
BRANCH  26  27
ATOM     27  C   UNL     1       6.588   4.323  13.815  0.00  0.00    +0.000 A 
ATOM     28  C   UNL     1       5.215   4.042  13.762  0.00  0.00    +0.000 A 
ATOM     29  C   UNL     1       4.660   3.401  12.647  0.00  0.00    +0.000 A 
ATOM     30  C   UNL     1       5.460   3.029  11.574  0.00  0.00    +0.000 A 
ATOM     31  C   UNL     1       6.823   3.308  11.609  0.00  0.00    +0.000 A 
ATOM     32  C   UNL     1       7.384   3.953  12.719  0.00  0.00    +0.000 A 
ENDBRANCH  26  27
ENDBRANCH  25  26
ENDBRANCH   3  25
TORSDOF 4
ENDMDL
MODEL 9
REMARK VINA RESULT:      -8.5      2.578     11.158
REMARK  Name = 
REMARK  5 active torsions:
REMARK  status: ('A' for Active; 'I' for Inactive)
REMARK    1  A    between atoms: C_1  and  N_2
REMARK    2  A    between atoms: C_3  and  C_5
REMARK    3  A    between atoms: C_5  and  C_6
REMARK    4  A    between atoms: C_6  and  C_7
REMARK    5  A    between atoms: C_18  and  C_19
REMARK                            x       y       z     vdW  Elec       q    Type
REMARK                         _______ _______ _______ _____ _____    ______ ____
ROOT
ATOM      1  C   UNL     1       3.330   3.796  17.139  0.00  0.00    +0.000 C 
ATOM      2  N   UNL     1       4.003   4.946  17.746  0.00  0.00    +0.000 N 
ATOM      3  C   UNL     1       5.370   5.216  17.565  0.00  0.00    +0.000 C 
ATOM      4  O   UNL     1       5.960   6.144  18.117  0.00  0.00    +0.000 OA
ATOM      5  C   UNL     1       3.244   5.653  18.763  0.00  0.00    +0.000 A 
ATOM      6  C   UNL     1       2.725   4.872  19.806  0.00  0.00    +0.000 A 
ATOM      7  C   UNL     1       1.909   5.430  20.788  0.00  0.00    +0.000 A 
ATOM      8  C   UNL     1       1.613   6.780  20.631  0.00  0.00    +0.000 A 
ATOM      9  N   UNL     1       0.831   7.617  21.379  0.00  0.00    +0.000 N 
ATOM     10  C   UNL     1       0.744   8.878  20.824  0.00  0.00    +0.000 A 
ATOM     11  C   UNL     1       1.577   8.860  19.715  0.00  0.00    +0.000 A 
ATOM     12  C   UNL     1       2.129   7.526  19.576  0.00  0.00    +0.000 A 
ATOM     13  N   UNL     1       2.970   6.982  18.632  0.00  0.00    +0.000 NA
ATOM     14  H   UNL     1       0.333   7.375  22.229  0.00  0.00    +0.000 HD
ENDROOT
BRANCH  10  15
ATOM     15  C   UNL     1      -0.140   9.905  21.493  0.00  0.00    +0.000 A 
ATOM     16  N   UNL     1      -0.365   9.684  22.801  0.00  0.00    +0.000 NA
ATOM     17  N   UNL     1      -1.135  10.703  23.194  0.00  0.00    +0.000 N 
ATOM     18  C   UNL     1      -1.400  11.622  22.222  0.00  0.00    +0.000 A 
ATOM     19  C   UNL     1      -2.104  12.828  22.292  0.00  0.00    +0.000 A 
ATOM     20  C   UNL     1      -2.276  13.540  21.109  0.00  0.00    +0.000 A 
ATOM     21  C   UNL     1      -1.773  13.038  19.912  0.00  0.00    +0.000 A 
ATOM     22  C   UNL     1      -1.037  11.830  19.866  0.00  0.00    +0.000 A 
ATOM     23  C   UNL     1      -0.817  11.100  21.056  0.00  0.00    +0.000 A 
ATOM     24  H   UNL     1      -1.469  10.721  24.150  0.00  0.00    +0.000 HD
ENDBRANCH  10  15
BRANCH   3  25
ATOM     25  C   UNL     1       6.158   4.256  16.635  0.00  0.00    +0.000 C 
BRANCH  25  26
ATOM     26  C   UNL     1       7.121   4.980  15.677  0.00  0.00    +0.000 C 
BRANCH  26  27
ATOM     27  C   UNL     1       6.939   4.596  14.215  0.00  0.00    +0.000 A 
ATOM     28  C   UNL     1       5.939   3.690  13.833  0.00  0.00    +0.000 A 
ATOM     29  C   UNL     1       5.758   3.352  12.486  0.00  0.00    +0.000 A 
ATOM     30  C   UNL     1       6.568   3.905  11.503  0.00  0.00    +0.000 A 
ATOM     31  C   UNL     1       7.560   4.812  11.865  0.00  0.00    +0.000 A 
ATOM     32  C   UNL     1       7.743   5.158  13.211  0.00  0.00    +0.000 A 
ENDBRANCH  26  27
ENDBRANCH  25  26
ENDBRANCH   3  25
TORSDOF 4
ENDMDL
