MODEL 1
REMARK VINA RESULT:      -7.8      0.000      0.000
REMARK  Name = 
REMARK  6 active torsions:
REMARK  status: ('A' for Active; 'I' for Inactive)
REMARK    1  A    between atoms: C_1  and  C_2
REMARK    2  A    between atoms: C_5  and  N_6
REMARK    3  A    between atoms: N_6  and  C_7
REMARK    4  A    between atoms: N_6  and  C_13
REMARK    5  A    between atoms: C_7  and  C_8
REMARK    6  A    between atoms: C_13  and  C_14
REMARK                            x       y       z     vdW  Elec       q    Type
REMARK                         _______ _______ _______ _____ _____    ______ ____
ROOT
ATOM      1  N   UNL     1       2.550   5.867  18.769  0.00  0.00    +0.000 N 
ENDROOT
BRANCH   1   6
ATOM      2  C   UNL     1       5.848   4.474  14.409  0.00  0.00    +0.000 C 
ATOM      3  C   UNL     1       5.241   4.803  15.739  0.00  0.00    +0.000 A 
ATOM      4  C   UNL     1       4.598   3.817  16.486  0.00  0.00    +0.000 A 
ATOM      5  C   UNL     1       3.805   4.184  17.570  0.00  0.00    +0.000 A 
ATOM      6  C   UNL     1       3.617   5.529  17.931  0.00  0.00    +0.000 A 
ATOM      7  C   UNL     1       4.461   6.466  17.328  0.00  0.00    +0.000 A 
ATOM      8  C   UNL     1       5.234   6.116  16.213  0.00  0.00    +0.000 A 
ENDBRANCH   1   6
BRANCH   1   9
ATOM      9  C   UNL     1       1.509   4.903  19.167  0.00  0.00    +0.000 C 
BRANCH   9  10
ATOM     10  C   UNL     1       1.685   4.036  20.365  0.00  0.00    +0.000 A 
ATOM     11  N   UNL     1       2.633   4.123  21.281  0.00  0.00    +0.000 NA
ATOM     12  N   UNL     1       2.341   3.175  22.230  0.00  0.00    +0.000 NA
ATOM     13  N   UNL     1       1.238   2.513  21.912  0.00  0.00    +0.000 NA
ATOM     14  N   UNL     1       0.846   3.029  20.740  0.00  0.00    +0.000 N 
ATOM     15  H   UNL     1       0.014   2.669  20.288  0.00  0.00    +0.000 HD
ENDBRANCH   9  10
ENDBRANCH   1   9
BRANCH   1  16
ATOM     16  C   UNL     1       2.868   6.945  19.732  0.00  0.00    +0.000 C 
BRANCH  16  17
ATOM     17  C   UNL     1       1.718   7.895  20.027  0.00  0.00    +0.000 A 
ATOM     18  C   UNL     1       1.037   7.850  21.256  0.00  0.00    +0.000 A 
ATOM     19  C   UNL     1       0.170   8.877  21.636  0.00  0.00    +0.000 A 
ATOM     20  C   UNL     1      -0.044   9.954  20.783  0.00  0.00    +0.000 A 
ATOM     21 CL   UNL     1      -1.012  11.276  21.304  0.00  0.00    +0.000 Cl
ATOM     22  C   UNL     1       0.543   9.979  19.522  0.00  0.00    +0.000 A 
ATOM     23  C   UNL     1       1.412   8.950  19.145  0.00  0.00    +0.000 A 
ATOM     24 CL   UNL     1       2.100   9.052  17.561  0.00  0.00    +0.000 Cl
ENDBRANCH  16  17
ENDBRANCH   1  16
TORSDOF 5
ENDMDL
MODEL 2
REMARK VINA RESULT:      -7.8      1.029      1.117
REMARK  Name = 
REMARK  6 active torsions:
REMARK  status: ('A' for Active; 'I' for Inactive)
REMARK    1  A    between atoms: C_1  and  C_2
REMARK    2  A    between atoms: C_5  and  N_6
REMARK    3  A    between atoms: N_6  and  C_7
REMARK    4  A    between atoms: N_6  and  C_13
REMARK    5  A    between atoms: C_7  and  C_8
REMARK    6  A    between atoms: C_13  and  C_14
REMARK                            x       y       z     vdW  Elec       q    Type
REMARK                         _______ _______ _______ _____ _____    ______ ____
ROOT
ATOM      1  N   UNL     1       3.152   5.013  18.573  0.00  0.00    +0.000 N 
ENDROOT
BRANCH   1   6
ATOM      2  C   UNL     1       7.030   4.935  14.477  0.00  0.00    +0.000 C 
ATOM      3  C   UNL     1       6.187   4.731  15.699  0.00  0.00    +0.000 A 
ATOM      4  C   UNL     1       5.115   3.841  15.678  0.00  0.00    +0.000 A 
ATOM      5  C   UNL     1       4.182   3.865  16.712  0.00  0.00    +0.000 A 
ATOM      6  C   UNL     1       4.276   4.778  17.777  0.00  0.00    +0.000 A 
ATOM      7  C   UNL     1       5.479   5.479  17.900  0.00  0.00    +0.000 A 
ATOM      8  C   UNL     1       6.408   5.491  16.851  0.00  0.00    +0.000 A 
ENDBRANCH   1   6
BRANCH   1   9
ATOM      9  C   UNL     1       2.124   3.990  18.830  0.00  0.00    +0.000 C 
BRANCH   9  10
ATOM     10  C   UNL     1       2.069   3.269  20.132  0.00  0.00    +0.000 A 
ATOM     11  N   UNL     1       3.070   2.683  20.764  0.00  0.00    +0.000 NA
ATOM     12  N   UNL     1       2.562   2.229  21.955  0.00  0.00    +0.000 NA
ATOM     13  N   UNL     1       1.276   2.525  22.064  0.00  0.00    +0.000 NA
ATOM     14  N   UNL     1       0.963   3.148  20.920  0.00  0.00    +0.000 N 
ATOM     15  H   UNL     1       0.013   3.466  20.768  0.00  0.00    +0.000 HD
ENDBRANCH   9  10
ENDBRANCH   1   9
BRANCH   1  16
ATOM     16  C   UNL     1       3.377   6.018  19.638  0.00  0.00    +0.000 C 
BRANCH  16  17
ATOM     17  C   UNL     1       2.303   7.090  19.738  0.00  0.00    +0.000 A 
ATOM     18  C   UNL     1       1.491   7.198  20.881  0.00  0.00    +0.000 A 
ATOM     19  C   UNL     1       0.695   8.326  21.094  0.00  0.00    +0.000 A 
ATOM     20  C   UNL     1       0.685   9.353  20.157  0.00  0.00    +0.000 A 
ATOM     21 CL   UNL     1      -0.195  10.794  20.481  0.00  0.00    +0.000 Cl
ATOM     22  C   UNL     1       1.406   9.232  18.974  0.00  0.00    +0.000 A 
ATOM     23  C   UNL     1       2.203   8.103  18.764  0.00  0.00    +0.000 A 
ATOM     24 CL   UNL     1       3.067   8.025  17.267  0.00  0.00    +0.000 Cl
ENDBRANCH  16  17
ENDBRANCH   1  16
TORSDOF 5
ENDMDL
MODEL 3
REMARK VINA RESULT:      -7.7      1.993      3.016
REMARK  Name = 
REMARK  6 active torsions:
REMARK  status: ('A' for Active; 'I' for Inactive)
REMARK    1  A    between atoms: C_1  and  C_2
REMARK    2  A    between atoms: C_5  and  N_6
REMARK    3  A    between atoms: N_6  and  C_7
REMARK    4  A    between atoms: N_6  and  C_13
REMARK    5  A    between atoms: C_7  and  C_8
REMARK    6  A    between atoms: C_13  and  C_14
REMARK                            x       y       z     vdW  Elec       q    Type
REMARK                         _______ _______ _______ _____ _____    ______ ____
ROOT
ATOM      1  N   UNL     1       4.607   4.119  17.514  0.00  0.00    +0.000 N 
ENDROOT
BRANCH   1   6
ATOM      2  C   UNL     1       7.725   5.347  12.976  0.00  0.00    +0.000 C 
ATOM      3  C   UNL     1       7.055   4.740  14.171  0.00  0.00    +0.000 A 
ATOM      4  C   UNL     1       5.838   4.074  14.037  0.00  0.00    +0.000 A 
ATOM      5  C   UNL     1       5.096   3.763  15.174  0.00  0.00    +0.000 A 
ATOM      6  C   UNL     1       5.529   4.117  16.463  0.00  0.00    +0.000 A 
ATOM      7  C   UNL     1       6.851   4.555  16.585  0.00  0.00    +0.000 A 
ATOM      8  C   UNL     1       7.593   4.905  15.450  0.00  0.00    +0.000 A 
ENDBRANCH   1   6
BRANCH   1   9
ATOM      9  C   UNL     1       3.971   2.891  18.023  0.00  0.00    +0.000 C 
BRANCH   9  10
ATOM     10  C   UNL     1       4.086   2.506  19.457  0.00  0.00    +0.000 A 
ATOM     11  N   UNL     1       3.168   2.641  20.396  0.00  0.00    +0.000 NA
ATOM     12  N   UNL     1       3.690   2.074  21.532  0.00  0.00    +0.000 NA
ATOM     13  N   UNL     1       4.905   1.596  21.305  0.00  0.00    +0.000 NA
ATOM     14  N   UNL     1       5.161   1.888  20.023  0.00  0.00    +0.000 N 
ATOM     15  H   UNL     1       6.051   1.624  19.619  0.00  0.00    +0.000 HD
ENDBRANCH   9  10
ENDBRANCH   1   9
BRANCH   1  16
ATOM     16  C   UNL     1       4.814   5.217  18.485  0.00  0.00    +0.000 C 
BRANCH  16  17
ATOM     17  C   UNL     1       3.682   6.228  18.553  0.00  0.00    +0.000 A 
ATOM     18  C   UNL     1       2.810   6.269  19.656  0.00  0.00    +0.000 A 
ATOM     19  C   UNL     1       1.946   7.349  19.851  0.00  0.00    +0.000 A 
ATOM     20  C   UNL     1       1.927   8.394  18.936  0.00  0.00    +0.000 A 
ATOM     21 CL   UNL     1       0.956   9.779  19.243  0.00  0.00    +0.000 Cl
ATOM     22  C   UNL     1       2.710   8.337  17.788  0.00  0.00    +0.000 A 
ATOM     23  C   UNL     1       3.575   7.256  17.595  0.00  0.00    +0.000 A 
ATOM     24 CL   UNL     1       4.514   7.257  16.142  0.00  0.00    +0.000 Cl
ENDBRANCH  16  17
ENDBRANCH   1  16
TORSDOF 5
ENDMDL
MODEL 4
REMARK VINA RESULT:      -7.6      1.491      1.926
REMARK  Name = 
REMARK  6 active torsions:
REMARK  status: ('A' for Active; 'I' for Inactive)
REMARK    1  A    between atoms: C_1  and  C_2
REMARK    2  A    between atoms: C_5  and  N_6
REMARK    3  A    between atoms: N_6  and  C_7
REMARK    4  A    between atoms: N_6  and  C_13
REMARK    5  A    between atoms: C_7  and  C_8
REMARK    6  A    between atoms: C_13  and  C_14
REMARK                            x       y       z     vdW  Elec       q    Type
REMARK                         _______ _______ _______ _____ _____    ______ ____
ROOT
ATOM      1  N   UNL     1       2.944   5.468  18.001  0.00  0.00    +0.000 N 
ENDROOT
BRANCH   1   6
ATOM      2  C   UNL     1       6.438   4.114  13.783  0.00  0.00    +0.000 C 
ATOM      3  C   UNL     1       5.782   4.506  15.073  0.00  0.00    +0.000 A 
ATOM      4  C   UNL     1       5.329   3.530  15.959  0.00  0.00    +0.000 A 
ATOM      5  C   UNL     1       4.483   3.892  17.005  0.00  0.00    +0.000 A 
ATOM      6  C   UNL     1       4.054   5.218  17.189  0.00  0.00    +0.000 A 
ATOM      7  C   UNL     1       4.714   6.201  16.446  0.00  0.00    +0.000 A 
ATOM      8  C   UNL     1       5.537   5.848  15.369  0.00  0.00    +0.000 A 
ENDBRANCH   1   6
BRANCH   1   9
ATOM      9  C   UNL     1       1.874   4.479  18.220  0.00  0.00    +0.000 C 
BRANCH   9  10
ATOM     10  C   UNL     1       1.814   3.680  19.476  0.00  0.00    +0.000 A 
ATOM     11  N   UNL     1       2.763   2.909  19.977  0.00  0.00    +0.000 NA
ATOM     12  N   UNL     1       2.289   2.447  21.179  0.00  0.00    +0.000 NA
ATOM     13  N   UNL     1       1.075   2.919  21.421  0.00  0.00    +0.000 NA
ATOM     14  N   UNL     1       0.770   3.663  20.351  0.00  0.00    +0.000 N 
ATOM     15  H   UNL     1      -0.130   4.127  20.305  0.00  0.00    +0.000 HD
ENDBRANCH   9  10
ENDBRANCH   1   9
BRANCH   1  16
ATOM     16  C   UNL     1       3.215   6.417  19.105  0.00  0.00    +0.000 C 
BRANCH  16  17
ATOM     17  C   UNL     1       2.444   7.724  19.025  0.00  0.00    +0.000 A 
ATOM     18  C   UNL     1       2.508   8.535  17.878  0.00  0.00    +0.000 A 
ATOM     19  C   UNL     1       1.609   9.588  17.690  0.00  0.00    +0.000 A 
ATOM     20  C   UNL     1       0.646   9.856  18.656  0.00  0.00    +0.000 A 
ATOM     21 CL   UNL     1      -0.538  11.069  18.366  0.00  0.00    +0.000 Cl
ATOM     22  C   UNL     1       0.619   9.131  19.842  0.00  0.00    +0.000 A 
ATOM     23  C   UNL     1       1.519   8.077  20.027  0.00  0.00    +0.000 A 
ATOM     24 CL   UNL     1       1.423   7.223  21.529  0.00  0.00    +0.000 Cl
ENDBRANCH  16  17
ENDBRANCH   1  16
TORSDOF 5
ENDMDL
MODEL 5
REMARK VINA RESULT:      -7.6      3.995      5.908
REMARK  Name = 
REMARK  6 active torsions:
REMARK  status: ('A' for Active; 'I' for Inactive)
REMARK    1  A    between atoms: C_1  and  C_2
REMARK    2  A    between atoms: C_5  and  N_6
REMARK    3  A    between atoms: N_6  and  C_7
REMARK    4  A    between atoms: N_6  and  C_13
REMARK    5  A    between atoms: C_7  and  C_8
REMARK    6  A    between atoms: C_13  and  C_14
REMARK                            x       y       z     vdW  Elec       q    Type
REMARK                         _______ _______ _______ _____ _____    ______ ____
ROOT
ATOM      1  N   UNL     1       5.788   5.031  16.350  0.00  0.00    +0.000 N 
ENDROOT
BRANCH   1   6
ATOM      2  C   UNL     1       7.143   2.898  11.306  0.00  0.00    +0.000 C 
ATOM      3  C   UNL     1       6.648   3.699  12.472  0.00  0.00    +0.000 A 
ATOM      4  C   UNL     1       7.480   4.626  13.097  0.00  0.00    +0.000 A 
ATOM      5  C   UNL     1       7.114   5.154  14.333  0.00  0.00    +0.000 A 
ATOM      6  C   UNL     1       5.930   4.768  14.984  0.00  0.00    +0.000 A 
ATOM      7  C   UNL     1       5.007   4.038  14.231  0.00  0.00    +0.000 A 
ATOM      8  C   UNL     1       5.377   3.471  13.004  0.00  0.00    +0.000 A 
ENDBRANCH   1   6
BRANCH   1   9
ATOM      9  C   UNL     1       6.937   5.197  17.257  0.00  0.00    +0.000 C 
BRANCH   9  10
ATOM     10  C   UNL     1       7.478   6.548  17.570  0.00  0.00    +0.000 A 
ATOM     11  N   UNL     1       7.298   7.660  16.880  0.00  0.00    +0.000 NA
ATOM     12  N   UNL     1       7.911   8.660  17.592  0.00  0.00    +0.000 NA
ATOM     13  N   UNL     1       8.459   8.184  18.699  0.00  0.00    +0.000 NA
ATOM     14  N   UNL     1       8.213   6.867  18.672  0.00  0.00    +0.000 N 
ATOM     15  H   UNL     1       8.550   6.281  19.426  0.00  0.00    +0.000 HD
ENDBRANCH   9  10
ENDBRANCH   1   9
BRANCH   1  16
ATOM     16  C   UNL     1       4.556   5.780  16.686  0.00  0.00    +0.000 C 
BRANCH  16  17
ATOM     17  C   UNL     1       3.574   5.028  17.569  0.00  0.00    +0.000 A 
ATOM     18  C   UNL     1       3.650   3.631  17.712  0.00  0.00    +0.000 A 
ATOM     19  C   UNL     1       2.934   2.970  18.712  0.00  0.00    +0.000 A 
ATOM     20  C   UNL     1       2.116   3.694  19.572  0.00  0.00    +0.000 A 
ATOM     21 CL   UNL     1       1.336   2.896  20.880  0.00  0.00    +0.000 Cl
ATOM     22  C   UNL     1       1.949   5.063  19.396  0.00  0.00    +0.000 A 
ATOM     23  C   UNL     1       2.668   5.723  18.395  0.00  0.00    +0.000 A 
ATOM     24 CL   UNL     1       2.404   7.426  18.237  0.00  0.00    +0.000 Cl
ENDBRANCH  16  17
ENDBRANCH   1  16
TORSDOF 5
ENDMDL
MODEL 6
REMARK VINA RESULT:      -7.6      1.706      2.484
REMARK  Name = 
REMARK  6 active torsions:
REMARK  status: ('A' for Active; 'I' for Inactive)
REMARK    1  A    between atoms: C_1  and  C_2
REMARK    2  A    between atoms: C_5  and  N_6
REMARK    3  A    between atoms: N_6  and  C_7
REMARK    4  A    between atoms: N_6  and  C_13
REMARK    5  A    between atoms: C_7  and  C_8
REMARK    6  A    between atoms: C_13  and  C_14
REMARK                            x       y       z     vdW  Elec       q    Type
REMARK                         _______ _______ _______ _____ _____    ______ ____
ROOT
ATOM      1  N   UNL     1       4.404   4.059  18.228  0.00  0.00    +0.000 N 
ENDROOT
BRANCH   1   6
ATOM      2  C   UNL     1       7.524   5.257  13.683  0.00  0.00    +0.000 C 
ATOM      3  C   UNL     1       6.845   4.654  14.875  0.00  0.00    +0.000 A 
ATOM      4  C   UNL     1       5.607   4.027  14.741  0.00  0.00    +0.000 A 
ATOM      5  C   UNL     1       4.864   3.723  15.879  0.00  0.00    +0.000 A 
ATOM      6  C   UNL     1       5.317   4.044  17.170  0.00  0.00    +0.000 A 
ATOM      7  C   UNL     1       6.653   4.439  17.287  0.00  0.00    +0.000 A 
ATOM      8  C   UNL     1       7.397   4.784  16.151  0.00  0.00    +0.000 A 
ENDBRANCH   1   6
BRANCH   1   9
ATOM      9  C   UNL     1       3.846   2.831  18.820  0.00  0.00    +0.000 C 
BRANCH   9  10
ATOM     10  C   UNL     1       2.846   2.897  19.922  0.00  0.00    +0.000 A 
ATOM     11  N   UNL     1       1.540   3.057  19.807  0.00  0.00    +0.000 NA
ATOM     12  N   UNL     1       1.027   2.972  21.077  0.00  0.00    +0.000 NA
ATOM     13  N   UNL     1       1.990   2.765  21.962  0.00  0.00    +0.000 NA
ATOM     14  N   UNL     1       3.123   2.746  21.248  0.00  0.00    +0.000 N 
ATOM     15  H   UNL     1       4.009   2.607  21.720  0.00  0.00    +0.000 HD
ENDBRANCH   9  10
ENDBRANCH   1   9
BRANCH   1  16
ATOM     16  C   UNL     1       4.551   5.228  19.125  0.00  0.00    +0.000 C 
BRANCH  16  17
ATOM     17  C   UNL     1       3.447   6.265  19.005  0.00  0.00    +0.000 A 
ATOM     18  C   UNL     1       2.490   6.427  20.023  0.00  0.00    +0.000 A 
ATOM     19  C   UNL     1       1.645   7.538  20.046  0.00  0.00    +0.000 A 
ATOM     20  C   UNL     1       1.731   8.494  19.040  0.00  0.00    +0.000 A 
ATOM     21 CL   UNL     1       0.779   9.923  19.137  0.00  0.00    +0.000 Cl
ATOM     22  C   UNL     1       2.602   8.314  17.972  0.00  0.00    +0.000 A 
ATOM     23  C   UNL     1       3.449   7.201  17.952  0.00  0.00    +0.000 A 
ATOM     24 CL   UNL     1       4.503   7.046  16.589  0.00  0.00    +0.000 Cl
ENDBRANCH  16  17
ENDBRANCH   1  16
TORSDOF 5
ENDMDL
MODEL 7
REMARK VINA RESULT:      -7.5      1.354      2.049
REMARK  Name = 
REMARK  6 active torsions:
REMARK  status: ('A' for Active; 'I' for Inactive)
REMARK    1  A    between atoms: C_1  and  C_2
REMARK    2  A    between atoms: C_5  and  N_6
REMARK    3  A    between atoms: N_6  and  C_7
REMARK    4  A    between atoms: N_6  and  C_13
REMARK    5  A    between atoms: C_7  and  C_8
REMARK    6  A    between atoms: C_13  and  C_14
REMARK                            x       y       z     vdW  Elec       q    Type
REMARK                         _______ _______ _______ _____ _____    ______ ____
ROOT
ATOM      1  N   UNL     1       2.328   5.842  18.686  0.00  0.00    +0.000 N 
ENDROOT
BRANCH   1   6
ATOM      2  C   UNL     1       7.329   4.463  16.468  0.00  0.00    +0.000 C 
ATOM      3  C   UNL     1       5.917   4.879  16.750  0.00  0.00    +0.000 A 
ATOM      4  C   UNL     1       5.618   6.205  17.058  0.00  0.00    +0.000 A 
ATOM      5  C   UNL     1       4.369   6.524  17.585  0.00  0.00    +0.000 A 
ATOM      6  C   UNL     1       3.396   5.541  17.836  0.00  0.00    +0.000 A 
ATOM      7  C   UNL     1       3.627   4.274  17.292  0.00  0.00    +0.000 A 
ATOM      8  C   UNL     1       4.891   3.932  16.793  0.00  0.00    +0.000 A 
ENDBRANCH   1   6
BRANCH   1   9
ATOM      9  C   UNL     1       1.357   4.831  19.139  0.00  0.00    +0.000 C 
BRANCH   9  10
ATOM     10  C   UNL     1       1.657   3.947  20.300  0.00  0.00    +0.000 A 
ATOM     11  N   UNL     1       2.774   3.905  21.004  0.00  0.00    +0.000 NA
ATOM     12  N   UNL     1       2.557   3.004  22.017  0.00  0.00    +0.000 NA
ATOM     13  N   UNL     1       1.335   2.499  21.946  0.00  0.00    +0.000 NA
ATOM     14  N   UNL     1       0.785   3.064  20.864  0.00  0.00    +0.000 N 
ATOM     15  H   UNL     1      -0.162   2.820  20.600  0.00  0.00    +0.000 HD
ENDBRANCH   9  10
ENDBRANCH   1   9
BRANCH   1  16
ATOM     16  C   UNL     1       2.599   6.970  19.606  0.00  0.00    +0.000 C 
BRANCH  16  17
ATOM     17  C   UNL     1       1.801   8.231  19.319  0.00  0.00    +0.000 A 
ATOM     18  C   UNL     1       1.623   8.694  18.003  0.00  0.00    +0.000 A 
ATOM     19  C   UNL     1       0.684   9.685  17.710  0.00  0.00    +0.000 A 
ATOM     20  C   UNL     1      -0.077  10.242  18.731  0.00  0.00    +0.000 A 
ATOM     21 CL   UNL     1      -1.319  11.369  18.352  0.00  0.00    +0.000 Cl
ATOM     22  C   UNL     1       0.142   9.871  20.053  0.00  0.00    +0.000 A 
ATOM     23  C   UNL     1       1.082   8.878  20.345  0.00  0.00    +0.000 A 
ATOM     24 CL   UNL     1       1.299   8.473  22.013  0.00  0.00    +0.000 Cl
ENDBRANCH  16  17
ENDBRANCH   1  16
TORSDOF 5
ENDMDL
MODEL 8
REMARK VINA RESULT:      -7.5      2.796      6.261
REMARK  Name = 
REMARK  6 active torsions:
REMARK  status: ('A' for Active; 'I' for Inactive)
REMARK    1  A    between atoms: C_1  and  C_2
REMARK    2  A    between atoms: C_5  and  N_6
REMARK    3  A    between atoms: N_6  and  C_7
REMARK    4  A    between atoms: N_6  and  C_13
REMARK    5  A    between atoms: C_7  and  C_8
REMARK    6  A    between atoms: C_13  and  C_14
REMARK                            x       y       z     vdW  Elec       q    Type
REMARK                         _______ _______ _______ _____ _____    ______ ____
ROOT
ATOM      1  N   UNL     1       2.633   6.314  18.858  0.00  0.00    +0.000 N 
ENDROOT
BRANCH   1   6
ATOM      2  C   UNL     1      -0.214  11.171  19.220  0.00  0.00    +0.000 C 
ATOM      3  C   UNL     1       0.787  10.055  19.238  0.00  0.00    +0.000 A 
ATOM      4  C   UNL     1       1.524   9.749  18.096  0.00  0.00    +0.000 A 
ATOM      5  C   UNL     1       2.236   8.553  18.039  0.00  0.00    +0.000 A 
ATOM      6  C   UNL     1       2.222   7.628  19.097  0.00  0.00    +0.000 A 
ATOM      7  C   UNL     1       1.686   8.069  20.310  0.00  0.00    +0.000 A 
ATOM      8  C   UNL     1       0.937   9.252  20.371  0.00  0.00    +0.000 A 
ENDBRANCH   1   6
BRANCH   1   9
ATOM      9  C   UNL     1       1.799   5.331  18.145  0.00  0.00    +0.000 C 
BRANCH   9  10
ATOM     10  C   UNL     1       1.435   4.032  18.776  0.00  0.00    +0.000 A 
ATOM     11  N   UNL     1       1.149   2.899  18.162  0.00  0.00    +0.000 NA
ATOM     12  N   UNL     1       0.962   1.962  19.148  0.00  0.00    +0.000 NA
ATOM     13  N   UNL     1       1.128   2.499  20.347  0.00  0.00    +0.000 NA
ATOM     14  N   UNL     1       1.396   3.791  20.117  0.00  0.00    +0.000 N 
ATOM     15  H   UNL     1       1.555   4.415  20.899  0.00  0.00    +0.000 HD
ENDBRANCH   9  10
ENDBRANCH   1   9
BRANCH   1  16
ATOM     16  C   UNL     1       4.101   6.162  18.732  0.00  0.00    +0.000 C 
BRANCH  16  17
ATOM     17  C   UNL     1       4.573   5.631  17.389  0.00  0.00    +0.000 A 
ATOM     18  C   UNL     1       4.776   6.493  16.297  0.00  0.00    +0.000 A 
ATOM     19  C   UNL     1       5.454   6.061  15.155  0.00  0.00    +0.000 A 
ATOM     20  C   UNL     1       5.921   4.754  15.080  0.00  0.00    +0.000 A 
ATOM     21 CL   UNL     1       6.864   4.262  13.729  0.00  0.00    +0.000 Cl
ATOM     22  C   UNL     1       5.654   3.853  16.104  0.00  0.00    +0.000 A 
ATOM     23  C   UNL     1       4.976   4.288  17.247  0.00  0.00    +0.000 A 
ATOM     24 CL   UNL     1       4.680   3.106  18.476  0.00  0.00    +0.000 Cl
ENDBRANCH  16  17
ENDBRANCH   1  16
TORSDOF 5
ENDMDL
MODEL 9
REMARK VINA RESULT:      -7.5      2.718      5.943
REMARK  Name = 
REMARK  6 active torsions:
REMARK  status: ('A' for Active; 'I' for Inactive)
REMARK    1  A    between atoms: C_1  and  C_2
REMARK    2  A    between atoms: C_5  and  N_6
REMARK    3  A    between atoms: N_6  and  C_7
REMARK    4  A    between atoms: N_6  and  C_13
REMARK    5  A    between atoms: C_7  and  C_8
REMARK    6  A    between atoms: C_13  and  C_14
REMARK                            x       y       z     vdW  Elec       q    Type
REMARK                         _______ _______ _______ _____ _____    ______ ____
ROOT
ATOM      1  N   UNL     1       2.883   6.149  19.524  0.00  0.00    +0.000 N 
ENDROOT
BRANCH   1   6
ATOM      2  C   UNL     1      -0.432  10.598  18.499  0.00  0.00    +0.000 C 
ATOM      3  C   UNL     1       0.671   9.640  18.834  0.00  0.00    +0.000 A 
ATOM      4  C   UNL     1       1.473   9.106  17.827  0.00  0.00    +0.000 A 
ATOM      5  C   UNL     1       2.299   8.020  18.109  0.00  0.00    +0.000 A 
ATOM      6  C   UNL     1       2.339   7.429  19.384  0.00  0.00    +0.000 A 
ATOM      7  C   UNL     1       1.721   8.131  20.423  0.00  0.00    +0.000 A 
ATOM      8  C   UNL     1       0.860   9.201  20.147  0.00  0.00    +0.000 A 
ENDBRANCH   1   6
BRANCH   1   9
ATOM      9  C   UNL     1       2.089   4.919  19.354  0.00  0.00    +0.000 C 
BRANCH   9  10
ATOM     10  C   UNL     1       1.981   3.919  20.452  0.00  0.00    +0.000 A 
ATOM     11  N   UNL     1       2.935   3.538  21.282  0.00  0.00    +0.000 NA
ATOM     12  N   UNL     1       2.351   2.668  22.169  0.00  0.00    +0.000 NA
ATOM     13  N   UNL     1       1.064   2.512  21.899  0.00  0.00    +0.000 NA
ATOM     14  N   UNL     1       0.840   3.268  20.816  0.00  0.00    +0.000 N 
ATOM     15  H   UNL     1      -0.089   3.301  20.413  0.00  0.00    +0.000 HD
ENDBRANCH   9  10
ENDBRANCH   1   9
BRANCH   1  16
ATOM     16  C   UNL     1       4.320   6.072  19.176  0.00  0.00    +0.000 C 
BRANCH  16  17
ATOM     17  C   UNL     1       4.609   5.573  17.770  0.00  0.00    +0.000 A 
ATOM     18  C   UNL     1       4.678   6.463  16.683  0.00  0.00    +0.000 A 
ATOM     19  C   UNL     1       5.199   6.057  15.453  0.00  0.00    +0.000 A 
ATOM     20  C   UNL     1       5.638   4.749  15.284  0.00  0.00    +0.000 A 
ATOM     21 CL   UNL     1       6.394   4.287  13.810  0.00  0.00    +0.000 Cl
ATOM     22  C   UNL     1       5.496   3.822  16.311  0.00  0.00    +0.000 A 
ATOM     23  C   UNL     1       4.976   4.231  17.543  0.00  0.00    +0.000 A 
ATOM     24 CL   UNL     1       4.828   3.019  18.769  0.00  0.00    +0.000 Cl
ENDBRANCH  16  17
ENDBRANCH   1  16
TORSDOF 5
ENDMDL
