MODEL 1
REMARK VINA RESULT:      -7.6      0.000      0.000
REMARK  Name = 
REMARK  5 active torsions:
REMARK  status: ('A' for Active; 'I' for Inactive)
REMARK    1  A    between atoms: C_10  and  C_11
REMARK    2  A    between atoms: N_17  and  C_18
REMARK    3  A    between atoms: C_18  and  C_19
REMARK    4  A    between atoms: C_19  and  C_20
REMARK    5  A    between atoms: C_20  and  N_21
REMARK                            x       y       z     vdW  Elec       q    Type
REMARK                         _______ _______ _______ _____ _____    ______ ____
ROOT
ATOM      1  O   UNL     1       7.416   6.376  16.461  0.00  0.00    +0.000 OA
ATOM      2  C   UNL     1       6.614   5.509  16.112  0.00  0.00    +0.000 A 
ATOM      3  C   UNL     1       6.677   5.010  14.736  0.00  0.00    +0.000 A 
ATOM      4  C   UNL     1       7.661   5.447  13.841  0.00  0.00    +0.000 A 
ATOM      5  C   UNL     1       7.718   4.905  12.557  0.00  0.00    +0.000 A 
ATOM      6  C   UNL     1       6.787   3.940  12.174  0.00  0.00    +0.000 A 
ATOM      7  C   UNL     1       5.797   3.529  13.072  0.00  0.00    +0.000 A 
ATOM      8  C   UNL     1       5.739   4.062  14.363  0.00  0.00    +0.000 A 
ATOM      9  N   UNL     1       4.751   3.612  15.235  0.00  0.00    +0.000 NA
ATOM     10  C   UNL     1       4.708   4.025  16.469  0.00  0.00    +0.000 A 
ATOM     11  N   UNL     1       5.645   4.950  16.968  0.00  0.00    +0.000 N 
ENDROOT
BRANCH  10  12
ATOM     12  C   UNL     1       3.580   3.425  17.290  0.00  0.00    +0.000 A 
ATOM     13  C   UNL     1       2.264   3.887  17.297  0.00  0.00    +0.000 A 
ATOM     14  C   UNL     1       1.311   3.391  18.194  0.00  0.00    +0.000 A 
ATOM     15  C   UNL     1       1.667   2.432  19.129  0.00  0.00    +0.000 A 
ATOM     16  C   UNL     1       2.972   1.949  19.149  0.00  0.00    +0.000 A 
ATOM     17  C   UNL     1       3.914   2.435  18.233  0.00  0.00    +0.000 A 
ENDBRANCH  10  12
BRANCH  11  18
ATOM     18  C   UNL     1       5.639   5.548  18.309  0.00  0.00    +0.000 C 
BRANCH  18  19
ATOM     19  C   UNL     1       4.345   6.288  18.692  0.00  0.00    +0.000 C 
BRANCH  19  20
ATOM     20  C   UNL     1       3.737   7.249  17.674  0.00  0.00    +0.000 C 
BRANCH  20  21
ATOM     21  N   UNL     1       2.648   7.988  18.308  0.00  0.00    +0.000 N 
ATOM     22  C   UNL     1       2.119   7.743  19.546  0.00  0.00    +0.000 A 
ATOM     23  C   UNL     1       1.249   8.785  19.772  0.00  0.00    +0.000 A 
ATOM     24  N   UNL     1       1.230   9.641  18.703  0.00  0.00    +0.000 NA
ATOM     25  C   UNL     1       2.076   9.135  17.832  0.00  0.00    +0.000 A 
ENDBRANCH  20  21
ENDBRANCH  19  20
ENDBRANCH  18  19
ENDBRANCH  11  18
TORSDOF 5
ENDMDL
MODEL 2
REMARK VINA RESULT:      -7.6      2.285      6.164
REMARK  Name = 
REMARK  5 active torsions:
REMARK  status: ('A' for Active; 'I' for Inactive)
REMARK    1  A    between atoms: C_10  and  C_11
REMARK    2  A    between atoms: N_17  and  C_18
REMARK    3  A    between atoms: C_18  and  C_19
REMARK    4  A    between atoms: C_19  and  C_20
REMARK    5  A    between atoms: C_20  and  N_21
REMARK                            x       y       z     vdW  Elec       q    Type
REMARK                         _______ _______ _______ _____ _____    ______ ____
ROOT
ATOM      1  O   UNL     1       2.980   5.433  20.611  0.00  0.00    +0.000 OA
ATOM      2  C   UNL     1       3.224   5.984  19.537  0.00  0.00    +0.000 A 
ATOM      3  C   UNL     1       2.549   7.249  19.230  0.00  0.00    +0.000 A 
ATOM      4  C   UNL     1       1.693   7.866  20.150  0.00  0.00    +0.000 A 
ATOM      5  C   UNL     1       1.115   9.096  19.838  0.00  0.00    +0.000 A 
ATOM      6  C   UNL     1       1.386   9.694  18.609  0.00  0.00    +0.000 A 
ATOM      7  C   UNL     1       2.226   9.055  17.692  0.00  0.00    +0.000 A 
ATOM      8  C   UNL     1       2.817   7.826  18.000  0.00  0.00    +0.000 A 
ATOM      9  N   UNL     1       3.664   7.231  17.069  0.00  0.00    +0.000 NA
ATOM     10  C   UNL     1       4.293   6.126  17.346  0.00  0.00    +0.000 A 
ATOM     11  N   UNL     1       4.134   5.481  18.587  0.00  0.00    +0.000 N 
ENDROOT
BRANCH  10  12
ATOM     12  C   UNL     1       5.190   5.620  16.229  0.00  0.00    +0.000 A 
ATOM     13  C   UNL     1       4.769   4.819  15.168  0.00  0.00    +0.000 A 
ATOM     14  C   UNL     1       5.673   4.257  14.261  0.00  0.00    +0.000 A 
ATOM     15  C   UNL     1       7.035   4.466  14.416  0.00  0.00    +0.000 A 
ATOM     16  C   UNL     1       7.489   5.260  15.464  0.00  0.00    +0.000 A 
ATOM     17  C   UNL     1       6.574   5.837  16.355  0.00  0.00    +0.000 A 
ENDBRANCH  10  12
BRANCH  11  18
ATOM     18  C   UNL     1       4.722   4.192  18.973  0.00  0.00    +0.000 C 
BRANCH  18  19
ATOM     19  C   UNL     1       4.208   2.973  18.186  0.00  0.00    +0.000 C 
BRANCH  19  20
ATOM     20  C   UNL     1       3.681   1.778  18.974  0.00  0.00    +0.000 C 
BRANCH  20  21
ATOM     21  N   UNL     1       2.505   2.191  19.737  0.00  0.00    +0.000 N 
ATOM     22  C   UNL     1       2.416   2.277  21.100  0.00  0.00    +0.000 A 
ATOM     23  C   UNL     1       1.194   2.862  21.338  0.00  0.00    +0.000 A 
ATOM     24  N   UNL     1       0.541   3.117  20.162  0.00  0.00    +0.000 NA
ATOM     25  C   UNL     1       1.349   2.698  19.213  0.00  0.00    +0.000 A 
ENDBRANCH  20  21
ENDBRANCH  19  20
ENDBRANCH  18  19
ENDBRANCH  11  18
TORSDOF 5
ENDMDL
MODEL 3
REMARK VINA RESULT:      -7.5      2.611      7.144
REMARK  Name = 
REMARK  5 active torsions:
REMARK  status: ('A' for Active; 'I' for Inactive)
REMARK    1  A    between atoms: C_10  and  C_11
REMARK    2  A    between atoms: N_17  and  C_18
REMARK    3  A    between atoms: C_18  and  C_19
REMARK    4  A    between atoms: C_19  and  C_20
REMARK    5  A    between atoms: C_20  and  N_21
REMARK                            x       y       z     vdW  Elec       q    Type
REMARK                         _______ _______ _______ _____ _____    ______ ____
ROOT
ATOM      1  O   UNL     1       2.249   2.964  16.700  0.00  0.00    +0.000 OA
ATOM      2  C   UNL     1       2.810   3.558  17.621  0.00  0.00    +0.000 A 
ATOM      3  C   UNL     1       2.243   3.456  18.969  0.00  0.00    +0.000 A 
ATOM      4  C   UNL     1       1.127   2.654  19.236  0.00  0.00    +0.000 A 
ATOM      5  C   UNL     1       0.653   2.543  20.543  0.00  0.00    +0.000 A 
ATOM      6  C   UNL     1       1.289   3.240  21.569  0.00  0.00    +0.000 A 
ATOM      7  C   UNL     1       2.389   4.054  21.283  0.00  0.00    +0.000 A 
ATOM      8  C   UNL     1       2.876   4.164  19.977  0.00  0.00    +0.000 A 
ATOM      9  N   UNL     1       3.987   4.968  19.735  0.00  0.00    +0.000 NA
ATOM     10  C   UNL     1       4.517   5.038  18.549  0.00  0.00    +0.000 A 
ATOM     11  N   UNL     1       3.985   4.320  17.461  0.00  0.00    +0.000 N 
ENDROOT
BRANCH  10  12
ATOM     12  C   UNL     1       5.732   5.946  18.460  0.00  0.00    +0.000 A 
ATOM     13  C   UNL     1       5.869   7.011  17.571  0.00  0.00    +0.000 A 
ATOM     14  C   UNL     1       7.075   7.707  17.431  0.00  0.00    +0.000 A 
ATOM     15  C   UNL     1       8.187   7.329  18.167  0.00  0.00    +0.000 A 
ATOM     16  C   UNL     1       8.084   6.270  19.065  0.00  0.00    +0.000 A 
ATOM     17  C   UNL     1       6.866   5.593  19.214  0.00  0.00    +0.000 A 
ENDBRANCH  10  12
BRANCH  11  18
ATOM     18  C   UNL     1       4.445   4.391  16.069  0.00  0.00    +0.000 C 
BRANCH  18  19
ATOM     19  C   UNL     1       5.776   3.672  15.781  0.00  0.00    +0.000 C 
BRANCH  19  20
ATOM     20  C   UNL     1       6.921   4.487  15.187  0.00  0.00    +0.000 C 
BRANCH  20  21
ATOM     21  N   UNL     1       6.867   4.393  13.730  0.00  0.00    +0.000 N 
ATOM     22  C   UNL     1       7.649   5.088  12.847  0.00  0.00    +0.000 A 
ATOM     23  C   UNL     1       7.355   4.549  11.615  0.00  0.00    +0.000 A 
ATOM     24  N   UNL     1       6.413   3.563  11.730  0.00  0.00    +0.000 NA
ATOM     25  C   UNL     1       6.131   3.493  13.013  0.00  0.00    +0.000 A 
ENDBRANCH  20  21
ENDBRANCH  19  20
ENDBRANCH  18  19
ENDBRANCH  11  18
TORSDOF 5
ENDMDL
MODEL 4
REMARK VINA RESULT:      -7.5      2.858      7.080
REMARK  Name = 
REMARK  5 active torsions:
REMARK  status: ('A' for Active; 'I' for Inactive)
REMARK    1  A    between atoms: C_10  and  C_11
REMARK    2  A    between atoms: N_17  and  C_18
REMARK    3  A    between atoms: C_18  and  C_19
REMARK    4  A    between atoms: C_19  and  C_20
REMARK    5  A    between atoms: C_20  and  N_21
REMARK                            x       y       z     vdW  Elec       q    Type
REMARK                         _______ _______ _______ _____ _____    ______ ____
ROOT
ATOM      1  O   UNL     1       1.913   9.612  17.616  0.00  0.00    +0.000 OA
ATOM      2  C   UNL     1       1.757   8.910  18.616  0.00  0.00    +0.000 A 
ATOM      3  C   UNL     1       1.159   9.516  19.810  0.00  0.00    +0.000 A 
ATOM      4  C   UNL     1       0.709  10.842  19.813  0.00  0.00    +0.000 A 
ATOM      5  C   UNL     1       0.097  11.361  20.953  0.00  0.00    +0.000 A 
ATOM      6  C   UNL     1      -0.052  10.558  22.083  0.00  0.00    +0.000 A 
ATOM      7  C   UNL     1       0.422   9.243  22.072  0.00  0.00    +0.000 A 
ATOM      8  C   UNL     1       1.029   8.712  20.930  0.00  0.00    +0.000 A 
ATOM      9  N   UNL     1       1.470   7.391  20.951  0.00  0.00    +0.000 NA
ATOM     10  C   UNL     1       1.970   6.835  19.886  0.00  0.00    +0.000 A 
ATOM     11  N   UNL     1       2.102   7.546  18.678  0.00  0.00    +0.000 N 
ENDROOT
BRANCH  10  12
ATOM     12  C   UNL     1       2.385   5.386  20.074  0.00  0.00    +0.000 A 
ATOM     13  C   UNL     1       3.634   4.864  19.740  0.00  0.00    +0.000 A 
ATOM     14  C   UNL     1       3.900   3.491  19.790  0.00  0.00    +0.000 A 
ATOM     15  C   UNL     1       2.900   2.602  20.152  0.00  0.00    +0.000 A 
ATOM     16  C   UNL     1       1.642   3.089  20.492  0.00  0.00    +0.000 A 
ATOM     17  C   UNL     1       1.392   4.468  20.460  0.00  0.00    +0.000 A 
ENDBRANCH  10  12
BRANCH  11  18
ATOM     18  C   UNL     1       2.729   7.050  17.446  0.00  0.00    +0.000 C 
BRANCH  18  19
ATOM     19  C   UNL     1       4.259   7.205  17.381  0.00  0.00    +0.000 C 
BRANCH  19  20
ATOM     20  C   UNL     1       5.049   6.200  16.547  0.00  0.00    +0.000 C 
BRANCH  20  21
ATOM     21  N   UNL     1       6.245   5.804  17.286  0.00  0.00    +0.000 N 
ATOM     22  C   UNL     1       6.940   6.580  18.174  0.00  0.00    +0.000 A 
ATOM     23  C   UNL     1       7.871   5.733  18.731  0.00  0.00    +0.000 A 
ATOM     24  N   UNL     1       7.765   4.477  18.196  0.00  0.00    +0.000 NA
ATOM     25  C   UNL     1       6.783   4.548  17.323  0.00  0.00    +0.000 A 
ENDBRANCH  20  21
ENDBRANCH  19  20
ENDBRANCH  18  19
ENDBRANCH  11  18
TORSDOF 5
ENDMDL
MODEL 5
REMARK VINA RESULT:      -7.4      2.488      6.441
REMARK  Name = 
REMARK  5 active torsions:
REMARK  status: ('A' for Active; 'I' for Inactive)
REMARK    1  A    between atoms: C_10  and  C_11
REMARK    2  A    between atoms: N_17  and  C_18
REMARK    3  A    between atoms: C_18  and  C_19
REMARK    4  A    between atoms: C_19  and  C_20
REMARK    5  A    between atoms: C_20  and  N_21
REMARK                            x       y       z     vdW  Elec       q    Type
REMARK                         _______ _______ _______ _____ _____    ______ ____
ROOT
ATOM      1  O   UNL     1       2.236   5.880  20.625  0.00  0.00    +0.000 OA
ATOM      2  C   UNL     1       2.671   6.454  19.626  0.00  0.00    +0.000 A 
ATOM      3  C   UNL     1       2.116   7.763  19.273  0.00  0.00    +0.000 A 
ATOM      4  C   UNL     1       1.158   8.395  20.076  0.00  0.00    +0.000 A 
ATOM      5  C   UNL     1       0.696   9.665  19.732  0.00  0.00    +0.000 A 
ATOM      6  C   UNL     1       1.185  10.289  18.586  0.00  0.00    +0.000 A 
ATOM      7  C   UNL     1       2.125   9.637  17.782  0.00  0.00    +0.000 A 
ATOM      8  C   UNL     1       2.599   8.367  18.125  0.00  0.00    +0.000 A 
ATOM      9  N   UNL     1       3.550   7.759  17.310  0.00  0.00    +0.000 NA
ATOM     10  C   UNL     1       4.074   6.612  17.633  0.00  0.00    +0.000 A 
ATOM     11  N   UNL     1       3.692   5.934  18.806  0.00  0.00    +0.000 N 
ENDROOT
BRANCH  10  12
ATOM     12  C   UNL     1       5.107   6.096  16.646  0.00  0.00    +0.000 A 
ATOM     13  C   UNL     1       4.813   5.457  15.443  0.00  0.00    +0.000 A 
ATOM     14  C   UNL     1       5.807   4.866  14.656  0.00  0.00    +0.000 A 
ATOM     15  C   UNL     1       7.128   4.879  15.078  0.00  0.00    +0.000 A 
ATOM     16  C   UNL     1       7.456   5.509  16.274  0.00  0.00    +0.000 A 
ATOM     17  C   UNL     1       6.457   6.118  17.044  0.00  0.00    +0.000 A 
ENDBRANCH  10  12
BRANCH  11  18
ATOM     18  C   UNL     1       4.149   4.602  19.223  0.00  0.00    +0.000 C 
BRANCH  18  19
ATOM     19  C   UNL     1       3.877   3.470  18.215  0.00  0.00    +0.000 C 
BRANCH  19  20
ATOM     20  C   UNL     1       3.211   2.196  18.727  0.00  0.00    +0.000 C 
BRANCH  20  21
ATOM     21  N   UNL     1       2.599   2.467  20.026  0.00  0.00    +0.000 N 
ATOM     22  C   UNL     1       1.267   2.669  20.265  0.00  0.00    +0.000 A 
ATOM     23  C   UNL     1       1.157   2.716  21.636  0.00  0.00    +0.000 A 
ATOM     24  N   UNL     1       2.382   2.563  22.226  0.00  0.00    +0.000 NA
ATOM     25  C   UNL     1       3.235   2.422  21.235  0.00  0.00    +0.000 A 
ENDBRANCH  20  21
ENDBRANCH  19  20
ENDBRANCH  18  19
ENDBRANCH  11  18
TORSDOF 5
ENDMDL
MODEL 6
REMARK VINA RESULT:      -7.4      2.240      6.126
REMARK  Name = 
REMARK  5 active torsions:
REMARK  status: ('A' for Active; 'I' for Inactive)
REMARK    1  A    between atoms: C_10  and  C_11
REMARK    2  A    between atoms: N_17  and  C_18
REMARK    3  A    between atoms: C_18  and  C_19
REMARK    4  A    between atoms: C_19  and  C_20
REMARK    5  A    between atoms: C_20  and  N_21
REMARK                            x       y       z     vdW  Elec       q    Type
REMARK                         _______ _______ _______ _____ _____    ______ ____
ROOT
ATOM      1  O   UNL     1       3.005   5.315  20.698  0.00  0.00    +0.000 OA
ATOM      2  C   UNL     1       3.287   5.830  19.616  0.00  0.00    +0.000 A 
ATOM      3  C   UNL     1       2.635   7.090  19.249  0.00  0.00    +0.000 A 
ATOM      4  C   UNL     1       1.758   7.744  20.122  0.00  0.00    +0.000 A 
ATOM      5  C   UNL     1       1.202   8.969  19.754  0.00  0.00    +0.000 A 
ATOM      6  C   UNL     1       1.517   9.526  18.516  0.00  0.00    +0.000 A 
ATOM      7  C   UNL     1       2.378   8.850  17.646  0.00  0.00    +0.000 A 
ATOM      8  C   UNL     1       2.946   7.626  18.010  0.00  0.00    +0.000 A 
ATOM      9  N   UNL     1       3.815   6.994  17.125  0.00  0.00    +0.000 NA
ATOM     10  C   UNL     1       4.424   5.893  17.455  0.00  0.00    +0.000 A 
ATOM     11  N   UNL     1       4.220   5.288  18.710  0.00  0.00    +0.000 N 
ENDROOT
BRANCH  10  12
ATOM     12  C   UNL     1       5.349   5.344  16.383  0.00  0.00    +0.000 A 
ATOM     13  C   UNL     1       6.715   5.608  16.295  0.00  0.00    +0.000 A 
ATOM     14  C   UNL     1       7.479   5.202  15.195  0.00  0.00    +0.000 A 
ATOM     15  C   UNL     1       6.877   4.538  14.137  0.00  0.00    +0.000 A 
ATOM     16  C   UNL     1       5.515   4.258  14.193  0.00  0.00    +0.000 A 
ATOM     17  C   UNL     1       4.763   4.650  15.308  0.00  0.00    +0.000 A 
ENDBRANCH  10  12
BRANCH  11  18
ATOM     18  C   UNL     1       4.784   4.007  19.155  0.00  0.00    +0.000 C 
BRANCH  18  19
ATOM     19  C   UNL     1       4.409   2.790  18.289  0.00  0.00    +0.000 C 
BRANCH  19  20
ATOM     20  C   UNL     1       3.648   1.644  18.949  0.00  0.00    +0.000 C 
BRANCH  20  21
ATOM     21  N   UNL     1       2.387   2.154  19.482  0.00  0.00    +0.000 N 
ATOM     22  C   UNL     1       2.063   2.285  20.805  0.00  0.00    +0.000 A 
ATOM     23  C   UNL     1       0.861   2.954  20.810  0.00  0.00    +0.000 A 
ATOM     24  N   UNL     1       0.446   3.217  19.532  0.00  0.00    +0.000 NA
ATOM     25  C   UNL     1       1.380   2.719  18.751  0.00  0.00    +0.000 A 
ENDBRANCH  20  21
ENDBRANCH  19  20
ENDBRANCH  18  19
ENDBRANCH  11  18
TORSDOF 5
ENDMDL
MODEL 7
REMARK VINA RESULT:      -7.3      0.530      1.102
REMARK  Name = 
REMARK  5 active torsions:
REMARK  status: ('A' for Active; 'I' for Inactive)
REMARK    1  A    between atoms: C_10  and  C_11
REMARK    2  A    between atoms: N_17  and  C_18
REMARK    3  A    between atoms: C_18  and  C_19
REMARK    4  A    between atoms: C_19  and  C_20
REMARK    5  A    between atoms: C_20  and  N_21
REMARK                            x       y       z     vdW  Elec       q    Type
REMARK                         _______ _______ _______ _____ _____    ______ ____
ROOT
ATOM      1  O   UNL     1       7.507   6.331  16.346  0.00  0.00    +0.000 OA
ATOM      2  C   UNL     1       6.683   5.469  16.036  0.00  0.00    +0.000 A 
ATOM      3  C   UNL     1       6.703   4.943  14.668  0.00  0.00    +0.000 A 
ATOM      4  C   UNL     1       7.668   5.349  13.739  0.00  0.00    +0.000 A 
ATOM      5  C   UNL     1       7.683   4.782  12.465  0.00  0.00    +0.000 A 
ATOM      6  C   UNL     1       6.730   3.823  12.125  0.00  0.00    +0.000 A 
ATOM      7  C   UNL     1       5.759   3.443  13.057  0.00  0.00    +0.000 A 
ATOM      8  C   UNL     1       5.742   4.001  14.339  0.00  0.00    +0.000 A 
ATOM      9  N   UNL     1       4.772   3.582  15.246  0.00  0.00    +0.000 NA
ATOM     10  C   UNL     1       4.768   4.019  16.472  0.00  0.00    +0.000 A 
ATOM     11  N   UNL     1       5.730   4.941  16.927  0.00  0.00    +0.000 N 
ENDROOT
BRANCH  10  12
ATOM     12  C   UNL     1       3.654   3.451  17.334  0.00  0.00    +0.000 A 
ATOM     13  C   UNL     1       3.721   2.245  18.032  0.00  0.00    +0.000 A 
ATOM     14  C   UNL     1       2.606   1.702  18.679  0.00  0.00    +0.000 A 
ATOM     15  C   UNL     1       1.381   2.348  18.616  0.00  0.00    +0.000 A 
ATOM     16  C   UNL     1       1.279   3.553  17.927  0.00  0.00    +0.000 A 
ATOM     17  C   UNL     1       2.407   4.101  17.301  0.00  0.00    +0.000 A 
ENDBRANCH  10  12
BRANCH  11  18
ATOM     18  C   UNL     1       5.769   5.564  18.256  0.00  0.00    +0.000 C 
BRANCH  18  19
ATOM     19  C   UNL     1       4.798   6.741  18.457  0.00  0.00    +0.000 C 
BRANCH  19  20
ATOM     20  C   UNL     1       3.510   6.487  19.237  0.00  0.00    +0.000 C 
BRANCH  20  21
ATOM     21  N   UNL     1       2.572   7.575  18.975  0.00  0.00    +0.000 N 
ATOM     22  C   UNL     1       1.757   8.178  19.895  0.00  0.00    +0.000 A 
ATOM     23  C   UNL     1       1.192   9.239  19.225  0.00  0.00    +0.000 A 
ATOM     24  N   UNL     1       1.632   9.284  17.929  0.00  0.00    +0.000 NA
ATOM     25  C   UNL     1       2.456   8.268  17.802  0.00  0.00    +0.000 A 
ENDBRANCH  20  21
ENDBRANCH  19  20
ENDBRANCH  18  19
ENDBRANCH  11  18
TORSDOF 5
ENDMDL
MODEL 8
REMARK VINA RESULT:      -7.3      2.696      7.252
REMARK  Name = 
REMARK  5 active torsions:
REMARK  status: ('A' for Active; 'I' for Inactive)
REMARK    1  A    between atoms: C_10  and  C_11
REMARK    2  A    between atoms: N_17  and  C_18
REMARK    3  A    between atoms: C_18  and  C_19
REMARK    4  A    between atoms: C_19  and  C_20
REMARK    5  A    between atoms: C_20  and  N_21
REMARK                            x       y       z     vdW  Elec       q    Type
REMARK                         _______ _______ _______ _____ _____    ______ ____
ROOT
ATOM      1  O   UNL     1       2.264   3.244  16.453  0.00  0.00    +0.000 OA
ATOM      2  C   UNL     1       2.900   3.743  17.381  0.00  0.00    +0.000 A 
ATOM      3  C   UNL     1       2.371   3.616  18.742  0.00  0.00    +0.000 A 
ATOM      4  C   UNL     1       1.203   2.890  19.010  0.00  0.00    +0.000 A 
ATOM      5  C   UNL     1       0.764   2.749  20.326  0.00  0.00    +0.000 A 
ATOM      6  C   UNL     1       1.487   3.340  21.361  0.00  0.00    +0.000 A 
ATOM      7  C   UNL     1       2.639   4.079  21.076  0.00  0.00    +0.000 A 
ATOM      8  C   UNL     1       3.090   4.218  19.760  0.00  0.00    +0.000 A 
ATOM      9  N   UNL     1       4.253   4.945  19.518  0.00  0.00    +0.000 NA
ATOM     10  C   UNL     1       4.749   5.035  18.318  0.00  0.00    +0.000 A 
ATOM     11  N   UNL     1       4.126   4.418  17.217  0.00  0.00    +0.000 N 
ENDROOT
BRANCH  10  12
ATOM     12  C   UNL     1       6.028   5.848  18.230  0.00  0.00    +0.000 A 
ATOM     13  C   UNL     1       7.148   5.666  19.042  0.00  0.00    +0.000 A 
ATOM     14  C   UNL     1       8.232   6.550  19.016  0.00  0.00    +0.000 A 
ATOM     15  C   UNL     1       8.205   7.662  18.189  0.00  0.00    +0.000 A 
ATOM     16  C   UNL     1       7.103   7.874  17.366  0.00  0.00    +0.000 A 
ATOM     17  C   UNL     1       6.031   6.971  17.382  0.00  0.00    +0.000 A 
ENDBRANCH  10  12
BRANCH  11  18
ATOM     18  C   UNL     1       4.546   4.525  15.814  0.00  0.00    +0.000 C 
BRANCH  18  19
ATOM     19  C   UNL     1       5.826   3.751  15.451  0.00  0.00    +0.000 C 
BRANCH  19  20
ATOM     20  C   UNL     1       6.560   4.135  14.170  0.00  0.00    +0.000 C 
BRANCH  20  21
ATOM     21  N   UNL     1       5.932   3.455  13.039  0.00  0.00    +0.000 N 
ATOM     22  C   UNL     1       4.684   3.707  12.538  0.00  0.00    +0.000 A 
ATOM     23  C   UNL     1       4.604   2.949  11.392  0.00  0.00    +0.000 A 
ATOM     24  N   UNL     1       5.759   2.242  11.197  0.00  0.00    +0.000 NA
ATOM     25  C   UNL     1       6.541   2.559  12.206  0.00  0.00    +0.000 A 
ENDBRANCH  20  21
ENDBRANCH  19  20
ENDBRANCH  18  19
ENDBRANCH  11  18
TORSDOF 5
ENDMDL
MODEL 9
REMARK VINA RESULT:      -7.3      2.151      7.030
REMARK  Name = 
REMARK  5 active torsions:
REMARK  status: ('A' for Active; 'I' for Inactive)
REMARK    1  A    between atoms: C_10  and  C_11
REMARK    2  A    between atoms: N_17  and  C_18
REMARK    3  A    between atoms: C_18  and  C_19
REMARK    4  A    between atoms: C_19  and  C_20
REMARK    5  A    between atoms: C_20  and  N_21
REMARK                            x       y       z     vdW  Elec       q    Type
REMARK                         _______ _______ _______ _____ _____    ______ ____
ROOT
ATOM      1  O   UNL     1       2.300   9.140  17.423  0.00  0.00    +0.000 OA
ATOM      2  C   UNL     1       1.983   8.572  18.470  0.00  0.00    +0.000 A 
ATOM      3  C   UNL     1       1.372   9.367  19.539  0.00  0.00    +0.000 A 
ATOM      4  C   UNL     1       1.087  10.728  19.372  0.00  0.00    +0.000 A 
ATOM      5  C   UNL     1       0.456  11.432  20.396  0.00  0.00    +0.000 A 
ATOM      6  C   UNL     1       0.123  10.778  21.581  0.00  0.00    +0.000 A 
ATOM      7  C   UNL     1       0.434   9.424  21.742  0.00  0.00    +0.000 A 
ATOM      8  C   UNL     1       1.059   8.708  20.716  0.00  0.00    +0.000 A 
ATOM      9  N   UNL     1       1.334   7.356  20.906  0.00  0.00    +0.000 NA
ATOM     10  C   UNL     1       1.845   6.636  19.951  0.00  0.00    +0.000 A 
ATOM     11  N   UNL     1       2.154   7.193  18.695  0.00  0.00    +0.000 N 
ENDROOT
BRANCH  10  12
ATOM     12  C   UNL     1       2.065   5.178  20.316  0.00  0.00    +0.000 A 
ATOM     13  C   UNL     1       3.309   4.553  20.389  0.00  0.00    +0.000 A 
ATOM     14  C   UNL     1       3.434   3.172  20.575  0.00  0.00    +0.000 A 
ATOM     15  C   UNL     1       2.302   2.377  20.666  0.00  0.00    +0.000 A 
ATOM     16  C   UNL     1       1.044   2.969  20.597  0.00  0.00    +0.000 A 
ATOM     17  C   UNL     1       0.929   4.355  20.432  0.00  0.00    +0.000 A 
ENDBRANCH  10  12
BRANCH  11  18
ATOM     18  C   UNL     1       2.810   6.499  17.580  0.00  0.00    +0.000 C 
BRANCH  18  19
ATOM     19  C   UNL     1       4.346   6.608  17.551  0.00  0.00    +0.000 C 
BRANCH  19  20
ATOM     20  C   UNL     1       5.161   5.330  17.727  0.00  0.00    +0.000 C 
BRANCH  20  21
ATOM     21  N   UNL     1       5.900   5.063  16.495  0.00  0.00    +0.000 N 
ATOM     22  C   UNL     1       5.399   4.482  15.362  0.00  0.00    +0.000 A 
ATOM     23  C   UNL     1       6.405   4.595  14.431  0.00  0.00    +0.000 A 
ATOM     24  N   UNL     1       7.499   5.215  14.973  0.00  0.00    +0.000 NA
ATOM     25  C   UNL     1       7.172   5.481  16.219  0.00  0.00    +0.000 A 
ENDBRANCH  20  21
ENDBRANCH  19  20
ENDBRANCH  18  19
ENDBRANCH  11  18
TORSDOF 5
ENDMDL
