MODEL 1
REMARK VINA RESULT:      -6.9      0.000      0.000
REMARK  Name = 
REMARK  14 active torsions:
REMARK  status: ('A' for Active; 'I' for Inactive)
REMARK    1  A    between atoms: C_1  and  O_2
REMARK    2  A    between atoms: O_2  and  C_3
REMARK    3  A    between atoms: C_3  and  C_4
REMARK    4  A    between atoms: C_4  and  C_5
REMARK    5  A    between atoms: C_5  and  N_6
REMARK    6  A    between atoms: C_7  and  C_9
REMARK    7  A    between atoms: C_9  and  C_10
REMARK    8  A    between atoms: C_10  and  N_11
REMARK    9  A    between atoms: C_10  and  C_22
REMARK   10  A    between atoms: N_11  and  S_12
REMARK   11  A    between atoms: S_12  and  C_15
REMARK   12  A    between atoms: C_18  and  C_19
REMARK   13  A    between atoms: C_25  and  O_26
REMARK   14  A    between atoms: O_26  and  C_27
REMARK                            x       y       z     vdW  Elec       q    Type
REMARK                         _______ _______ _______ _____ _____    ______ ____
ROOT
ATOM      1  C   UNL     1       3.059   5.940  17.708  0.00  0.00    +0.000 C 
ENDROOT
BRANCH   1   2
ATOM      2  C   UNL     1       2.462   7.067  18.533  0.00  0.00    +0.000 A 
ATOM      3  C   UNL     1       2.276   6.919  19.914  0.00  0.00    +0.000 A 
ATOM      4  C   UNL     1       1.668   7.922  20.664  0.00  0.00    +0.000 A 
ATOM      5  C   UNL     1       1.257   9.104  20.057  0.00  0.00    +0.000 A 
ATOM      6  C   UNL     1       1.460   9.283  18.689  0.00  0.00    +0.000 A 
ATOM      7  C   UNL     1       2.056   8.264  17.929  0.00  0.00    +0.000 A 
BRANCH   5   8
ATOM      8  O   UNL     1       0.617   9.977  20.891  0.00  0.00    +0.000 OA
ATOM      9  C   UNL     1      -0.245   9.399  21.859  0.00  0.00    +0.000 C 
ENDBRANCH   5   8
ENDBRANCH   1   2
BRANCH   1  10
ATOM     10  N   UNL     1       4.090   5.140  18.401  0.00  0.00    +0.000 NA
ATOM     11  H   UNL     1       3.881   4.144  18.454  0.00  0.00    +0.000 HD
BRANCH  10  12
ATOM     12  S   UNL     1       5.739   5.410  18.160  0.00  0.00    +0.000 S 
ATOM     13  O   UNL     1       6.056   6.820  18.199  0.00  0.00    +0.000 OA
ATOM     14  O   UNL     1       6.459   4.441  18.945  0.00  0.00    +0.000 OA
BRANCH  12  15
ATOM     15  C   UNL     1       5.894   4.898  16.463  0.00  0.00    +0.000 A 
ATOM     16  C   UNL     1       5.022   3.943  15.942  0.00  0.00    +0.000 A 
ATOM     17  C   UNL     1       5.197   3.506  14.632  0.00  0.00    +0.000 A 
ATOM     18  C   UNL     1       6.233   4.027  13.845  0.00  0.00    +0.000 A 
ATOM     19  C   UNL     1       6.482   3.510  12.460  0.00  0.00    +0.000 C 
ATOM     20  C   UNL     1       7.066   5.029  14.367  0.00  0.00    +0.000 A 
ATOM     21  C   UNL     1       6.896   5.471  15.674  0.00  0.00    +0.000 A 
ENDBRANCH  12  15
ENDBRANCH  10  12
ENDBRANCH   1  10
BRANCH   1  22
ATOM     22  C   UNL     1       1.913   5.026  17.198  0.00  0.00    +0.000 C 
BRANCH  22  24
ATOM     23  N   UNL     1       1.016   3.784  19.102  0.00  0.00    +0.000 N 
ATOM     24  C   UNL     1       1.759   3.705  17.942  0.00  0.00    +0.000 C 
ATOM     25  O   UNL     1       2.183   2.634  17.520  0.00  0.00    +0.000 OA
ATOM     26  H   UNL     1       0.657   4.671  19.425  0.00  0.00    +0.000 HD
BRANCH  23  27
ATOM     27  C   UNL     1       0.831   2.628  19.967  0.00  0.00    +0.000 C 
BRANCH  27  28
ATOM     28  C   UNL     1       1.330   2.870  21.393  0.00  0.00    +0.000 C 
BRANCH  28  29
ATOM     29  C   UNL     1       2.770   2.419  21.603  0.00  0.00    +0.000 C 
BRANCH  29  31
ATOM     30  C   UNL     1       4.536   1.982  20.100  0.00  0.00    +0.000 C 
ATOM     31  O   UNL     1       3.582   2.935  20.547  0.00  0.00    +0.000 OA
ENDBRANCH  29  31
ENDBRANCH  28  29
ENDBRANCH  27  28
ENDBRANCH  23  27
ENDBRANCH  22  24
ENDBRANCH   1  22
TORSDOF 11
ENDMDL
MODEL 2
REMARK VINA RESULT:      -6.8      0.570      1.423
REMARK  Name = 
REMARK  14 active torsions:
REMARK  status: ('A' for Active; 'I' for Inactive)
REMARK    1  A    between atoms: C_1  and  O_2
REMARK    2  A    between atoms: O_2  and  C_3
REMARK    3  A    between atoms: C_3  and  C_4
REMARK    4  A    between atoms: C_4  and  C_5
REMARK    5  A    between atoms: C_5  and  N_6
REMARK    6  A    between atoms: C_7  and  C_9
REMARK    7  A    between atoms: C_9  and  C_10
REMARK    8  A    between atoms: C_10  and  N_11
REMARK    9  A    between atoms: C_10  and  C_22
REMARK   10  A    between atoms: N_11  and  S_12
REMARK   11  A    between atoms: S_12  and  C_15
REMARK   12  A    between atoms: C_18  and  C_19
REMARK   13  A    between atoms: C_25  and  O_26
REMARK   14  A    between atoms: O_26  and  C_27
REMARK                            x       y       z     vdW  Elec       q    Type
REMARK                         _______ _______ _______ _____ _____    ______ ____
ROOT
ATOM      1  C   UNL     1       2.981   5.883  17.845  0.00  0.00    +0.000 C 
ENDROOT
BRANCH   1   2
ATOM      2  C   UNL     1       2.365   7.037  18.617  0.00  0.00    +0.000 A 
ATOM      3  C   UNL     1       2.062   8.245  17.974  0.00  0.00    +0.000 A 
ATOM      4  C   UNL     1       1.560   9.328  18.689  0.00  0.00    +0.000 A 
ATOM      5  C   UNL     1       1.326   9.221  20.056  0.00  0.00    +0.000 A 
ATOM      6  C   UNL     1       1.593   8.019  20.709  0.00  0.00    +0.000 A 
ATOM      7  C   UNL     1       2.117   6.932  19.991  0.00  0.00    +0.000 A 
BRANCH   5   8
ATOM      8  O   UNL     1       0.896  10.375  20.649  0.00  0.00    +0.000 OA
ATOM      9  C   UNL     1       0.470  11.408  19.773  0.00  0.00    +0.000 C 
ENDBRANCH   5   8
ENDBRANCH   1   2
BRANCH   1  10
ATOM     10  N   UNL     1       3.968   5.084  18.602  0.00  0.00    +0.000 NA
ATOM     11  H   UNL     1       3.758   4.088  18.640  0.00  0.00    +0.000 HD
BRANCH  10  12
ATOM     12  S   UNL     1       5.628   5.357  18.465  0.00  0.00    +0.000 S 
ATOM     13  O   UNL     1       5.937   6.770  18.490  0.00  0.00    +0.000 OA
ATOM     14  O   UNL     1       6.297   4.413  19.321  0.00  0.00    +0.000 OA
BRANCH  12  15
ATOM     15  C   UNL     1       5.900   4.805  16.796  0.00  0.00    +0.000 A 
ATOM     16  C   UNL     1       6.791   5.493  15.972  0.00  0.00    +0.000 A 
ATOM     17  C   UNL     1       6.945   5.088  14.649  0.00  0.00    +0.000 A 
ATOM     18  C   UNL     1       6.218   3.996  14.156  0.00  0.00    +0.000 A 
ATOM     19  C   UNL     1       6.314   3.597  12.714  0.00  0.00    +0.000 C 
ATOM     20  C   UNL     1       5.369   3.279  15.014  0.00  0.00    +0.000 A 
ATOM     21  C   UNL     1       5.212   3.678  16.337  0.00  0.00    +0.000 A 
ENDBRANCH  12  15
ENDBRANCH  10  12
ENDBRANCH   1  10
BRANCH   1  22
ATOM     22  C   UNL     1       1.847   4.974  17.303  0.00  0.00    +0.000 C 
BRANCH  22  24
ATOM     23  N   UNL     1       1.065   3.597  19.164  0.00  0.00    +0.000 N 
ATOM     24  C   UNL     1       1.744   3.604  17.963  0.00  0.00    +0.000 C 
ATOM     25  O   UNL     1       2.151   2.569  17.446  0.00  0.00    +0.000 OA
ATOM     26  H   UNL     1       0.718   4.457  19.566  0.00  0.00    +0.000 HD
BRANCH  23  27
ATOM     27  C   UNL     1       0.937   2.383  19.957  0.00  0.00    +0.000 C 
BRANCH  27  28
ATOM     28  C   UNL     1       1.364   2.581  21.413  0.00  0.00    +0.000 C 
BRANCH  28  29
ATOM     29  C   UNL     1       2.731   3.242  21.546  0.00  0.00    +0.000 C 
BRANCH  29  31
ATOM     30  C   UNL     1       4.476   1.810  20.859  0.00  0.00    +0.000 C 
ATOM     31  O   UNL     1       3.561   2.823  20.463  0.00  0.00    +0.000 OA
ENDBRANCH  29  31
ENDBRANCH  28  29
ENDBRANCH  27  28
ENDBRANCH  23  27
ENDBRANCH  22  24
ENDBRANCH   1  22
TORSDOF 11
ENDMDL
MODEL 3
REMARK VINA RESULT:      -6.6      2.644      6.048
REMARK  Name = 
REMARK  14 active torsions:
REMARK  status: ('A' for Active; 'I' for Inactive)
REMARK    1  A    between atoms: C_1  and  O_2
REMARK    2  A    between atoms: O_2  and  C_3
REMARK    3  A    between atoms: C_3  and  C_4
REMARK    4  A    between atoms: C_4  and  C_5
REMARK    5  A    between atoms: C_5  and  N_6
REMARK    6  A    between atoms: C_7  and  C_9
REMARK    7  A    between atoms: C_9  and  C_10
REMARK    8  A    between atoms: C_10  and  N_11
REMARK    9  A    between atoms: C_10  and  C_22
REMARK   10  A    between atoms: N_11  and  S_12
REMARK   11  A    between atoms: S_12  and  C_15
REMARK   12  A    between atoms: C_18  and  C_19
REMARK   13  A    between atoms: C_25  and  O_26
REMARK   14  A    between atoms: O_26  and  C_27
REMARK                            x       y       z     vdW  Elec       q    Type
REMARK                         _______ _______ _______ _____ _____    ______ ____
ROOT
ATOM      1  C   UNL     1       3.183   7.386  18.020  0.00  0.00    +0.000 C 
ENDROOT
BRANCH   1   2
ATOM      2  C   UNL     1       2.538   6.153  18.629  0.00  0.00    +0.000 A 
ATOM      3  C   UNL     1       2.427   6.020  20.020  0.00  0.00    +0.000 A 
ATOM      4  C   UNL     1       1.899   4.863  20.586  0.00  0.00    +0.000 A 
ATOM      5  C   UNL     1       1.446   3.826  19.776  0.00  0.00    +0.000 A 
ATOM      6  C   UNL     1       1.520   3.952  18.390  0.00  0.00    +0.000 A 
ATOM      7  C   UNL     1       2.071   5.111  17.819  0.00  0.00    +0.000 A 
BRANCH   5   8
ATOM      8  O   UNL     1       1.012   2.723  20.458  0.00  0.00    +0.000 OA
ATOM      9  C   UNL     1       1.517   2.564  21.775  0.00  0.00    +0.000 C 
ENDBRANCH   5   8
ENDBRANCH   1   2
BRANCH   1  10
ATOM     10  N   UNL     1       4.150   7.111  16.936  0.00  0.00    +0.000 NA
ATOM     11  H   UNL     1       4.159   7.812  16.196  0.00  0.00    +0.000 HD
BRANCH  10  12
ATOM     12  S   UNL     1       5.704   6.534  17.254  0.00  0.00    +0.000 S 
ATOM     13  O   UNL     1       6.687   7.592  17.181  0.00  0.00    +0.000 OA
ATOM     14  O   UNL     1       5.617   5.647  18.384  0.00  0.00    +0.000 OA
BRANCH  12  15
ATOM     15  C   UNL     1       5.954   5.506  15.824  0.00  0.00    +0.000 A 
ATOM     16  C   UNL     1       7.176   5.537  15.150  0.00  0.00    +0.000 A 
ATOM     17  C   UNL     1       7.335   4.775  13.996  0.00  0.00    +0.000 A 
ATOM     18  C   UNL     1       6.281   3.981  13.523  0.00  0.00    +0.000 A 
ATOM     19  C   UNL     1       6.411   3.217  12.239  0.00  0.00    +0.000 C 
ATOM     20  C   UNL     1       5.079   3.917  14.244  0.00  0.00    +0.000 A 
ATOM     21  C   UNL     1       4.914   4.674  15.399  0.00  0.00    +0.000 A 
ENDBRANCH  12  15
ENDBRANCH  10  12
ENDBRANCH   1  10
BRANCH   1  22
ATOM     22  C   UNL     1       2.070   8.346  17.524  0.00  0.00    +0.000 C 
BRANCH  22  24
ATOM     23  N   UNL     1       1.974  10.756  17.921  0.00  0.00    +0.000 N 
ATOM     24  C   UNL     1       1.751   9.506  18.460  0.00  0.00    +0.000 C 
ATOM     25  O   UNL     1       1.257   9.363  19.574  0.00  0.00    +0.000 OA
ATOM     26  H   UNL     1       2.362  10.856  16.993  0.00  0.00    +0.000 HD
BRANCH  23  27
ATOM     27  C   UNL     1       1.786  11.967  18.705  0.00  0.00    +0.000 C 
BRANCH  27  28
ATOM     28  C   UNL     1       2.536  13.169  18.127  0.00  0.00    +0.000 C 
BRANCH  28  29
ATOM     29  C   UNL     1       2.041  14.500  18.681  0.00  0.00    +0.000 C 
BRANCH  29  31
ATOM     30  C   UNL     1       4.272  14.947  18.057  0.00  0.00    +0.000 C 
ATOM     31  O   UNL     1       3.144  15.400  18.793  0.00  0.00    +0.000 OA
ENDBRANCH  29  31
ENDBRANCH  28  29
ENDBRANCH  27  28
ENDBRANCH  23  27
ENDBRANCH  22  24
ENDBRANCH   1  22
TORSDOF 11
ENDMDL
MODEL 4
REMARK VINA RESULT:      -6.5      1.763      4.942
REMARK  Name = 
REMARK  14 active torsions:
REMARK  status: ('A' for Active; 'I' for Inactive)
REMARK    1  A    between atoms: C_1  and  O_2
REMARK    2  A    between atoms: O_2  and  C_3
REMARK    3  A    between atoms: C_3  and  C_4
REMARK    4  A    between atoms: C_4  and  C_5
REMARK    5  A    between atoms: C_5  and  N_6
REMARK    6  A    between atoms: C_7  and  C_9
REMARK    7  A    between atoms: C_9  and  C_10
REMARK    8  A    between atoms: C_10  and  N_11
REMARK    9  A    between atoms: C_10  and  C_22
REMARK   10  A    between atoms: N_11  and  S_12
REMARK   11  A    between atoms: S_12  and  C_15
REMARK   12  A    between atoms: C_18  and  C_19
REMARK   13  A    between atoms: C_25  and  O_26
REMARK   14  A    between atoms: O_26  and  C_27
REMARK                            x       y       z     vdW  Elec       q    Type
REMARK                         _______ _______ _______ _____ _____    ______ ____
ROOT
ATOM      1  C   UNL     1       3.110   7.411  18.007  0.00  0.00    +0.000 C 
ENDROOT
BRANCH   1   2
ATOM      2  C   UNL     1       2.475   6.183  18.636  0.00  0.00    +0.000 A 
ATOM      3  C   UNL     1       2.297   6.105  20.024  0.00  0.00    +0.000 A 
ATOM      4  C   UNL     1       1.777   4.955  20.613  0.00  0.00    +0.000 A 
ATOM      5  C   UNL     1       1.402   3.870  19.828  0.00  0.00    +0.000 A 
ATOM      6  C   UNL     1       1.544   3.940  18.442  0.00  0.00    +0.000 A 
ATOM      7  C   UNL     1       2.085   5.092  17.850  0.00  0.00    +0.000 A 
BRANCH   5   8
ATOM      8  O   UNL     1       0.969   2.782  20.534  0.00  0.00    +0.000 OA
ATOM      9  C   UNL     1       1.604   2.555  21.783  0.00  0.00    +0.000 C 
ENDBRANCH   5   8
ENDBRANCH   1   2
BRANCH   1  10
ATOM     10  N   UNL     1       4.097   7.126  16.943  0.00  0.00    +0.000 NA
ATOM     11  H   UNL     1       4.128   7.826  16.204  0.00  0.00    +0.000 HD
BRANCH  10  12
ATOM     12  S   UNL     1       5.637   6.532  17.293  0.00  0.00    +0.000 S 
ATOM     13  O   UNL     1       6.632   7.580  17.247  0.00  0.00    +0.000 OA
ATOM     14  O   UNL     1       5.516   5.641  18.418  0.00  0.00    +0.000 OA
BRANCH  12  15
ATOM     15  C   UNL     1       5.909   5.506  15.865  0.00  0.00    +0.000 A 
ATOM     16  C   UNL     1       7.125   5.571  15.184  0.00  0.00    +0.000 A 
ATOM     17  C   UNL     1       7.299   4.811  14.031  0.00  0.00    +0.000 A 
ATOM     18  C   UNL     1       6.266   3.985  13.566  0.00  0.00    +0.000 A 
ATOM     19  C   UNL     1       6.411   3.221  12.284  0.00  0.00    +0.000 C 
ATOM     20  C   UNL     1       5.071   3.889  14.295  0.00  0.00    +0.000 A 
ATOM     21  C   UNL     1       4.891   4.644  15.448  0.00  0.00    +0.000 A 
ENDBRANCH  12  15
ENDBRANCH  10  12
ENDBRANCH   1  10
BRANCH   1  22
ATOM     22  C   UNL     1       1.990   8.343  17.474  0.00  0.00    +0.000 C 
BRANCH  22  24
ATOM     23  N   UNL     1       1.299   9.789  19.319  0.00  0.00    +0.000 N 
ATOM     24  C   UNL     1       1.948   9.730  18.103  0.00  0.00    +0.000 C 
ATOM     25  O   UNL     1       2.510  10.710  17.625  0.00  0.00    +0.000 OA
ATOM     26  H   UNL     1       0.859   8.966  19.709  0.00  0.00    +0.000 HD
BRANCH  23  27
ATOM     27  C   UNL     1       1.109  11.050  20.020  0.00  0.00    +0.000 C 
BRANCH  27  28
ATOM     28  C   UNL     1      -0.094  11.026  20.965  0.00  0.00    +0.000 C 
BRANCH  28  29
ATOM     29  C   UNL     1      -0.724   9.644  21.089  0.00  0.00    +0.000 C 
BRANCH  29  31
ATOM     30  C   UNL     1       0.060   9.471  23.307  0.00  0.00    +0.000 C 
ATOM     31  O   UNL     1       0.029   8.868  22.021  0.00  0.00    +0.000 OA
ENDBRANCH  29  31
ENDBRANCH  28  29
ENDBRANCH  27  28
ENDBRANCH  23  27
ENDBRANCH  22  24
ENDBRANCH   1  22
TORSDOF 11
ENDMDL
MODEL 5
REMARK VINA RESULT:      -6.5      2.163      5.472
REMARK  Name = 
REMARK  14 active torsions:
REMARK  status: ('A' for Active; 'I' for Inactive)
REMARK    1  A    between atoms: C_1  and  O_2
REMARK    2  A    between atoms: O_2  and  C_3
REMARK    3  A    between atoms: C_3  and  C_4
REMARK    4  A    between atoms: C_4  and  C_5
REMARK    5  A    between atoms: C_5  and  N_6
REMARK    6  A    between atoms: C_7  and  C_9
REMARK    7  A    between atoms: C_9  and  C_10
REMARK    8  A    between atoms: C_10  and  N_11
REMARK    9  A    between atoms: C_10  and  C_22
REMARK   10  A    between atoms: N_11  and  S_12
REMARK   11  A    between atoms: S_12  and  C_15
REMARK   12  A    between atoms: C_18  and  C_19
REMARK   13  A    between atoms: C_25  and  O_26
REMARK   14  A    between atoms: O_26  and  C_27
REMARK                            x       y       z     vdW  Elec       q    Type
REMARK                         _______ _______ _______ _____ _____    ______ ____
ROOT
ATOM      1  C   UNL     1       3.333   7.370  18.049  0.00  0.00    +0.000 C 
ENDROOT
BRANCH   1   2
ATOM      2  C   UNL     1       2.811   6.100  18.700  0.00  0.00    +0.000 A 
ATOM      3  C   UNL     1       2.164   5.121  17.935  0.00  0.00    +0.000 A 
ATOM      4  C   UNL     1       1.624   3.987  18.536  0.00  0.00    +0.000 A 
ATOM      5  C   UNL     1       1.741   3.794  19.909  0.00  0.00    +0.000 A 
ATOM      6  C   UNL     1       2.407   4.743  20.683  0.00  0.00    +0.000 A 
ATOM      7  C   UNL     1       2.935   5.896  20.080  0.00  0.00    +0.000 A 
BRANCH   5   8
ATOM      8  O   UNL     1       1.112   2.676  20.380  0.00  0.00    +0.000 OA
ATOM      9  C   UNL     1       1.281   2.398  21.762  0.00  0.00    +0.000 C 
ENDBRANCH   5   8
ENDBRANCH   1   2
BRANCH   1  10
ATOM     10  N   UNL     1       4.283   7.154  16.938  0.00  0.00    +0.000 NA
ATOM     11  H   UNL     1       4.280   7.893  16.236  0.00  0.00    +0.000 HD
BRANCH  10  12
ATOM     12  S   UNL     1       5.842   6.563  17.201  0.00  0.00    +0.000 S 
ATOM     13  O   UNL     1       6.834   7.609  17.073  0.00  0.00    +0.000 OA
ATOM     14  O   UNL     1       5.792   5.694  18.348  0.00  0.00    +0.000 OA
BRANCH  12  15
ATOM     15  C   UNL     1       6.023   5.511  15.778  0.00  0.00    +0.000 A 
ATOM     16  C   UNL     1       7.190   5.567  15.015  0.00  0.00    +0.000 A 
ATOM     17  C   UNL     1       7.289   4.785  13.868  0.00  0.00    +0.000 A 
ATOM     18  C   UNL     1       6.232   3.945  13.491  0.00  0.00    +0.000 A 
ATOM     19  C   UNL     1       6.294   3.156  12.218  0.00  0.00    +0.000 C 
ATOM     20  C   UNL     1       5.089   3.858  14.301  0.00  0.00    +0.000 A 
ATOM     21  C   UNL     1       4.983   4.636  15.449  0.00  0.00    +0.000 A 
ENDBRANCH  12  15
ENDBRANCH  10  12
ENDBRANCH   1  10
BRANCH   1  22
ATOM     22  C   UNL     1       2.129   8.227  17.576  0.00  0.00    +0.000 C 
BRANCH  22  24
ATOM     23  N   UNL     1       1.238  10.443  18.093  0.00  0.00    +0.000 N 
ATOM     24  C   UNL     1       1.591   9.212  18.607  0.00  0.00    +0.000 C 
ATOM     25  O   UNL     1       1.401   8.927  19.785  0.00  0.00    +0.000 OA
ATOM     26  H   UNL     1       1.382  10.655  17.115  0.00  0.00    +0.000 HD
BRANCH  23  27
ATOM     27  C   UNL     1       0.772  11.521  18.953  0.00  0.00    +0.000 C 
BRANCH  27  28
ATOM     28  C   UNL     1      -0.455  12.240  18.388  0.00  0.00    +0.000 C 
BRANCH  28  29
ATOM     29  C   UNL     1      -1.769  11.605  18.827  0.00  0.00    +0.000 C 
BRANCH  29  31
ATOM     30  C   UNL     1      -2.411   9.898  17.331  0.00  0.00    +0.000 C 
ATOM     31  O   UNL     1      -1.733  10.207  18.541  0.00  0.00    +0.000 OA
ENDBRANCH  29  31
ENDBRANCH  28  29
ENDBRANCH  27  28
ENDBRANCH  23  27
ENDBRANCH  22  24
ENDBRANCH   1  22
TORSDOF 11
ENDMDL
MODEL 6
REMARK VINA RESULT:      -6.5      2.102      2.990
REMARK  Name = 
REMARK  14 active torsions:
REMARK  status: ('A' for Active; 'I' for Inactive)
REMARK    1  A    between atoms: C_1  and  O_2
REMARK    2  A    between atoms: O_2  and  C_3
REMARK    3  A    between atoms: C_3  and  C_4
REMARK    4  A    between atoms: C_4  and  C_5
REMARK    5  A    between atoms: C_5  and  N_6
REMARK    6  A    between atoms: C_7  and  C_9
REMARK    7  A    between atoms: C_9  and  C_10
REMARK    8  A    between atoms: C_10  and  N_11
REMARK    9  A    between atoms: C_10  and  C_22
REMARK   10  A    between atoms: N_11  and  S_12
REMARK   11  A    between atoms: S_12  and  C_15
REMARK   12  A    between atoms: C_18  and  C_19
REMARK   13  A    between atoms: C_25  and  O_26
REMARK   14  A    between atoms: O_26  and  C_27
REMARK                            x       y       z     vdW  Elec       q    Type
REMARK                         _______ _______ _______ _____ _____    ______ ____
ROOT
ATOM      1  C   UNL     1       3.002   5.913  17.797  0.00  0.00    +0.000 C 
ENDROOT
BRANCH   1   2
ATOM      2  C   UNL     1       2.375   7.093  18.520  0.00  0.00    +0.000 A 
ATOM      3  C   UNL     1       2.035   8.259  17.819  0.00  0.00    +0.000 A 
ATOM      4  C   UNL     1       1.523   9.368  18.487  0.00  0.00    +0.000 A 
ATOM      5  C   UNL     1       1.316   9.329  19.862  0.00  0.00    +0.000 A 
ATOM      6  C   UNL     1       1.621   8.168  20.571  0.00  0.00    +0.000 A 
ATOM      7  C   UNL     1       2.155   7.056  19.902  0.00  0.00    +0.000 A 
BRANCH   5   8
ATOM      8  O   UNL     1       0.872  10.504  20.401  0.00  0.00    +0.000 OA
ATOM      9  C   UNL     1       1.146  11.679  19.653  0.00  0.00    +0.000 C 
ENDBRANCH   5   8
ENDBRANCH   1   2
BRANCH   1  10
ATOM     10  N   UNL     1       3.965   5.131  18.602  0.00  0.00    +0.000 NA
ATOM     11  H   UNL     1       3.532   4.472  19.246  0.00  0.00    +0.000 HD
BRANCH  10  12
ATOM     12  S   UNL     1       5.379   4.497  17.931  0.00  0.00    +0.000 S 
ATOM     13  O   UNL     1       5.996   3.531  18.813  0.00  0.00    +0.000 OA
ATOM     14  O   UNL     1       5.113   4.209  16.546  0.00  0.00    +0.000 OA
BRANCH  12  15
ATOM     15  C   UNL     1       6.413   5.945  17.955  0.00  0.00    +0.000 A 
ATOM     16  C   UNL     1       7.543   5.978  18.773  0.00  0.00    +0.000 A 
ATOM     17  C   UNL     1       8.306   7.142  18.829  0.00  0.00    +0.000 A 
ATOM     18  C   UNL     1       7.945   8.261  18.066  0.00  0.00    +0.000 A 
ATOM     19  C   UNL     1       8.712   9.545  18.176  0.00  0.00    +0.000 C 
ATOM     20  C   UNL     1       6.839   8.191  17.206  0.00  0.00    +0.000 A 
ATOM     21  C   UNL     1       6.073   7.031  17.144  0.00  0.00    +0.000 A 
ENDBRANCH  12  15
ENDBRANCH  10  12
ENDBRANCH   1  10
BRANCH   1  22
ATOM     22  C   UNL     1       1.875   4.995  17.255  0.00  0.00    +0.000 C 
BRANCH  22  24
ATOM     23  N   UNL     1       0.958   3.637  19.069  0.00  0.00    +0.000 N 
ATOM     24  C   UNL     1       1.756   3.640  17.944  0.00  0.00    +0.000 C 
ATOM     25  O   UNL     1       2.254   2.609  17.504  0.00  0.00    +0.000 OA
ATOM     26  H   UNL     1       0.538   4.493  19.406  0.00  0.00    +0.000 HD
BRANCH  23  27
ATOM     27  C   UNL     1       0.794   2.441  19.882  0.00  0.00    +0.000 C 
BRANCH  27  28
ATOM     28  C   UNL     1       1.336   2.613  21.302  0.00  0.00    +0.000 C 
BRANCH  28  29
ATOM     29  C   UNL     1       2.156   3.887  21.475  0.00  0.00    +0.000 C 
BRANCH  29  31
ATOM     30  C   UNL     1       3.812   2.303  20.914  0.00  0.00    +0.000 C 
ATOM     31  O   UNL     1       3.462   3.680  20.937  0.00  0.00    +0.000 OA
ENDBRANCH  29  31
ENDBRANCH  28  29
ENDBRANCH  27  28
ENDBRANCH  23  27
ENDBRANCH  22  24
ENDBRANCH   1  22
TORSDOF 11
ENDMDL
MODEL 7
REMARK VINA RESULT:      -6.3      3.888      8.855
REMARK  Name = 
REMARK  14 active torsions:
REMARK  status: ('A' for Active; 'I' for Inactive)
REMARK    1  A    between atoms: C_1  and  O_2
REMARK    2  A    between atoms: O_2  and  C_3
REMARK    3  A    between atoms: C_3  and  C_4
REMARK    4  A    between atoms: C_4  and  C_5
REMARK    5  A    between atoms: C_5  and  N_6
REMARK    6  A    between atoms: C_7  and  C_9
REMARK    7  A    between atoms: C_9  and  C_10
REMARK    8  A    between atoms: C_10  and  N_11
REMARK    9  A    between atoms: C_10  and  C_22
REMARK   10  A    between atoms: N_11  and  S_12
REMARK   11  A    between atoms: S_12  and  C_15
REMARK   12  A    between atoms: C_18  and  C_19
REMARK   13  A    between atoms: C_25  and  O_26
REMARK   14  A    between atoms: O_26  and  C_27
REMARK                            x       y       z     vdW  Elec       q    Type
REMARK                         _______ _______ _______ _____ _____    ______ ____
ROOT
ATOM      1  C   UNL     1       1.758   8.499  20.341  0.00  0.00    +0.000 C 
ENDROOT
BRANCH   1   2
ATOM      2  C   UNL     1       2.095   7.071  19.947  0.00  0.00    +0.000 A 
ATOM      3  C   UNL     1       2.722   6.799  18.723  0.00  0.00    +0.000 A 
ATOM      4  C   UNL     1       2.973   5.488  18.327  0.00  0.00    +0.000 A 
ATOM      5  C   UNL     1       2.626   4.424  19.152  0.00  0.00    +0.000 A 
ATOM      6  C   UNL     1       2.028   4.676  20.386  0.00  0.00    +0.000 A 
ATOM      7  C   UNL     1       1.758   5.996  20.779  0.00  0.00    +0.000 A 
BRANCH   5   8
ATOM      8  O   UNL     1       2.867   3.189  18.616  0.00  0.00    +0.000 OA
ATOM      9  C   UNL     1       3.809   2.381  19.306  0.00  0.00    +0.000 C 
ENDBRANCH   5   8
ENDBRANCH   1   2
BRANCH   1  10
ATOM     10  N   UNL     1       0.618   9.093  19.611  0.00  0.00    +0.000 NA
ATOM     11  H   UNL     1      -0.295   8.828  19.975  0.00  0.00    +0.000 HD
BRANCH  10  12
ATOM     12  S   UNL     1       0.632  10.701  19.095  0.00  0.00    +0.000 S 
ATOM     13  O   UNL     1       0.769  11.613  20.209  0.00  0.00    +0.000 OA
ATOM     14  O   UNL     1       1.478  10.779  17.933  0.00  0.00    +0.000 OA
BRANCH  12  15
ATOM     15  C   UNL     1      -1.041  10.856  18.511  0.00  0.00    +0.000 A 
ATOM     16  C   UNL     1      -1.449  10.157  17.374  0.00  0.00    +0.000 A 
ATOM     17  C   UNL     1      -2.742  10.339  16.892  0.00  0.00    +0.000 A 
ATOM     18  C   UNL     1      -3.625  11.209  17.548  0.00  0.00    +0.000 A 
ATOM     19  C   UNL     1      -4.994  11.474  16.996  0.00  0.00    +0.000 C 
ATOM     20  C   UNL     1      -3.217  11.860  18.722  0.00  0.00    +0.000 A 
ATOM     21  C   UNL     1      -1.927  11.682  19.210  0.00  0.00    +0.000 A 
ENDBRANCH  12  15
ENDBRANCH  10  12
ENDBRANCH   1  10
BRANCH   1  22
ATOM     22  C   UNL     1       1.511   8.556  21.872  0.00  0.00    +0.000 C 
BRANCH  22  24
ATOM     23  N   UNL     1      -0.051  10.245  22.697  0.00  0.00    +0.000 N 
ATOM     24  C   UNL     1       0.094   8.936  22.286  0.00  0.00    +0.000 C 
ATOM     25  O   UNL     1      -0.867   8.181  22.190  0.00  0.00    +0.000 OA
ATOM     26  H   UNL     1       0.749  10.861  22.751  0.00  0.00    +0.000 HD
BRANCH  23  27
ATOM     27  C   UNL     1      -1.323  10.751  23.191  0.00  0.00    +0.000 C 
BRANCH  27  28
ATOM     28  C   UNL     1      -1.507  12.246  22.927  0.00  0.00    +0.000 C 
BRANCH  28  29
ATOM     29  C   UNL     1      -2.943  12.614  22.568  0.00  0.00    +0.000 C 
BRANCH  29  31
ATOM     30  C   UNL     1      -4.181  13.009  24.538  0.00  0.00    +0.000 C 
ATOM     31  O   UNL     1      -3.826  12.058  23.543  0.00  0.00    +0.000 OA
ENDBRANCH  29  31
ENDBRANCH  28  29
ENDBRANCH  27  28
ENDBRANCH  23  27
ENDBRANCH  22  24
ENDBRANCH   1  22
TORSDOF 11
ENDMDL
MODEL 8
REMARK VINA RESULT:      -6.3      1.391      2.036
REMARK  Name = 
REMARK  14 active torsions:
REMARK  status: ('A' for Active; 'I' for Inactive)
REMARK    1  A    between atoms: C_1  and  O_2
REMARK    2  A    between atoms: O_2  and  C_3
REMARK    3  A    between atoms: C_3  and  C_4
REMARK    4  A    between atoms: C_4  and  C_5
REMARK    5  A    between atoms: C_5  and  N_6
REMARK    6  A    between atoms: C_7  and  C_9
REMARK    7  A    between atoms: C_9  and  C_10
REMARK    8  A    between atoms: C_10  and  N_11
REMARK    9  A    between atoms: C_10  and  C_22
REMARK   10  A    between atoms: N_11  and  S_12
REMARK   11  A    between atoms: S_12  and  C_15
REMARK   12  A    between atoms: C_18  and  C_19
REMARK   13  A    between atoms: C_25  and  O_26
REMARK   14  A    between atoms: O_26  and  C_27
REMARK                            x       y       z     vdW  Elec       q    Type
REMARK                         _______ _______ _______ _____ _____    ______ ____
ROOT
ATOM      1  C   UNL     1       3.848   6.364  17.922  0.00  0.00    +0.000 C 
ENDROOT
BRANCH   1   2
ATOM      2  C   UNL     1       2.880   7.356  18.544  0.00  0.00    +0.000 A 
ATOM      3  C   UNL     1       2.405   7.167  19.849  0.00  0.00    +0.000 A 
ATOM      4  C   UNL     1       1.467   8.036  20.399  0.00  0.00    +0.000 A 
ATOM      5  C   UNL     1       1.002   9.124  19.669  0.00  0.00    +0.000 A 
ATOM      6  C   UNL     1       1.484   9.346  18.380  0.00  0.00    +0.000 A 
ATOM      7  C   UNL     1       2.416   8.460  17.818  0.00  0.00    +0.000 A 
BRANCH   5   8
ATOM      8  O   UNL     1       0.036   9.858  20.300  0.00  0.00    +0.000 OA
ATOM      9  C   UNL     1       0.454  11.099  20.851  0.00  0.00    +0.000 C 
ENDBRANCH   5   8
ENDBRANCH   1   2
BRANCH   1  10
ATOM     10  N   UNL     1       4.893   6.965  17.068  0.00  0.00    +0.000 NA
ATOM     11  H   UNL     1       4.889   7.984  17.058  0.00  0.00    +0.000 HD
BRANCH  10  12
ATOM     12  S   UNL     1       6.466   6.357  17.022  0.00  0.00    +0.000 S 
ATOM     13  O   UNL     1       7.428   7.395  16.721  0.00  0.00    +0.000 OA
ATOM     14  O   UNL     1       6.624   5.470  18.146  0.00  0.00    +0.000 OA
BRANCH  12  15
ATOM     15  C   UNL     1       6.361   5.324  15.577  0.00  0.00    +0.000 A 
ATOM     16  C   UNL     1       7.360   5.384  14.605  0.00  0.00    +0.000 A 
ATOM     17  C   UNL     1       7.231   4.618  13.450  0.00  0.00    +0.000 A 
ATOM     18  C   UNL     1       6.113   3.791  13.272  0.00  0.00    +0.000 A 
ATOM     19  C   UNL     1       5.922   3.020  12.000  0.00  0.00    +0.000 C 
ATOM     20  C   UNL     1       5.146   3.699  14.284  0.00  0.00    +0.000 A 
ATOM     21  C   UNL     1       5.270   4.460  15.442  0.00  0.00    +0.000 A 
ENDBRANCH  12  15
ENDBRANCH  10  12
ENDBRANCH   1  10
BRANCH   1  22
ATOM     22  C   UNL     1       4.491   5.511  19.048  0.00  0.00    +0.000 C 
BRANCH  22  24
ATOM     23  N   UNL     1       3.062   3.710  18.220  0.00  0.00    +0.000 N 
ATOM     24  C   UNL     1       4.143   4.028  19.016  0.00  0.00    +0.000 C 
ATOM     25  O   UNL     1       4.807   3.163  19.578  0.00  0.00    +0.000 OA
ATOM     26  H   UNL     1       2.538   4.434  17.748  0.00  0.00    +0.000 HD
BRANCH  23  27
ATOM     27  C   UNL     1       2.556   2.348  18.134  0.00  0.00    +0.000 C 
BRANCH  27  28
ATOM     28  C   UNL     1       1.104   2.225  18.601  0.00  0.00    +0.000 C 
BRANCH  28  29
ATOM     29  C   UNL     1       0.816   3.034  19.860  0.00  0.00    +0.000 C 
BRANCH  29  31
ATOM     30  C   UNL     1       2.105   3.462  21.789  0.00  0.00    +0.000 C 
ATOM     31  O   UNL     1       1.531   2.464  20.957  0.00  0.00    +0.000 OA
ENDBRANCH  29  31
ENDBRANCH  28  29
ENDBRANCH  27  28
ENDBRANCH  23  27
ENDBRANCH  22  24
ENDBRANCH   1  22
TORSDOF 11
ENDMDL
MODEL 9
REMARK VINA RESULT:      -6.3      2.093      5.628
REMARK  Name = 
REMARK  14 active torsions:
REMARK  status: ('A' for Active; 'I' for Inactive)
REMARK    1  A    between atoms: C_1  and  O_2
REMARK    2  A    between atoms: O_2  and  C_3
REMARK    3  A    between atoms: C_3  and  C_4
REMARK    4  A    between atoms: C_4  and  C_5
REMARK    5  A    between atoms: C_5  and  N_6
REMARK    6  A    between atoms: C_7  and  C_9
REMARK    7  A    between atoms: C_9  and  C_10
REMARK    8  A    between atoms: C_10  and  N_11
REMARK    9  A    between atoms: C_10  and  C_22
REMARK   10  A    between atoms: N_11  and  S_12
REMARK   11  A    between atoms: S_12  and  C_15
REMARK   12  A    between atoms: C_18  and  C_19
REMARK   13  A    between atoms: C_25  and  O_26
REMARK   14  A    between atoms: O_26  and  C_27
REMARK                            x       y       z     vdW  Elec       q    Type
REMARK                         _______ _______ _______ _____ _____    ______ ____
ROOT
ATOM      1  C   UNL     1       3.164   7.329  18.050  0.00  0.00    +0.000 C 
ENDROOT
BRANCH   1   2
ATOM      2  C   UNL     1       2.526   6.094  18.663  0.00  0.00    +0.000 A 
ATOM      3  C   UNL     1       2.423   5.961  20.054  0.00  0.00    +0.000 A 
ATOM      4  C   UNL     1       1.901   4.803  20.624  0.00  0.00    +0.000 A 
ATOM      5  C   UNL     1       1.449   3.764  19.817  0.00  0.00    +0.000 A 
ATOM      6  C   UNL     1       1.516   3.889  18.430  0.00  0.00    +0.000 A 
ATOM      7  C   UNL     1       2.059   5.049  17.856  0.00  0.00    +0.000 A 
BRANCH   5   8
ATOM      8  O   UNL     1       1.022   2.660  20.501  0.00  0.00    +0.000 OA
ATOM      9  C   UNL     1       1.504   2.523  21.830  0.00  0.00    +0.000 C 
ENDBRANCH   5   8
ENDBRANCH   1   2
BRANCH   1  10
ATOM     10  N   UNL     1       4.159   7.055  16.992  0.00  0.00    +0.000 NA
ATOM     11  H   UNL     1       4.214   7.775  16.273  0.00  0.00    +0.000 HD
BRANCH  10  12
ATOM     12  S   UNL     1       5.683   6.422  17.344  0.00  0.00    +0.000 S 
ATOM     13  O   UNL     1       6.696   7.455  17.356  0.00  0.00    +0.000 OA
ATOM     14  O   UNL     1       5.528   5.490  18.431  0.00  0.00    +0.000 OA
BRANCH  12  15
ATOM     15  C   UNL     1       5.964   5.448  15.882  0.00  0.00    +0.000 A 
ATOM     16  C   UNL     1       7.161   5.582  15.177  0.00  0.00    +0.000 A 
ATOM     17  C   UNL     1       7.339   4.861  13.999  0.00  0.00    +0.000 A 
ATOM     18  C   UNL     1       6.330   4.006  13.534  0.00  0.00    +0.000 A 
ATOM     19  C   UNL     1       6.476   3.284  12.228  0.00  0.00    +0.000 C 
ATOM     20  C   UNL     1       5.157   3.841  14.285  0.00  0.00    +0.000 A 
ATOM     21  C   UNL     1       4.972   4.556  15.463  0.00  0.00    +0.000 A 
ENDBRANCH  12  15
ENDBRANCH  10  12
ENDBRANCH   1  10
BRANCH   1  22
ATOM     22  C   UNL     1       2.046   8.263  17.516  0.00  0.00    +0.000 C 
BRANCH  22  24
ATOM     23  N   UNL     1       1.142   9.304  19.534  0.00  0.00    +0.000 N 
ATOM     24  C   UNL     1       1.803   9.520  18.343  0.00  0.00    +0.000 C 
ATOM     25  O   UNL     1       2.225  10.629  18.032  0.00  0.00    +0.000 OA
ATOM     26  H   UNL     1       0.819   8.379  19.785  0.00  0.00    +0.000 HD
BRANCH  23  27
ATOM     27  C   UNL     1       0.771  10.406  20.409  0.00  0.00    +0.000 C 
BRANCH  27  28
ATOM     28  C   UNL     1      -0.685  10.839  20.229  0.00  0.00    +0.000 C 
BRANCH  28  29
ATOM     29  C   UNL     1      -0.887  12.337  20.425  0.00  0.00    +0.000 C 
BRANCH  29  31
ATOM     30  C   UNL     1      -3.019  13.266  20.825  0.00  0.00    +0.000 C 
ATOM     31  O   UNL     1      -2.139  12.720  19.853  0.00  0.00    +0.000 OA
ENDBRANCH  29  31
ENDBRANCH  28  29
ENDBRANCH  27  28
ENDBRANCH  23  27
ENDBRANCH  22  24
ENDBRANCH   1  22
TORSDOF 11
ENDMDL
