MODEL 1
REMARK VINA RESULT:      -8.5      0.000      0.000
REMARK  Name = 
REMARK  3 active torsions:
REMARK  status: ('A' for Active; 'I' for Inactive)
REMARK    1  A    between atoms: C_2  and  C_5
REMARK    2  A    between atoms: C_10  and  C_11
REMARK    3  A    between atoms: C_14  and  C_15
REMARK                            x       y       z     vdW  Elec       q    Type
REMARK                         _______ _______ _______ _____ _____    ______ ____
ROOT
ATOM      1  C   UNL     1       6.301   5.190  16.767  0.00  0.00    +0.000 A 
ATOM      2  C   UNL     1       7.007   4.607  17.835  0.00  0.00    +0.000 A 
ATOM      3  C   UNL     1       7.813   5.370  18.689  0.00  0.00    +0.000 A 
ATOM      4  C   UNL     1       7.886   6.735  18.420  0.00  0.00    +0.000 A 
ATOM      5  N   UNL     1       8.576   7.756  19.017  0.00  0.00    +0.000 N 
ATOM      6  C   UNL     1       8.326   8.924  18.332  0.00  0.00    +0.000 A 
ATOM      7  N   UNL     1       7.488   8.693  17.337  0.00  0.00    +0.000 NA
ATOM      8  C   UNL     1       7.207   7.351  17.378  0.00  0.00    +0.000 A 
ATOM      9  C   UNL     1       6.392   6.578  16.541  0.00  0.00    +0.000 A 
ATOM     10  H   UNL     1       9.211   7.660  19.793  0.00  0.00    +0.000 HD
ENDROOT
BRANCH   6  11
ATOM     11  C   UNL     1       8.971  10.199  18.650  0.00  0.00    +0.000 A 
ATOM     12  C   UNL     1       8.857  11.273  17.759  0.00  0.00    +0.000 A 
ATOM     13  C   UNL     1       9.510  12.486  18.010  0.00  0.00    +0.000 A 
ATOM     14  C   UNL     1      10.288  12.652  19.162  0.00  0.00    +0.000 A 
ATOM     15  C   UNL     1      10.375  11.589  20.070  0.00  0.00    +0.000 A 
ATOM     16  C   UNL     1       9.724  10.376  19.818  0.00  0.00    +0.000 A 
BRANCH  14  17
ATOM     17  C   UNL     1      10.983  13.904  19.408  0.00  0.00    +0.000 A 
ATOM     18  C   UNL     1      10.938  14.778  20.530  0.00  0.00    +0.000 A 
ATOM     19  C   UNL     1      11.780  15.827  20.242  0.00  0.00    +0.000 A 
ATOM     20  O   UNL     1      12.333  15.668  19.014  0.00  0.00    +0.000 OA
ATOM     21  C   UNL     1      11.843  14.507  18.512  0.00  0.00    +0.000 A 
ENDBRANCH  14  17
ENDBRANCH   6  11
BRANCH   1  23
ATOM     22  F   UNL     1       5.996   3.126  15.576  0.00  0.00    +0.000 F 
ATOM     23  C   UNL     1       5.454   4.347  15.847  0.00  0.00    +0.000 C 
ATOM     24  F   UNL     1       5.252   4.938  14.637  0.00  0.00    +0.000 F 
ATOM     25  F   UNL     1       4.215   4.098  16.355  0.00  0.00    +0.000 F 
ENDBRANCH   1  23
TORSDOF 3
ENDMDL
MODEL 2
REMARK VINA RESULT:      -8.4      0.556      1.055
REMARK  Name = 
REMARK  3 active torsions:
REMARK  status: ('A' for Active; 'I' for Inactive)
REMARK    1  A    between atoms: C_2  and  C_5
REMARK    2  A    between atoms: C_10  and  C_11
REMARK    3  A    between atoms: C_14  and  C_15
REMARK                            x       y       z     vdW  Elec       q    Type
REMARK                         _______ _______ _______ _____ _____    ______ ____
ROOT
ATOM      1  C   UNL     1       6.393   5.134  16.821  0.00  0.00    +0.000 A 
ATOM      2  C   UNL     1       7.108   4.592  17.905  0.00  0.00    +0.000 A 
ATOM      3  C   UNL     1       7.893   5.392  18.744  0.00  0.00    +0.000 A 
ATOM      4  C   UNL     1       7.937   6.753  18.443  0.00  0.00    +0.000 A 
ATOM      5  N   UNL     1       8.601   7.803  19.018  0.00  0.00    +0.000 N 
ATOM      6  C   UNL     1       8.328   8.948  18.305  0.00  0.00    +0.000 A 
ATOM      7  N   UNL     1       7.500   8.675  17.312  0.00  0.00    +0.000 NA
ATOM      8  C   UNL     1       7.249   7.328  17.384  0.00  0.00    +0.000 A 
ATOM      9  C   UNL     1       6.455   6.517  16.563  0.00  0.00    +0.000 A 
ATOM     10  H   UNL     1       9.236   7.739  19.798  0.00  0.00    +0.000 HD
ENDROOT
BRANCH   6  11
ATOM     11  C   UNL     1       8.943  10.244  18.594  0.00  0.00    +0.000 A 
ATOM     12  C   UNL     1       8.686  11.336  17.756  0.00  0.00    +0.000 A 
ATOM     13  C   UNL     1       9.304  12.572  17.976  0.00  0.00    +0.000 A 
ATOM     14  C   UNL     1      10.191  12.744  19.045  0.00  0.00    +0.000 A 
ATOM     15  C   UNL     1      10.424  11.663  19.904  0.00  0.00    +0.000 A 
ATOM     16  C   UNL     1       9.807  10.427  19.682  0.00  0.00    +0.000 A 
BRANCH  14  17
ATOM     17  C   UNL     1      10.849  14.022  19.258  0.00  0.00    +0.000 A 
ATOM     18  C   UNL     1      12.216  14.324  19.516  0.00  0.00    +0.000 A 
ATOM     19  C   UNL     1      12.296  15.691  19.649  0.00  0.00    +0.000 A 
ATOM     20  O   UNL     1      11.071  16.254  19.503  0.00  0.00    +0.000 OA
ATOM     21  C   UNL     1      10.199  15.241  19.273  0.00  0.00    +0.000 A 
ENDBRANCH  14  17
ENDBRANCH   6  11
BRANCH   1  23
ATOM     22  F   UNL     1       4.963   4.926  14.902  0.00  0.00    +0.000 F 
ATOM     23  C   UNL     1       5.569   4.250  15.918  0.00  0.00    +0.000 C 
ATOM     24  F   UNL     1       4.568   3.612  16.586  0.00  0.00    +0.000 F 
ATOM     25  F   UNL     1       6.307   3.272  15.325  0.00  0.00    +0.000 F 
ENDBRANCH   1  23
TORSDOF 3
ENDMDL
MODEL 3
REMARK VINA RESULT:      -8.2      7.084      8.048
REMARK  Name = 
REMARK  3 active torsions:
REMARK  status: ('A' for Active; 'I' for Inactive)
REMARK    1  A    between atoms: C_2  and  C_5
REMARK    2  A    between atoms: C_10  and  C_11
REMARK    3  A    between atoms: C_14  and  C_15
REMARK                            x       y       z     vdW  Elec       q    Type
REMARK                         _______ _______ _______ _____ _____    ______ ____
ROOT
ATOM      1  C   UNL     1       5.208   4.779  16.133  0.00  0.00    +0.000 A 
ATOM      2  C   UNL     1       4.404   3.750  16.656  0.00  0.00    +0.000 A 
ATOM      3  C   UNL     1       3.338   4.018  17.524  0.00  0.00    +0.000 A 
ATOM      4  C   UNL     1       3.122   5.356  17.849  0.00  0.00    +0.000 A 
ATOM      5  N   UNL     1       2.209   5.970  18.664  0.00  0.00    +0.000 N 
ATOM      6  C   UNL     1       2.452   7.325  18.666  0.00  0.00    +0.000 A 
ATOM      7  N   UNL     1       3.468   7.602  17.868  0.00  0.00    +0.000 NA
ATOM      8  C   UNL     1       3.891   6.400  17.357  0.00  0.00    +0.000 A 
ATOM      9  C   UNL     1       4.945   6.119  16.478  0.00  0.00    +0.000 A 
ATOM     10  H   UNL     1       1.511   5.502  19.221  0.00  0.00    +0.000 HD
ENDROOT
BRANCH   6  11
ATOM     11  C   UNL     1       1.715   8.276  19.499  0.00  0.00    +0.000 A 
ATOM     12  C   UNL     1       1.204   9.447  18.926  0.00  0.00    +0.000 A 
ATOM     13  C   UNL     1       0.543  10.401  19.710  0.00  0.00    +0.000 A 
ATOM     14  C   UNL     1       0.376  10.200  21.085  0.00  0.00    +0.000 A 
ATOM     15  C   UNL     1       0.857   9.013  21.653  0.00  0.00    +0.000 A 
ATOM     16  C   UNL     1       1.519   8.061  20.869  0.00  0.00    +0.000 A 
BRANCH  14  17
ATOM     17  C   UNL     1      -0.290  11.202  21.900  0.00  0.00    +0.000 A 
ATOM     18  C   UNL     1      -0.334  12.618  21.767  0.00  0.00    +0.000 A 
ATOM     19  C   UNL     1      -1.095  13.085  22.814  0.00  0.00    +0.000 A 
ATOM     20  O   UNL     1      -1.513  12.057  23.592  0.00  0.00    +0.000 OA
ATOM     21  C   UNL     1      -1.019  10.921  23.039  0.00  0.00    +0.000 A 
ENDBRANCH  14  17
ENDBRANCH   6  11
BRANCH   1  23
ATOM     22  F   UNL     1       7.567   4.418  15.854  0.00  0.00    +0.000 F 
ATOM     23  C   UNL     1       6.364   4.467  15.216  0.00  0.00    +0.000 C 
ATOM     24  F   UNL     1       6.509   5.392  14.226  0.00  0.00    +0.000 F 
ATOM     25  F   UNL     1       6.227   3.265  14.589  0.00  0.00    +0.000 F 
ENDBRANCH   1  23
TORSDOF 3
ENDMDL
MODEL 4
REMARK VINA RESULT:      -8.2      7.076      8.326
REMARK  Name = 
REMARK  3 active torsions:
REMARK  status: ('A' for Active; 'I' for Inactive)
REMARK    1  A    between atoms: C_2  and  C_5
REMARK    2  A    between atoms: C_10  and  C_11
REMARK    3  A    between atoms: C_14  and  C_15
REMARK                            x       y       z     vdW  Elec       q    Type
REMARK                         _______ _______ _______ _____ _____    ______ ____
ROOT
ATOM      1  C   UNL     1       5.343   4.785  16.336  0.00  0.00    +0.000 A 
ATOM      2  C   UNL     1       4.666   3.758  17.020  0.00  0.00    +0.000 A 
ATOM      3  C   UNL     1       3.616   4.030  17.905  0.00  0.00    +0.000 A 
ATOM      4  C   UNL     1       3.283   5.373  18.080  0.00  0.00    +0.000 A 
ATOM      5  N   UNL     1       2.349   5.995  18.864  0.00  0.00    +0.000 N 
ATOM      6  C   UNL     1       2.457   7.357  18.691  0.00  0.00    +0.000 A 
ATOM      7  N   UNL     1       3.407   7.626  17.813  0.00  0.00    +0.000 NA
ATOM      8  C   UNL     1       3.924   6.415  17.427  0.00  0.00    +0.000 A 
ATOM      9  C   UNL     1       4.963   6.127  16.532  0.00  0.00    +0.000 A 
ATOM     10  H   UNL     1       1.725   5.537  19.509  0.00  0.00    +0.000 HD
ENDROOT
BRANCH   6  11
ATOM     11  C   UNL     1       1.665   8.330  19.444  0.00  0.00    +0.000 A 
ATOM     12  C   UNL     1       1.399   8.107  20.800  0.00  0.00    +0.000 A 
ATOM     13  C   UNL     1       0.597   8.993  21.530  0.00  0.00    +0.000 A 
ATOM     14  C   UNL     1       0.047  10.125  20.918  0.00  0.00    +0.000 A 
ATOM     15  C   UNL     1       0.339  10.367  19.570  0.00  0.00    +0.000 A 
ATOM     16  C   UNL     1       1.139   9.480  18.841  0.00  0.00    +0.000 A 
BRANCH  14  17
ATOM     17  C   UNL     1      -0.804  11.030  21.672  0.00  0.00    +0.000 A 
ATOM     18  C   UNL     1      -1.129  11.050  23.058  0.00  0.00    +0.000 A 
ATOM     19  C   UNL     1      -1.985  12.112  23.243  0.00  0.00    +0.000 A 
ATOM     20  O   UNL     1      -2.221  12.741  22.065  0.00  0.00    +0.000 OA
ATOM     21  C   UNL     1      -1.510  12.080  21.118  0.00  0.00    +0.000 A 
ENDBRANCH  14  17
ENDBRANCH   6  11
BRANCH   1  23
ATOM     22  F   UNL     1       6.338   3.287  14.743  0.00  0.00    +0.000 F 
ATOM     23  C   UNL     1       6.485   4.470  15.402  0.00  0.00    +0.000 C 
ATOM     24  F   UNL     1       7.680   4.386  16.049  0.00  0.00    +0.000 F 
ATOM     25  F   UNL     1       6.647   5.415  14.435  0.00  0.00    +0.000 F 
ENDBRANCH   1  23
TORSDOF 3
ENDMDL
MODEL 5
REMARK VINA RESULT:      -8.1      7.214      8.494
REMARK  Name = 
REMARK  3 active torsions:
REMARK  status: ('A' for Active; 'I' for Inactive)
REMARK    1  A    between atoms: C_2  and  C_5
REMARK    2  A    between atoms: C_10  and  C_11
REMARK    3  A    between atoms: C_14  and  C_15
REMARK                            x       y       z     vdW  Elec       q    Type
REMARK                         _______ _______ _______ _____ _____    ______ ____
ROOT
ATOM      1  C   UNL     1       5.312   4.854  17.120  0.00  0.00    +0.000 A 
ATOM      2  C   UNL     1       5.213   4.094  18.300  0.00  0.00    +0.000 A 
ATOM      3  C   UNL     1       4.379   4.480  19.356  0.00  0.00    +0.000 A 
ATOM      4  C   UNL     1       3.660   5.661  19.181  0.00  0.00    +0.000 A 
ATOM      5  N   UNL     1       2.788   6.337  19.992  0.00  0.00    +0.000 N 
ATOM      6  C   UNL     1       2.380   7.484  19.350  0.00  0.00    +0.000 A 
ATOM      7  N   UNL     1       2.938   7.555  18.154  0.00  0.00    +0.000 NA
ATOM      8  C   UNL     1       3.729   6.440  18.036  0.00  0.00    +0.000 A 
ATOM      9  C   UNL     1       4.556   6.034  16.980  0.00  0.00    +0.000 A 
ATOM     10  H   UNL     1       2.533   6.072  20.930  0.00  0.00    +0.000 HD
ENDROOT
BRANCH   6  11
ATOM     11  C   UNL     1       1.508   8.486  19.965  0.00  0.00    +0.000 A 
ATOM     12  C   UNL     1       1.198   8.391  21.327  0.00  0.00    +0.000 A 
ATOM     13  C   UNL     1       0.323   9.303  21.929  0.00  0.00    +0.000 A 
ATOM     14  C   UNL     1      -0.258  10.334  21.181  0.00  0.00    +0.000 A 
ATOM     15  C   UNL     1       0.078  10.450  19.827  0.00  0.00    +0.000 A 
ATOM     16  C   UNL     1       0.951   9.537  19.225  0.00  0.00    +0.000 A 
BRANCH  14  17
ATOM     17  C   UNL     1      -1.184  11.265  21.804  0.00  0.00    +0.000 A 
ATOM     18  C   UNL     1      -1.619  11.368  23.155  0.00  0.00    +0.000 A 
ATOM     19  C   UNL     1      -2.508  12.417  23.200  0.00  0.00    +0.000 A 
ATOM     20  O   UNL     1      -2.662  12.961  21.968  0.00  0.00    +0.000 OA
ATOM     21  C   UNL     1      -1.864  12.258  21.126  0.00  0.00    +0.000 A 
ENDBRANCH  14  17
ENDBRANCH   6  11
BRANCH   1  23
ATOM     22  F   UNL     1       6.199   5.265  14.925  0.00  0.00    +0.000 F 
ATOM     23  C   UNL     1       6.231   4.430  16.001  0.00  0.00    +0.000 C 
ATOM     24  F   UNL     1       5.929   3.193  15.518  0.00  0.00    +0.000 F 
ATOM     25  F   UNL     1       7.536   4.373  16.387  0.00  0.00    +0.000 F 
ENDBRANCH   1  23
TORSDOF 3
ENDMDL
MODEL 6
REMARK VINA RESULT:      -8.1      7.182      8.339
REMARK  Name = 
REMARK  3 active torsions:
REMARK  status: ('A' for Active; 'I' for Inactive)
REMARK    1  A    between atoms: C_2  and  C_5
REMARK    2  A    between atoms: C_10  and  C_11
REMARK    3  A    between atoms: C_14  and  C_15
REMARK                            x       y       z     vdW  Elec       q    Type
REMARK                         _______ _______ _______ _____ _____    ______ ____
ROOT
ATOM      1  C   UNL     1       5.360   4.827  17.182  0.00  0.00    +0.000 A 
ATOM      2  C   UNL     1       5.275   4.060  18.359  0.00  0.00    +0.000 A 
ATOM      3  C   UNL     1       4.429   4.421  19.414  0.00  0.00    +0.000 A 
ATOM      4  C   UNL     1       3.682   5.586  19.241  0.00  0.00    +0.000 A 
ATOM      5  N   UNL     1       2.791   6.237  20.051  0.00  0.00    +0.000 N 
ATOM      6  C   UNL     1       2.358   7.377  19.412  0.00  0.00    +0.000 A 
ATOM      7  N   UNL     1       2.919   7.466  18.219  0.00  0.00    +0.000 NA
ATOM      8  C   UNL     1       3.736   6.371  18.099  0.00  0.00    +0.000 A 
ATOM      9  C   UNL     1       4.576   5.989  17.045  0.00  0.00    +0.000 A 
ATOM     10  H   UNL     1       2.540   5.962  20.988  0.00  0.00    +0.000 HD
ENDROOT
BRANCH   6  11
ATOM     11  C   UNL     1       1.460   8.355  20.028  0.00  0.00    +0.000 A 
ATOM     12  C   UNL     1       0.997   9.440  19.275  0.00  0.00    +0.000 A 
ATOM     13  C   UNL     1       0.183  10.422  19.854  0.00  0.00    +0.000 A 
ATOM     14  C   UNL     1      -0.188  10.335  21.201  0.00  0.00    +0.000 A 
ATOM     15  C   UNL     1       0.248   9.233  21.947  0.00  0.00    +0.000 A 
ATOM     16  C   UNL     1       1.063   8.254  21.368  0.00  0.00    +0.000 A 
BRANCH  14  17
ATOM     17  C   UNL     1      -1.013  11.367  21.806  0.00  0.00    +0.000 A 
ATOM     18  C   UNL     1      -1.487  11.505  23.141  0.00  0.00    +0.000 A 
ATOM     19  C   UNL     1      -2.237  12.658  23.172  0.00  0.00    +0.000 A 
ATOM     20  O   UNL     1      -2.270  13.235  21.946  0.00  0.00    +0.000 OA
ATOM     21  C   UNL     1      -1.534  12.448  21.122  0.00  0.00    +0.000 A 
ENDBRANCH  14  17
ENDBRANCH   6  11
BRANCH   1  23
ATOM     22  F   UNL     1       6.017   3.205  15.536  0.00  0.00    +0.000 F 
ATOM     23  C   UNL     1       6.293   4.430  16.066  0.00  0.00    +0.000 C 
ATOM     24  F   UNL     1       7.594   4.374  16.468  0.00  0.00    +0.000 F 
ATOM     25  F   UNL     1       6.261   5.302  15.020  0.00  0.00    +0.000 F 
ENDBRANCH   1  23
TORSDOF 3
ENDMDL
MODEL 7
REMARK VINA RESULT:      -8.1      8.190      9.045
REMARK  Name = 
REMARK  3 active torsions:
REMARK  status: ('A' for Active; 'I' for Inactive)
REMARK    1  A    between atoms: C_2  and  C_5
REMARK    2  A    between atoms: C_10  and  C_11
REMARK    3  A    between atoms: C_14  and  C_15
REMARK                            x       y       z     vdW  Elec       q    Type
REMARK                         _______ _______ _______ _____ _____    ______ ____
ROOT
ATOM      1  C   UNL     1       4.050   5.511  17.872  0.00  0.00    +0.000 A 
ATOM      2  C   UNL     1       3.912   4.682  19.000  0.00  0.00    +0.000 A 
ATOM      3  C   UNL     1       3.121   5.052  20.094  0.00  0.00    +0.000 A 
ATOM      4  C   UNL     1       2.484   6.290  20.010  0.00  0.00    +0.000 A 
ATOM      5  N   UNL     1       1.672   6.969  20.879  0.00  0.00    +0.000 N 
ATOM      6  C   UNL     1       1.337   8.182  20.321  0.00  0.00    +0.000 A 
ATOM      7  N   UNL     1       1.885   8.295  19.124  0.00  0.00    +0.000 NA
ATOM      8  C   UNL     1       2.594   7.138  18.918  0.00  0.00    +0.000 A 
ATOM      9  C   UNL     1       3.377   6.748  17.824  0.00  0.00    +0.000 A 
ATOM     10  H   UNL     1       1.410   6.658  21.801  0.00  0.00    +0.000 HD
ENDROOT
BRANCH   6  11
ATOM     11  C   UNL     1       0.546   9.198  21.017  0.00  0.00    +0.000 A 
ATOM     12  C   UNL     1       0.057  10.301  20.306  0.00  0.00    +0.000 A 
ATOM     13  C   UNL     1      -0.654  11.316  20.956  0.00  0.00    +0.000 A 
ATOM     14  C   UNL     1      -0.896  11.247  22.333  0.00  0.00    +0.000 A 
ATOM     15  C   UNL     1      -0.436  10.128  23.039  0.00  0.00    +0.000 A 
ATOM     16  C   UNL     1       0.277   9.115  22.389  0.00  0.00    +0.000 A 
BRANCH  14  17
ATOM     17  C   UNL     1      -1.614  12.314  23.010  0.00  0.00    +0.000 A 
ATOM     18  C   UNL     1      -1.214  13.644  23.318  0.00  0.00    +0.000 A 
ATOM     19  C   UNL     1      -2.272  14.228  23.977  0.00  0.00    +0.000 A 
ATOM     20  O   UNL     1      -3.294  13.346  24.108  0.00  0.00    +0.000 OA
ATOM     21  C   UNL     1      -2.889  12.188  23.527  0.00  0.00    +0.000 A 
ENDBRANCH  14  17
ENDBRANCH   6  11
BRANCH   1  23
ATOM     22  F   UNL     1       6.204   4.807  17.074  0.00  0.00    +0.000 F 
ATOM     23  C   UNL     1       4.924   5.102  16.712  0.00  0.00    +0.000 C 
ATOM     24  F   UNL     1       5.023   6.075  15.765  0.00  0.00    +0.000 F 
ATOM     25  F   UNL     1       4.457   3.997  16.068  0.00  0.00    +0.000 F 
ENDBRANCH   1  23
TORSDOF 3
ENDMDL
MODEL 8
REMARK VINA RESULT:      -8.1      8.036      8.985
REMARK  Name = 
REMARK  3 active torsions:
REMARK  status: ('A' for Active; 'I' for Inactive)
REMARK    1  A    between atoms: C_2  and  C_5
REMARK    2  A    between atoms: C_10  and  C_11
REMARK    3  A    between atoms: C_14  and  C_15
REMARK                            x       y       z     vdW  Elec       q    Type
REMARK                         _______ _______ _______ _____ _____    ______ ____
ROOT
ATOM      1  C   UNL     1       4.175   5.386  17.870  0.00  0.00    +0.000 A 
ATOM      2  C   UNL     1       4.007   4.546  18.986  0.00  0.00    +0.000 A 
ATOM      3  C   UNL     1       3.188   4.906  20.063  0.00  0.00    +0.000 A 
ATOM      4  C   UNL     1       2.557   6.146  19.976  0.00  0.00    +0.000 A 
ATOM      5  N   UNL     1       1.724   6.817  20.831  0.00  0.00    +0.000 N 
ATOM      6  C   UNL     1       1.406   8.037  20.278  0.00  0.00    +0.000 A 
ATOM      7  N   UNL     1       1.984   8.162  19.096  0.00  0.00    +0.000 NA
ATOM      8  C   UNL     1       2.696   7.005  18.897  0.00  0.00    +0.000 A 
ATOM      9  C   UNL     1       3.506   6.625  17.819  0.00  0.00    +0.000 A 
ATOM     10  H   UNL     1       1.438   6.498  21.743  0.00  0.00    +0.000 HD
ENDROOT
BRANCH   6  11
ATOM     11  C   UNL     1       0.599   9.048  20.964  0.00  0.00    +0.000 A 
ATOM     12  C   UNL     1       0.107  10.145  20.246  0.00  0.00    +0.000 A 
ATOM     13  C   UNL     1      -0.619  11.155  20.888  0.00  0.00    +0.000 A 
ATOM     14  C   UNL     1      -0.873  11.087  22.262  0.00  0.00    +0.000 A 
ATOM     15  C   UNL     1      -0.410   9.974  22.975  0.00  0.00    +0.000 A 
ATOM     16  C   UNL     1       0.318   8.965  22.333  0.00  0.00    +0.000 A 
BRANCH  14  17
ATOM     17  C   UNL     1      -1.607  12.148  22.930  0.00  0.00    +0.000 A 
ATOM     18  C   UNL     1      -2.937  12.172  23.438  0.00  0.00    +0.000 A 
ATOM     19  C   UNL     1      -3.133  13.429  23.962  0.00  0.00    +0.000 A 
ATOM     20  O   UNL     1      -2.020  14.188  23.802  0.00  0.00    +0.000 OA
ATOM     21  C   UNL     1      -1.103  13.411  23.172  0.00  0.00    +0.000 A 
ENDBRANCH  14  17
ENDBRANCH   6  11
BRANCH   1  23
ATOM     22  F   UNL     1       4.533   4.043  15.911  0.00  0.00    +0.000 F 
ATOM     23  C   UNL     1       5.077   4.987  16.729  0.00  0.00    +0.000 C 
ATOM     24  F   UNL     1       6.260   4.466  17.158  0.00  0.00    +0.000 F 
ATOM     25  F   UNL     1       5.399   6.036  15.923  0.00  0.00    +0.000 F 
ENDBRANCH   1  23
TORSDOF 3
ENDMDL
MODEL 9
REMARK VINA RESULT:      -8.1      8.177      9.117
REMARK  Name = 
REMARK  3 active torsions:
REMARK  status: ('A' for Active; 'I' for Inactive)
REMARK    1  A    between atoms: C_2  and  C_5
REMARK    2  A    between atoms: C_10  and  C_11
REMARK    3  A    between atoms: C_14  and  C_15
REMARK                            x       y       z     vdW  Elec       q    Type
REMARK                         _______ _______ _______ _____ _____    ______ ____
ROOT
ATOM      1  C   UNL     1       3.934   5.310  18.023  0.00  0.00    +0.000 A 
ATOM      2  C   UNL     1       3.670   4.487  19.133  0.00  0.00    +0.000 A 
ATOM      3  C   UNL     1       2.860   4.915  20.191  0.00  0.00    +0.000 A 
ATOM      4  C   UNL     1       2.335   6.202  20.091  0.00  0.00    +0.000 A 
ATOM      5  N   UNL     1       1.540   6.941  20.927  0.00  0.00    +0.000 N 
ATOM      6  C   UNL     1       1.337   8.183  20.368  0.00  0.00    +0.000 A 
ATOM      7  N   UNL     1       1.952   8.258  19.201  0.00  0.00    +0.000 NA
ATOM      8  C   UNL     1       2.570   7.047  19.016  0.00  0.00    +0.000 A 
ATOM      9  C   UNL     1       3.371   6.600  17.957  0.00  0.00    +0.000 A 
ATOM     10  H   UNL     1       1.208   6.647  21.832  0.00  0.00    +0.000 HD
ENDROOT
BRANCH   6  11
ATOM     11  C   UNL     1       0.601   9.257  21.036  0.00  0.00    +0.000 A 
ATOM     12  C   UNL     1       0.286   9.139  22.395  0.00  0.00    +0.000 A 
ATOM     13  C   UNL     1      -0.466  10.125  23.046  0.00  0.00    +0.000 A 
ATOM     14  C   UNL     1      -0.914  11.254  22.350  0.00  0.00    +0.000 A 
ATOM     15  C   UNL     1      -0.571  11.389  20.999  0.00  0.00    +0.000 A 
ATOM     16  C   UNL     1       0.179  10.402  20.349  0.00  0.00    +0.000 A 
BRANCH  14  17
ATOM     17  C   UNL     1      -1.713  12.264  23.022  0.00  0.00    +0.000 A 
ATOM     18  C   UNL     1      -3.059  12.219  23.484  0.00  0.00    +0.000 A 
ATOM     19  C   UNL     1      -3.324  13.450  24.037  0.00  0.00    +0.000 A 
ATOM     20  O   UNL     1      -2.239  14.258  23.939  0.00  0.00    +0.000 OA
ATOM     21  C   UNL     1      -1.270  13.538  23.319  0.00  0.00    +0.000 A 
ENDBRANCH  14  17
ENDBRANCH   6  11
BRANCH   1  23
ATOM     22  F   UNL     1       6.132   4.698  17.269  0.00  0.00    +0.000 F 
ATOM     23  C   UNL     1       4.826   4.837  16.903  0.00  0.00    +0.000 C 
ATOM     24  F   UNL     1       4.830   5.692  15.842  0.00  0.00    +0.000 F 
ATOM     25  F   UNL     1       4.449   3.626  16.407  0.00  0.00    +0.000 F 
ENDBRANCH   1  23
TORSDOF 3
ENDMDL
