MODEL 1
REMARK VINA RESULT:      -8.1      0.000      0.000
REMARK  Name = 
REMARK  9 active torsions:
REMARK  status: ('A' for Active; 'I' for Inactive)
REMARK    1  A    between atoms: C_1  and  C_2
REMARK    2  A    between atoms: C_2  and  C_3
REMARK    3  A    between atoms: C_2  and  N_4
REMARK    4  A    between atoms: C_2  and  C_5
REMARK    5  A    between atoms: N_7  and  C_8
REMARK    6  A    between atoms: C_8  and  C_9
REMARK    7  A    between atoms: C_8  and  C_17
REMARK    8  A    between atoms: C_9  and  C_10
REMARK    9  A    between atoms: C_10  and  C_11
REMARK                            x       y       z     vdW  Elec       q    Type
REMARK                         _______ _______ _______ _____ _____    ______ ____
ROOT
ATOM      1  C   UNL     1       0.428  10.035  18.535  0.00  0.00    +0.000 C 
ENDROOT
BRANCH   1   2
ATOM      2  C   UNL     1       0.970   9.025  19.628  0.00  0.00    +0.000 C 
ATOM      3  O   UNL     1       0.483   9.025  20.765  0.00  0.00    +0.000 OA
ATOM      4  N   UNL     1       1.934   8.058  19.276  0.00  0.00    +0.000 N 
ATOM      5  C   UNL     1       2.336   7.065  20.274  0.00  0.00    +0.000 C 
ATOM      6  C   UNL     1       2.734   5.693  19.683  0.00  0.00    +0.000 C 
ATOM      7  C   UNL     1       3.523   5.679  18.352  0.00  0.00    +0.000 C 
ATOM      8  C   UNL     1       3.171   4.333  17.630  0.00  0.00    +0.000 C 
ATOM      9  C   UNL     1       4.077   4.270  16.401  0.00  0.00    +0.000 C 
ATOM     10  C   UNL     1       5.331   4.739  17.066  0.00  0.00    +0.000 A 
ATOM     11  C   UNL     1       6.614   4.398  16.655  0.00  0.00    +0.000 A 
ATOM     12  C   UNL     1       7.650   4.627  17.548  0.00  0.00    +0.000 A 
ATOM     13  C   UNL     1       7.382   5.209  18.799  0.00  0.00    +0.000 A 
ATOM     14  C   UNL     1       6.079   5.650  19.162  0.00  0.00    +0.000 A 
ATOM     15  C   UNL     1       5.040   5.440  18.263  0.00  0.00    +0.000 A 
ATOM     16  C   UNL     1       3.082   6.873  17.459  0.00  0.00    +0.000 C 
ATOM     17  C   UNL     1       2.882   8.199  18.188  0.00  0.00    +0.000 C 
ENDBRANCH   1   2
BRANCH   1  20
ATOM     18  C   UNL     1       1.322  12.284  19.390  0.00  0.00    +0.000 C 
ATOM     19  O   UNL     1       0.935  12.179  20.548  0.00  0.00    +0.000 OA
ATOM     20  N   UNL     1       1.173  11.302  18.429  0.00  0.00    +0.000 N 
ATOM     21  H   UNL     1       1.511  11.592  17.515  0.00  0.00    +0.000 HD
BRANCH  18  23
ATOM     22  C   UNL     1       3.185  13.981  19.773  0.00  0.00    +0.000 C 
ATOM     23  C   UNL     1       2.042  13.568  18.840  0.00  0.00    +0.000 C 
ATOM     24  C   UNL     1       1.057  14.738  18.694  0.00  0.00    +0.000 C 
BRANCH  23  25
ATOM     25  N   UNL     1       2.633  13.254  17.505  0.00  0.00    +0.000 NA
ATOM     26  H   UNL     1       2.395  14.011  16.863  0.00  0.00    +0.000 HD
ATOM     27  H   UNL     1       2.151  12.432  17.131  0.00  0.00    +0.000 HD
ENDBRANCH  23  25
ENDBRANCH  18  23
ENDBRANCH   1  20
BRANCH   1  28
ATOM     28  C   UNL     1      -1.125  10.180  18.651  0.00  0.00    +0.000 C 
BRANCH  28  29
ATOM     29  C   UNL     1      -1.790  11.132  17.641  0.00  0.00    +0.000 C 
BRANCH  29  30
ATOM     30  C   UNL     1      -3.210  11.533  18.014  0.00  0.00    +0.000 A 
ATOM     31  C   UNL     1      -3.489  12.103  19.259  0.00  0.00    +0.000 A 
ATOM     32  C   UNL     1      -4.788  12.520  19.591  0.00  0.00    +0.000 A 
ATOM     33  C   UNL     1      -5.824  12.353  18.684  0.00  0.00    +0.000 A 
ATOM     34  C   UNL     1      -5.567  11.766  17.445  0.00  0.00    +0.000 A 
ATOM     35  C   UNL     1      -4.268  11.357  17.114  0.00  0.00    +0.000 A 
ENDBRANCH  29  30
ENDBRANCH  28  29
ENDBRANCH   1  28
TORSDOF 7
ENDMDL
MODEL 2
REMARK VINA RESULT:      -8.1      1.119      1.673
REMARK  Name = 
REMARK  9 active torsions:
REMARK  status: ('A' for Active; 'I' for Inactive)
REMARK    1  A    between atoms: C_1  and  C_2
REMARK    2  A    between atoms: C_2  and  C_3
REMARK    3  A    between atoms: C_2  and  N_4
REMARK    4  A    between atoms: C_2  and  C_5
REMARK    5  A    between atoms: N_7  and  C_8
REMARK    6  A    between atoms: C_8  and  C_9
REMARK    7  A    between atoms: C_8  and  C_17
REMARK    8  A    between atoms: C_9  and  C_10
REMARK    9  A    between atoms: C_10  and  C_11
REMARK                            x       y       z     vdW  Elec       q    Type
REMARK                         _______ _______ _______ _____ _____    ______ ____
ROOT
ATOM      1  C   UNL     1       0.392   9.884  19.323  0.00  0.00    +0.000 C 
ENDROOT
BRANCH   1   2
ATOM      2  C   UNL     1       1.032   8.799  20.284  0.00  0.00    +0.000 C 
ATOM      3  O   UNL     1       0.663   8.723  21.462  0.00  0.00    +0.000 OA
ATOM      4  N   UNL     1       1.946   7.856  19.771  0.00  0.00    +0.000 N 
ATOM      5  C   UNL     1       2.437   6.796  20.653  0.00  0.00    +0.000 C 
ATOM      6  C   UNL     1       2.759   5.466  19.932  0.00  0.00    +0.000 C 
ATOM      7  C   UNL     1       3.409   5.542  18.530  0.00  0.00    +0.000 C 
ATOM      8  C   UNL     1       2.972   4.249  17.759  0.00  0.00    +0.000 C 
ATOM      9  C   UNL     1       3.749   4.268  16.442  0.00  0.00    +0.000 C 
ATOM     10  C   UNL     1       5.068   4.687  17.006  0.00  0.00    +0.000 A 
ATOM     11  C   UNL     1       6.299   4.371  16.444  0.00  0.00    +0.000 A 
ATOM     12  C   UNL     1       7.423   4.535  17.241  0.00  0.00    +0.000 A 
ATOM     13  C   UNL     1       7.288   5.030  18.549  0.00  0.00    +0.000 A 
ATOM     14  C   UNL     1       6.034   5.449  19.072  0.00  0.00    +0.000 A 
ATOM     15  C   UNL     1       4.907   5.305  18.272  0.00  0.00    +0.000 A 
ATOM     16  C   UNL     1       2.892   6.795  17.770  0.00  0.00    +0.000 C 
ATOM     17  C   UNL     1       2.780   8.068  18.604  0.00  0.00    +0.000 C 
ENDBRANCH   1   2
BRANCH   1  20
ATOM     18  C   UNL     1       1.445  12.066  20.169  0.00  0.00    +0.000 C 
ATOM     19  O   UNL     1       1.182  11.919  21.357  0.00  0.00    +0.000 OA
ATOM     20  N   UNL     1       1.161  11.134  19.190  0.00  0.00    +0.000 N 
ATOM     21  H   UNL     1       1.407  11.456  18.257  0.00  0.00    +0.000 HD
BRANCH  18  23
ATOM     22  C   UNL     1       1.111  14.468  19.383  0.00  0.00    +0.000 C 
ATOM     23  C   UNL     1       2.141  13.354  19.598  0.00  0.00    +0.000 C 
ATOM     24  C   UNL     1       2.854  13.059  18.269  0.00  0.00    +0.000 C 
BRANCH  23  25
ATOM     25  N   UNL     1       3.142  13.843  20.594  0.00  0.00    +0.000 NA
ATOM     26  H   UNL     1       2.688  13.893  21.506  0.00  0.00    +0.000 HD
ATOM     27  H   UNL     1       3.370  14.814  20.361  0.00  0.00    +0.000 HD
ENDBRANCH  23  25
ENDBRANCH  18  23
ENDBRANCH   1  20
BRANCH   1  28
ATOM     28  C   UNL     1      -1.128  10.064  19.643  0.00  0.00    +0.000 C 
BRANCH  28  29
ATOM     29  C   UNL     1      -1.813  11.280  18.993  0.00  0.00    +0.000 C 
BRANCH  29  30
ATOM     30  C   UNL     1      -2.554  10.954  17.704  0.00  0.00    +0.000 A 
ATOM     31  C   UNL     1      -3.790  11.541  17.420  0.00  0.00    +0.000 A 
ATOM     32  C   UNL     1      -4.455  11.283  16.211  0.00  0.00    +0.000 A 
ATOM     33  C   UNL     1      -3.895  10.419  15.281  0.00  0.00    +0.000 A 
ATOM     34  C   UNL     1      -2.672   9.808  15.557  0.00  0.00    +0.000 A 
ATOM     35  C   UNL     1      -2.007  10.074  16.763  0.00  0.00    +0.000 A 
ENDBRANCH  29  30
ENDBRANCH  28  29
ENDBRANCH   1  28
TORSDOF 7
ENDMDL
MODEL 3
REMARK VINA RESULT:      -8.1      1.084      1.637
REMARK  Name = 
REMARK  9 active torsions:
REMARK  status: ('A' for Active; 'I' for Inactive)
REMARK    1  A    between atoms: C_1  and  C_2
REMARK    2  A    between atoms: C_2  and  C_3
REMARK    3  A    between atoms: C_2  and  N_4
REMARK    4  A    between atoms: C_2  and  C_5
REMARK    5  A    between atoms: N_7  and  C_8
REMARK    6  A    between atoms: C_8  and  C_9
REMARK    7  A    between atoms: C_8  and  C_17
REMARK    8  A    between atoms: C_9  and  C_10
REMARK    9  A    between atoms: C_10  and  C_11
REMARK                            x       y       z     vdW  Elec       q    Type
REMARK                         _______ _______ _______ _____ _____    ______ ____
ROOT
ATOM      1  C   UNL     1       0.158  10.525  19.611  0.00  0.00    +0.000 C 
ENDROOT
BRANCH   1   2
ATOM      2  C   UNL     1       0.811   9.486  20.613  0.00  0.00    +0.000 C 
ATOM      3  O   UNL     1       0.636   9.607  21.831  0.00  0.00    +0.000 OA
ATOM      4  N   UNL     1       1.505   8.366  20.110  0.00  0.00    +0.000 N 
ATOM      5  C   UNL     1       2.003   7.362  21.053  0.00  0.00    +0.000 C 
ATOM      6  C   UNL     1       2.036   5.922  20.491  0.00  0.00    +0.000 C 
ATOM      7  C   UNL     1       2.449   5.732  19.012  0.00  0.00    +0.000 C 
ATOM      8  C   UNL     1       1.736   4.431  18.507  0.00  0.00    +0.000 C 
ATOM      9  C   UNL     1       2.280   4.177  17.100  0.00  0.00    +0.000 C 
ATOM     10  C   UNL     1       3.716   4.469  17.397  0.00  0.00    +0.000 A 
ATOM     11  C   UNL     1       4.789   3.914  16.711  0.00  0.00    +0.000 A 
ATOM     12  C   UNL     1       6.040   4.011  17.300  0.00  0.00    +0.000 A 
ATOM     13  C   UNL     1       6.186   4.677  18.530  0.00  0.00    +0.000 A 
ATOM     14  C   UNL     1       5.096   5.331  19.167  0.00  0.00    +0.000 A 
ATOM     15  C   UNL     1       3.843   5.253  18.571  0.00  0.00    +0.000 A 
ATOM     16  C   UNL     1       1.970   6.945  18.165  0.00  0.00    +0.000 C 
ATOM     17  C   UNL     1       2.154   8.313  18.815  0.00  0.00    +0.000 C 
ENDBRANCH   1   2
BRANCH   1  20
ATOM     18  C   UNL     1       1.567  12.638  19.981  0.00  0.00    +0.000 C 
ATOM     19  O   UNL     1       1.467  12.685  21.201  0.00  0.00    +0.000 OA
ATOM     20  N   UNL     1       1.037  11.632  19.196  0.00  0.00    +0.000 N 
ATOM     21  H   UNL     1       1.179  11.793  18.201  0.00  0.00    +0.000 HD
BRANCH  18  23
ATOM     22  C   UNL     1       3.509  14.287  19.924  0.00  0.00    +0.000 C 
ATOM     23  C   UNL     1       2.315  13.735  19.140  0.00  0.00    +0.000 C 
ATOM     24  C   UNL     1       1.373  14.890  18.769  0.00  0.00    +0.000 C 
BRANCH  23  25
ATOM     25  N   UNL     1       2.840  13.108  17.889  0.00  0.00    +0.000 NA
ATOM     26  H   UNL     1       2.726  13.774  17.125  0.00  0.00    +0.000 HD
ATOM     27  H   UNL     1       2.227  12.325  17.648  0.00  0.00    +0.000 HD
ENDBRANCH  23  25
ENDBRANCH  18  23
ENDBRANCH   1  20
BRANCH   1  28
ATOM     28  C   UNL     1      -1.260  10.951  20.118  0.00  0.00    +0.000 C 
BRANCH  28  29
ATOM     29  C   UNL     1      -1.958  12.059  19.311  0.00  0.00    +0.000 C 
BRANCH  29  30
ATOM     30  C   UNL     1      -2.685  11.555  18.071  0.00  0.00    +0.000 A 
ATOM     31  C   UNL     1      -4.067  11.706  17.941  0.00  0.00    +0.000 A 
ATOM     32  C   UNL     1      -4.737  11.288  16.780  0.00  0.00    +0.000 A 
ATOM     33  C   UNL     1      -4.027  10.698  15.744  0.00  0.00    +0.000 A 
ATOM     34  C   UNL     1      -2.649  10.520  15.867  0.00  0.00    +0.000 A 
ATOM     35  C   UNL     1      -1.983  10.946  17.024  0.00  0.00    +0.000 A 
ENDBRANCH  29  30
ENDBRANCH  28  29
ENDBRANCH   1  28
TORSDOF 7
ENDMDL
MODEL 4
REMARK VINA RESULT:      -7.9      1.415      2.017
REMARK  Name = 
REMARK  9 active torsions:
REMARK  status: ('A' for Active; 'I' for Inactive)
REMARK    1  A    between atoms: C_1  and  C_2
REMARK    2  A    between atoms: C_2  and  C_3
REMARK    3  A    between atoms: C_2  and  N_4
REMARK    4  A    between atoms: C_2  and  C_5
REMARK    5  A    between atoms: N_7  and  C_8
REMARK    6  A    between atoms: C_8  and  C_9
REMARK    7  A    between atoms: C_8  and  C_17
REMARK    8  A    between atoms: C_9  and  C_10
REMARK    9  A    between atoms: C_10  and  C_11
REMARK                            x       y       z     vdW  Elec       q    Type
REMARK                         _______ _______ _______ _____ _____    ______ ____
ROOT
ATOM      1  C   UNL     1       0.252  10.481  19.728  0.00  0.00    +0.000 C 
ENDROOT
BRANCH   1   2
ATOM      2  C   UNL     1       0.877   9.395  20.697  0.00  0.00    +0.000 C 
ATOM      3  O   UNL     1       0.689   9.474  21.917  0.00  0.00    +0.000 OA
ATOM      4  N   UNL     1       1.561   8.284  20.162  0.00  0.00    +0.000 N 
ATOM      5  C   UNL     1       2.031   7.239  21.072  0.00  0.00    +0.000 C 
ATOM      6  C   UNL     1       2.050   5.820  20.457  0.00  0.00    +0.000 C 
ATOM      7  C   UNL     1       2.477   5.678  18.977  0.00  0.00    +0.000 C 
ATOM      8  C   UNL     1       1.751   4.408  18.415  0.00  0.00    +0.000 C 
ATOM      9  C   UNL     1       2.308   4.198  17.007  0.00  0.00    +0.000 C 
ATOM     10  C   UNL     1       3.744   4.456  17.331  0.00  0.00    +0.000 A 
ATOM     11  C   UNL     1       4.817   3.910  16.637  0.00  0.00    +0.000 A 
ATOM     12  C   UNL     1       6.063   3.966  17.244  0.00  0.00    +0.000 A 
ATOM     13  C   UNL     1       6.204   4.583  18.499  0.00  0.00    +0.000 A 
ATOM     14  C   UNL     1       5.116   5.231  19.148  0.00  0.00    +0.000 A 
ATOM     15  C   UNL     1       3.869   5.195  18.535  0.00  0.00    +0.000 A 
ATOM     16  C   UNL     1       2.027   6.928  18.170  0.00  0.00    +0.000 C 
ATOM     17  C   UNL     1       2.224   8.269  18.873  0.00  0.00    +0.000 C 
ENDBRANCH   1   2
BRANCH   1  20
ATOM     18  C   UNL     1       1.887  12.352  19.087  0.00  0.00    +0.000 C 
ATOM     19  O   UNL     1       2.405  11.789  18.129  0.00  0.00    +0.000 OA
ATOM     20  N   UNL     1       0.846  11.825  19.827  0.00  0.00    +0.000 N 
ATOM     21  H   UNL     1       0.586  12.415  20.614  0.00  0.00    +0.000 HD
BRANCH  18  23
ATOM     22  C   UNL     1       1.194  14.761  19.546  0.00  0.00    +0.000 C 
ATOM     23  C   UNL     1       2.352  13.760  19.607  0.00  0.00    +0.000 C 
ATOM     24  C   UNL     1       3.531  14.297  18.782  0.00  0.00    +0.000 C 
BRANCH  23  25
ATOM     25  N   UNL     1       2.770  13.632  21.035  0.00  0.00    +0.000 NA
ATOM     26  H   UNL     1       3.777  13.468  21.061  0.00  0.00    +0.000 HD
ATOM     27  H   UNL     1       2.355  12.774  21.410  0.00  0.00    +0.000 HD
ENDBRANCH  23  25
ENDBRANCH  18  23
ENDBRANCH   1  20
BRANCH   1  28
ATOM     28  C   UNL     1      -1.310  10.433  19.794  0.00  0.00    +0.000 C 
BRANCH  28  29
ATOM     29  C   UNL     1      -2.051  11.557  19.047  0.00  0.00    +0.000 C 
BRANCH  29  30
ATOM     30  C   UNL     1      -2.685  11.112  17.736  0.00  0.00    +0.000 A 
ATOM     31  C   UNL     1      -3.937  11.594  17.347  0.00  0.00    +0.000 A 
ATOM     32  C   UNL     1      -4.507  11.227  16.118  0.00  0.00    +0.000 A 
ATOM     33  C   UNL     1      -3.832  10.356  15.273  0.00  0.00    +0.000 A 
ATOM     34  C   UNL     1      -2.591   9.848  15.656  0.00  0.00    +0.000 A 
ATOM     35  C   UNL     1      -2.022  10.223  16.881  0.00  0.00    +0.000 A 
ENDBRANCH  29  30
ENDBRANCH  28  29
ENDBRANCH   1  28
TORSDOF 7
ENDMDL
MODEL 5
REMARK VINA RESULT:      -7.9      1.274      1.460
REMARK  Name = 
REMARK  9 active torsions:
REMARK  status: ('A' for Active; 'I' for Inactive)
REMARK    1  A    between atoms: C_1  and  C_2
REMARK    2  A    between atoms: C_2  and  C_3
REMARK    3  A    between atoms: C_2  and  N_4
REMARK    4  A    between atoms: C_2  and  C_5
REMARK    5  A    between atoms: N_7  and  C_8
REMARK    6  A    between atoms: C_8  and  C_9
REMARK    7  A    between atoms: C_8  and  C_17
REMARK    8  A    between atoms: C_9  and  C_10
REMARK    9  A    between atoms: C_10  and  C_11
REMARK                            x       y       z     vdW  Elec       q    Type
REMARK                         _______ _______ _______ _____ _____    ______ ____
ROOT
ATOM      1  C   UNL     1       0.035  10.682  18.887  0.00  0.00    +0.000 C 
ENDROOT
BRANCH   1   2
ATOM      2  C   UNL     1       0.663   9.778  20.026  0.00  0.00    +0.000 C 
ATOM      3  O   UNL     1       0.419  10.022  21.214  0.00  0.00    +0.000 OA
ATOM      4  N   UNL     1       1.415   8.635  19.683  0.00  0.00    +0.000 N 
ATOM      5  C   UNL     1       1.890   7.755  20.752  0.00  0.00    +0.000 C 
ATOM      6  C   UNL     1       1.995   6.265  20.350  0.00  0.00    +0.000 C 
ATOM      7  C   UNL     1       2.491   5.934  18.923  0.00  0.00    +0.000 C 
ATOM      8  C   UNL     1       1.844   4.563  18.526  0.00  0.00    +0.000 C 
ATOM      9  C   UNL     1       2.470   4.180  17.184  0.00  0.00    +0.000 C 
ATOM     10  C   UNL     1       3.879   4.550  17.520  0.00  0.00    +0.000 A 
ATOM     11  C   UNL     1       5.003   3.963  16.952  0.00  0.00    +0.000 A 
ATOM     12  C   UNL     1       6.217   4.164  17.590  0.00  0.00    +0.000 A 
ATOM     13  C   UNL     1       6.278   4.961  18.747  0.00  0.00    +0.000 A 
ATOM     14  C   UNL     1       5.137   5.642  19.254  0.00  0.00    +0.000 A 
ATOM     15  C   UNL     1       3.920   5.459  18.607  0.00  0.00    +0.000 A 
ATOM     16  C   UNL     1       2.024   7.032  17.928  0.00  0.00    +0.000 C 
ATOM     17  C   UNL     1       2.134   8.467  18.435  0.00  0.00    +0.000 C 
ENDBRANCH   1   2
BRANCH   1  20
ATOM     18  C   UNL     1       0.874  13.104  18.742  0.00  0.00    +0.000 C 
ATOM     19  O   UNL     1       1.765  12.914  17.922  0.00  0.00    +0.000 OA
ATOM     20  N   UNL     1       0.002  12.126  19.181  0.00  0.00    +0.000 N 
ATOM     21  H   UNL     1      -0.634  12.461  19.900  0.00  0.00    +0.000 HD
BRANCH  18  23
ATOM     22  C   UNL     1       1.789  15.445  19.162  0.00  0.00    +0.000 C 
ATOM     23  C   UNL     1       0.610  14.499  19.413  0.00  0.00    +0.000 C 
ATOM     24  C   UNL     1       0.388  14.356  20.927  0.00  0.00    +0.000 C 
BRANCH  23  25
ATOM     25  N   UNL     1      -0.605  15.110  18.795  0.00  0.00    +0.000 NA
ATOM     26  H   UNL     1      -1.132  14.372  18.327  0.00  0.00    +0.000 HD
ATOM     27  H   UNL     1      -0.297  15.730  18.040  0.00  0.00    +0.000 HD
ENDBRANCH  23  25
ENDBRANCH  18  23
ENDBRANCH   1  20
BRANCH   1  28
ATOM     28  C   UNL     1      -1.315  10.069  18.389  0.00  0.00    +0.000 C 
BRANCH  28  29
ATOM     29  C   UNL     1      -2.038  10.848  17.276  0.00  0.00    +0.000 C 
BRANCH  29  30
ATOM     30  C   UNL     1      -3.385  11.418  17.697  0.00  0.00    +0.000 A 
ATOM     31  C   UNL     1      -3.610  11.824  19.015  0.00  0.00    +0.000 A 
ATOM     32  C   UNL     1      -4.833  12.396  19.399  0.00  0.00    +0.000 A 
ATOM     33  C   UNL     1      -5.850  12.550  18.468  0.00  0.00    +0.000 A 
ATOM     34  C   UNL     1      -5.650  12.130  17.154  0.00  0.00    +0.000 A 
ATOM     35  C   UNL     1      -4.425  11.567  16.771  0.00  0.00    +0.000 A 
ENDBRANCH  29  30
ENDBRANCH  28  29
ENDBRANCH   1  28
TORSDOF 7
ENDMDL
MODEL 6
REMARK VINA RESULT:      -7.9      1.075      1.517
REMARK  Name = 
REMARK  9 active torsions:
REMARK  status: ('A' for Active; 'I' for Inactive)
REMARK    1  A    between atoms: C_1  and  C_2
REMARK    2  A    between atoms: C_2  and  C_3
REMARK    3  A    between atoms: C_2  and  N_4
REMARK    4  A    between atoms: C_2  and  C_5
REMARK    5  A    between atoms: N_7  and  C_8
REMARK    6  A    between atoms: C_8  and  C_9
REMARK    7  A    between atoms: C_8  and  C_17
REMARK    8  A    between atoms: C_9  and  C_10
REMARK    9  A    between atoms: C_10  and  C_11
REMARK                            x       y       z     vdW  Elec       q    Type
REMARK                         _______ _______ _______ _____ _____    ______ ____
ROOT
ATOM      1  C   UNL     1       0.138  10.749  18.959  0.00  0.00    +0.000 C 
ENDROOT
BRANCH   1   2
ATOM      2  C   UNL     1       0.710   9.799  20.090  0.00  0.00    +0.000 C 
ATOM      3  O   UNL     1       0.452  10.026  21.278  0.00  0.00    +0.000 OA
ATOM      4  N   UNL     1       1.428   8.637  19.737  0.00  0.00    +0.000 N 
ATOM      5  C   UNL     1       1.849   7.718  20.795  0.00  0.00    +0.000 C 
ATOM      6  C   UNL     1       1.908   6.234  20.363  0.00  0.00    +0.000 C 
ATOM      7  C   UNL     1       2.421   5.915  18.939  0.00  0.00    +0.000 C 
ATOM      8  C   UNL     1       1.733   4.577  18.499  0.00  0.00    +0.000 C 
ATOM      9  C   UNL     1       2.371   4.200  17.162  0.00  0.00    +0.000 C 
ATOM     10  C   UNL     1       3.785   4.512  17.532  0.00  0.00    +0.000 A 
ATOM     11  C   UNL     1       4.898   3.896  16.974  0.00  0.00    +0.000 A 
ATOM     12  C   UNL     1       6.107   4.040  17.639  0.00  0.00    +0.000 A 
ATOM     13  C   UNL     1       6.173   4.809  18.813  0.00  0.00    +0.000 A 
ATOM     14  C   UNL     1       5.047   5.521  19.314  0.00  0.00    +0.000 A 
ATOM     15  C   UNL     1       3.838   5.395  18.640  0.00  0.00    +0.000 A 
ATOM     16  C   UNL     1       2.013   7.051  17.958  0.00  0.00    +0.000 C 
ATOM     17  C   UNL     1       2.165   8.470  18.499  0.00  0.00    +0.000 C 
ENDBRANCH   1   2
BRANCH   1  20
ATOM     18  C   UNL     1       1.946  12.498  18.447  0.00  0.00    +0.000 C 
ATOM     19  O   UNL     1       2.716  11.759  17.845  0.00  0.00    +0.000 OA
ATOM     20  N   UNL     1       0.713  12.106  18.932  0.00  0.00    +0.000 N 
ATOM     21  H   UNL     1       0.241  12.844  19.448  0.00  0.00    +0.000 HD
BRANCH  18  23
ATOM     22  C   UNL     1       3.047  14.126  20.069  0.00  0.00    +0.000 C 
ATOM     23  C   UNL     1       2.269  14.004  18.755  0.00  0.00    +0.000 C 
ATOM     24  C   UNL     1       0.984  14.842  18.847  0.00  0.00    +0.000 C 
BRANCH  23  25
ATOM     25  N   UNL     1       3.132  14.546  17.662  0.00  0.00    +0.000 NA
ATOM     26  H   UNL     1       2.653  14.397  16.773  0.00  0.00    +0.000 HD
ATOM     27  H   UNL     1       3.973  13.964  17.608  0.00  0.00    +0.000 HD
ENDBRANCH  23  25
ENDBRANCH  18  23
ENDBRANCH   1  20
BRANCH   1  28
ATOM     28  C   UNL     1      -1.424  10.683  18.933  0.00  0.00    +0.000 C 
BRANCH  28  29
ATOM     29  C   UNL     1      -2.159  12.011  19.192  0.00  0.00    +0.000 C 
BRANCH  29  30
ATOM     30  C   UNL     1      -3.648  11.963  18.879  0.00  0.00    +0.000 A 
ATOM     31  C   UNL     1      -4.108  11.447  17.665  0.00  0.00    +0.000 A 
ATOM     32  C   UNL     1      -5.482  11.354  17.390  0.00  0.00    +0.000 A 
ATOM     33  C   UNL     1      -6.408  11.795  18.325  0.00  0.00    +0.000 A 
ATOM     34  C   UNL     1      -5.965  12.333  19.533  0.00  0.00    +0.000 A 
ATOM     35  C   UNL     1      -4.593  12.418  19.807  0.00  0.00    +0.000 A 
ENDBRANCH  29  30
ENDBRANCH  28  29
ENDBRANCH   1  28
TORSDOF 7
ENDMDL
MODEL 7
REMARK VINA RESULT:      -7.9      1.434      2.042
REMARK  Name = 
REMARK  9 active torsions:
REMARK  status: ('A' for Active; 'I' for Inactive)
REMARK    1  A    between atoms: C_1  and  C_2
REMARK    2  A    between atoms: C_2  and  C_3
REMARK    3  A    between atoms: C_2  and  N_4
REMARK    4  A    between atoms: C_2  and  C_5
REMARK    5  A    between atoms: N_7  and  C_8
REMARK    6  A    between atoms: C_8  and  C_9
REMARK    7  A    between atoms: C_8  and  C_17
REMARK    8  A    between atoms: C_9  and  C_10
REMARK    9  A    between atoms: C_10  and  C_11
REMARK                            x       y       z     vdW  Elec       q    Type
REMARK                         _______ _______ _______ _____ _____    ______ ____
ROOT
ATOM      1  C   UNL     1       0.126  10.770  18.852  0.00  0.00    +0.000 C 
ENDROOT
BRANCH   1   2
ATOM      2  C   UNL     1       0.692   9.829  19.995  0.00  0.00    +0.000 C 
ATOM      3  O   UNL     1       0.410  10.054  21.177  0.00  0.00    +0.000 OA
ATOM      4  N   UNL     1       1.432   8.677  19.655  0.00  0.00    +0.000 N 
ATOM      5  C   UNL     1       1.848   7.766  20.723  0.00  0.00    +0.000 C 
ATOM      6  C   UNL     1       1.936   6.282  20.294  0.00  0.00    +0.000 C 
ATOM      7  C   UNL     1       2.478   5.969  18.879  0.00  0.00    +0.000 C 
ATOM      8  C   UNL     1       1.817   4.620  18.430  0.00  0.00    +0.000 C 
ATOM      9  C   UNL     1       2.484   4.250  17.105  0.00  0.00    +0.000 C 
ATOM     10  C   UNL     1       3.887   4.583  17.499  0.00  0.00    +0.000 A 
ATOM     11  C   UNL     1       5.018   3.983  16.960  0.00  0.00    +0.000 A 
ATOM     12  C   UNL     1       6.212   4.145  17.646  0.00  0.00    +0.000 A 
ATOM     13  C   UNL     1       6.247   4.917  18.820  0.00  0.00    +0.000 A 
ATOM     14  C   UNL     1       5.103   5.613  19.300  0.00  0.00    +0.000 A 
ATOM     15  C   UNL     1       3.907   5.469  18.606  0.00  0.00    +0.000 A 
ATOM     16  C   UNL     1       2.071   7.097  17.890  0.00  0.00    +0.000 C 
ATOM     17  C   UNL     1       2.193   8.518  18.431  0.00  0.00    +0.000 C 
ENDBRANCH   1   2
BRANCH   1  20
ATOM     18  C   UNL     1       1.832  12.658  18.519  0.00  0.00    +0.000 C 
ATOM     19  O   UNL     1       2.698  11.992  17.963  0.00  0.00    +0.000 OA
ATOM     20  N   UNL     1       0.598  12.164  18.898  0.00  0.00    +0.000 N 
ATOM     21  H   UNL     1       0.035  12.853  19.392  0.00  0.00    +0.000 HD
BRANCH  18  23
ATOM     22  C   UNL     1       0.669  14.899  18.862  0.00  0.00    +0.000 C 
ATOM     23  C   UNL     1       2.019  14.175  18.883  0.00  0.00    +0.000 C 
ATOM     24  C   UNL     1       2.982  14.867  17.907  0.00  0.00    +0.000 C 
BRANCH  23  25
ATOM     25  N   UNL     1       2.568  14.273  20.269  0.00  0.00    +0.000 NA
ATOM     26  H   UNL     1       1.830  14.619  20.883  0.00  0.00    +0.000 HD
ATOM     27  H   UNL     1       3.279  15.010  20.274  0.00  0.00    +0.000 HD
ENDBRANCH  23  25
ENDBRANCH  18  23
ENDBRANCH   1  20
BRANCH   1  28
ATOM     28  C   UNL     1      -1.422  10.591  18.720  0.00  0.00    +0.000 C 
BRANCH  28  29
ATOM     29  C   UNL     1      -2.239  11.887  18.570  0.00  0.00    +0.000 C 
BRANCH  29  30
ATOM     30  C   UNL     1      -3.006  12.281  19.825  0.00  0.00    +0.000 A 
ATOM     31  C   UNL     1      -4.390  12.465  19.789  0.00  0.00    +0.000 A 
ATOM     32  C   UNL     1      -5.111  12.780  20.952  0.00  0.00    +0.000 A 
ATOM     33  C   UNL     1      -4.447  12.930  22.161  0.00  0.00    +0.000 A 
ATOM     34  C   UNL     1      -3.062  12.771  22.210  0.00  0.00    +0.000 A 
ATOM     35  C   UNL     1      -2.347  12.449  21.048  0.00  0.00    +0.000 A 
ENDBRANCH  29  30
ENDBRANCH  28  29
ENDBRANCH   1  28
TORSDOF 7
ENDMDL
MODEL 8
REMARK VINA RESULT:      -7.8      1.185      1.484
REMARK  Name = 
REMARK  9 active torsions:
REMARK  status: ('A' for Active; 'I' for Inactive)
REMARK    1  A    between atoms: C_1  and  C_2
REMARK    2  A    between atoms: C_2  and  C_3
REMARK    3  A    between atoms: C_2  and  N_4
REMARK    4  A    between atoms: C_2  and  C_5
REMARK    5  A    between atoms: N_7  and  C_8
REMARK    6  A    between atoms: C_8  and  C_9
REMARK    7  A    between atoms: C_8  and  C_17
REMARK    8  A    between atoms: C_9  and  C_10
REMARK    9  A    between atoms: C_10  and  C_11
REMARK                            x       y       z     vdW  Elec       q    Type
REMARK                         _______ _______ _______ _____ _____    ______ ____
ROOT
ATOM      1  C   UNL     1       0.170  10.796  18.850  0.00  0.00    +0.000 C 
ENDROOT
BRANCH   1   2
ATOM      2  C   UNL     1       0.736   9.855  19.992  0.00  0.00    +0.000 C 
ATOM      3  O   UNL     1       0.465  10.087  21.176  0.00  0.00    +0.000 OA
ATOM      4  N   UNL     1       1.464   8.695  19.652  0.00  0.00    +0.000 N 
ATOM      5  C   UNL     1       1.879   7.784  20.720  0.00  0.00    +0.000 C 
ATOM      6  C   UNL     1       1.951   6.298  20.296  0.00  0.00    +0.000 C 
ATOM      7  C   UNL     1       2.480   5.975  18.878  0.00  0.00    +0.000 C 
ATOM      8  C   UNL     1       1.803   4.631  18.439  0.00  0.00    +0.000 C 
ATOM      9  C   UNL     1       2.457   4.250  17.110  0.00  0.00    +0.000 C 
ATOM     10  C   UNL     1       3.866   4.572  17.493  0.00  0.00    +0.000 A 
ATOM     11  C   UNL     1       4.988   3.959  16.949  0.00  0.00    +0.000 A 
ATOM     12  C   UNL     1       6.188   4.113  17.625  0.00  0.00    +0.000 A 
ATOM     13  C   UNL     1       6.239   4.890  18.796  0.00  0.00    +0.000 A 
ATOM     14  C   UNL     1       5.104   5.597  19.282  0.00  0.00    +0.000 A 
ATOM     15  C   UNL     1       3.902   5.461  18.597  0.00  0.00    +0.000 A 
ATOM     16  C   UNL     1       2.075   7.103  17.888  0.00  0.00    +0.000 C 
ATOM     17  C   UNL     1       2.214   8.525  18.423  0.00  0.00    +0.000 C 
ENDBRANCH   1   2
BRANCH   1  20
ATOM     18  C   UNL     1       1.877  12.681  18.504  0.00  0.00    +0.000 C 
ATOM     19  O   UNL     1       2.736  12.016  17.939  0.00  0.00    +0.000 OA
ATOM     20  N   UNL     1       0.646  12.190  18.895  0.00  0.00    +0.000 N 
ATOM     21  H   UNL     1       0.089  12.878  19.396  0.00  0.00    +0.000 HD
BRANCH  18  23
ATOM     22  C   UNL     1       0.721  14.923  18.871  0.00  0.00    +0.000 C 
ATOM     23  C   UNL     1       2.070  14.197  18.870  0.00  0.00    +0.000 C 
ATOM     24  C   UNL     1       3.019  14.892  17.882  0.00  0.00    +0.000 C 
BRANCH  23  25
ATOM     25  N   UNL     1       2.641  14.292  20.248  0.00  0.00    +0.000 NA
ATOM     26  H   UNL     1       2.898  13.353  20.553  0.00  0.00    +0.000 HD
ATOM     27  H   UNL     1       1.889  14.577  20.881  0.00  0.00    +0.000 HD
ENDBRANCH  23  25
ENDBRANCH  18  23
ENDBRANCH   1  20
BRANCH   1  28
ATOM     28  C   UNL     1      -1.379  10.622  18.721  0.00  0.00    +0.000 C 
BRANCH  28  29
ATOM     29  C   UNL     1      -2.238  11.691  19.419  0.00  0.00    +0.000 C 
BRANCH  29  30
ATOM     30  C   UNL     1      -3.619  11.871  18.803  0.00  0.00    +0.000 A 
ATOM     31  C   UNL     1      -4.651  12.473  19.526  0.00  0.00    +0.000 A 
ATOM     32  C   UNL     1      -5.913  12.687  18.948  0.00  0.00    +0.000 A 
ATOM     33  C   UNL     1      -6.156  12.282  17.643  0.00  0.00    +0.000 A 
ATOM     34  C   UNL     1      -5.143  11.660  16.915  0.00  0.00    +0.000 A 
ATOM     35  C   UNL     1      -3.882  11.455  17.493  0.00  0.00    +0.000 A 
ENDBRANCH  29  30
ENDBRANCH  28  29
ENDBRANCH   1  28
TORSDOF 7
ENDMDL
MODEL 9
REMARK VINA RESULT:      -7.8      0.996      1.146
REMARK  Name = 
REMARK  9 active torsions:
REMARK  status: ('A' for Active; 'I' for Inactive)
REMARK    1  A    between atoms: C_1  and  C_2
REMARK    2  A    between atoms: C_2  and  C_3
REMARK    3  A    between atoms: C_2  and  N_4
REMARK    4  A    between atoms: C_2  and  C_5
REMARK    5  A    between atoms: N_7  and  C_8
REMARK    6  A    between atoms: C_8  and  C_9
REMARK    7  A    between atoms: C_8  and  C_17
REMARK    8  A    between atoms: C_9  and  C_10
REMARK    9  A    between atoms: C_10  and  C_11
REMARK                            x       y       z     vdW  Elec       q    Type
REMARK                         _______ _______ _______ _____ _____    ______ ____
ROOT
ATOM      1  C   UNL     1       0.425  10.220  18.525  0.00  0.00    +0.000 C 
ENDROOT
BRANCH   1   2
ATOM      2  C   UNL     1       0.896   9.170  19.614  0.00  0.00    +0.000 C 
ATOM      3  O   UNL     1       0.365   9.158  20.731  0.00  0.00    +0.000 OA
ATOM      4  N   UNL     1       1.847   8.184  19.277  0.00  0.00    +0.000 N 
ATOM      5  C   UNL     1       2.182   7.158  20.266  0.00  0.00    +0.000 C 
ATOM      6  C   UNL     1       2.564   5.789  19.658  0.00  0.00    +0.000 C 
ATOM      7  C   UNL     1       3.404   5.783  18.359  0.00  0.00    +0.000 C 
ATOM      8  C   UNL     1       3.043   4.464  17.593  0.00  0.00    +0.000 C 
ATOM      9  C   UNL     1       3.995   4.402  16.398  0.00  0.00    +0.000 C 
ATOM     10  C   UNL     1       5.235   4.821  17.122  0.00  0.00    +0.000 A 
ATOM     11  C   UNL     1       6.523   4.453  16.753  0.00  0.00    +0.000 A 
ATOM     12  C   UNL     1       7.529   4.632  17.690  0.00  0.00    +0.000 A 
ATOM     13  C   UNL     1       7.228   5.193  18.943  0.00  0.00    +0.000 A 
ATOM     14  C   UNL     1       5.925   5.662  19.266  0.00  0.00    +0.000 A 
ATOM     15  C   UNL     1       4.916   5.503  18.323  0.00  0.00    +0.000 A 
ATOM     16  C   UNL     1       3.031   7.009  17.478  0.00  0.00    +0.000 C 
ATOM     17  C   UNL     1       2.840   8.323  18.230  0.00  0.00    +0.000 C 
ENDBRANCH   1   2
BRANCH   1  20
ATOM     18  C   UNL     1       1.960  12.277  18.518  0.00  0.00    +0.000 C 
ATOM     19  O   UNL     1       2.868  11.796  17.851  0.00  0.00    +0.000 OA
ATOM     20  N   UNL     1       0.779  11.621  18.811  0.00  0.00    +0.000 N 
ATOM     21  H   UNL     1       0.170  12.162  19.420  0.00  0.00    +0.000 HD
BRANCH  18  23
ATOM     22  C   UNL     1       0.678  14.090  19.769  0.00  0.00    +0.000 C 
ATOM     23  C   UNL     1       2.025  13.718  19.141  0.00  0.00    +0.000 C 
ATOM     24  C   UNL     1       2.397  14.767  18.081  0.00  0.00    +0.000 C 
BRANCH  23  25
ATOM     25  N   UNL     1       3.052  13.729  20.225  0.00  0.00    +0.000 NA
ATOM     26  H   UNL     1       2.802  13.017  20.912  0.00  0.00    +0.000 HD
ATOM     27  H   UNL     1       2.972  14.617  20.727  0.00  0.00    +0.000 HD
ENDBRANCH  23  25
ENDBRANCH  18  23
ENDBRANCH   1  20
BRANCH   1  28
ATOM     28  C   UNL     1      -1.071   9.972  18.142  0.00  0.00    +0.000 C 
BRANCH  28  29
ATOM     29  C   UNL     1      -1.851  11.202  17.644  0.00  0.00    +0.000 C 
BRANCH  29  30
ATOM     30  C   UNL     1      -2.941  11.669  18.599  0.00  0.00    +0.000 A 
ATOM     31  C   UNL     1      -2.615  12.282  19.812  0.00  0.00    +0.000 A 
ATOM     32  C   UNL     1      -3.614  12.760  20.675  0.00  0.00    +0.000 A 
ATOM     33  C   UNL     1      -4.952  12.611  20.337  0.00  0.00    +0.000 A 
ATOM     34  C   UNL     1      -5.295  11.983  19.141  0.00  0.00    +0.000 A 
ATOM     35  C   UNL     1      -4.294  11.513  18.278  0.00  0.00    +0.000 A 
ENDBRANCH  29  30
ENDBRANCH  28  29
ENDBRANCH   1  28
TORSDOF 7
ENDMDL
