MODEL 1
REMARK VINA RESULT:      -9.1      0.000      0.000
REMARK  Name = 
REMARK  6 active torsions:
REMARK  status: ('A' for Active; 'I' for Inactive)
REMARK    1  A    between atoms: C_2  and  C_16
REMARK    2  A    between atoms: N_3  and  C_4
REMARK    3  A    between atoms: C_4  and  C_5
REMARK    4  A    between atoms: C_5  and  C_6
REMARK    5  A    between atoms: C_20  and  C_21
REMARK    6  A    between atoms: C_21  and  C_22
REMARK                            x       y       z     vdW  Elec       q    Type
REMARK                         _______ _______ _______ _____ _____    ______ ____
ROOT
ATOM      1  O   UNL     1       7.082   5.787  19.622  0.00  0.00    +0.000 OA
ATOM      2  C   UNL     1       7.169   6.026  18.425  0.00  0.00    +0.000 C 
ATOM      3  N   UNL     1       7.933   7.052  17.899  0.00  0.00    +0.000 N 
ATOM      4  H   UNL     1       7.735   7.347  16.951  0.00  0.00    +0.000 HD
ENDROOT
BRANCH   2   5
ATOM      5  C   UNL     1       6.382   5.234  17.445  0.00  0.00    +0.000 A 
ATOM      6  C   UNL     1       6.920   4.853  16.212  0.00  0.00    +0.000 A 
ATOM      7  C   UNL     1       6.148   4.102  15.324  0.00  0.00    +0.000 A 
ATOM      8  C   UNL     1       4.843   3.738  15.661  0.00  0.00    +0.000 A 
ATOM      9  C   UNL     1       4.294   4.106  16.899  0.00  0.00    +0.000 A 
ATOM     10  C   UNL     1       5.080   4.850  17.792  0.00  0.00    +0.000 A 
BRANCH   9  11
ATOM     11  C   UNL     1       2.883   3.713  17.265  0.00  0.00    +0.000 C 
BRANCH  11  12
ATOM     12  C   UNL     1       2.641   3.559  18.750  0.00  0.00    +0.000 A 
ATOM     13  C   UNL     1       1.649   4.314  19.395  0.00  0.00    +0.000 A 
ATOM     14  C   UNL     1       1.392   4.134  20.757  0.00  0.00    +0.000 A 
ATOM     15  C   UNL     1       2.128   3.206  21.489  0.00  0.00    +0.000 A 
ATOM     16  C   UNL     1       3.133   2.468  20.866  0.00  0.00    +0.000 A 
ATOM     17  C   UNL     1       3.391   2.646  19.506  0.00  0.00    +0.000 A 
ENDBRANCH  11  12
ENDBRANCH   9  11
ENDBRANCH   2   5
BRANCH   3  18
ATOM     18  C   UNL     1       8.590   7.987  18.797  0.00  0.00    +0.000 C 
BRANCH  18  19
ATOM     19  C   UNL     1       8.588   9.421  18.266  0.00  0.00    +0.000 C 
BRANCH  19  20
ATOM     20  C   UNL     1       9.228  10.379  19.223  0.00  0.00    +0.000 A 
ATOM     21  C   UNL     1       9.029  10.423  20.588  0.00  0.00    +0.000 A 
ATOM     22  N   UNL     1       9.766  11.456  21.100  0.00  0.00    +0.000 N 
ATOM     23  C   UNL     1      10.455  12.093  20.095  0.00  0.00    +0.000 A 
ATOM     24  C   UNL     1      11.318  13.195  20.153  0.00  0.00    +0.000 A 
ATOM     25  C   UNL     1      11.888  13.634  18.956  0.00  0.00    +0.000 A 
ATOM     26  C   UNL     1      11.602  12.990  17.755  0.00  0.00    +0.000 A 
ATOM     27 CL   UNL     1      12.331  13.551  16.298  0.00  0.00    +0.000 Cl
ATOM     28  C   UNL     1      10.734  11.894  17.709  0.00  0.00    +0.000 A 
ATOM     29  C   UNL     1      10.145  11.433  18.904  0.00  0.00    +0.000 A 
ATOM     30  H   UNL     1       9.799  11.723  22.075  0.00  0.00    +0.000 HD
ENDBRANCH  19  20
ENDBRANCH  18  19
ENDBRANCH   3  18
TORSDOF 6
ENDMDL
MODEL 2
REMARK VINA RESULT:      -9.0      1.780      1.927
REMARK  Name = 
REMARK  6 active torsions:
REMARK  status: ('A' for Active; 'I' for Inactive)
REMARK    1  A    between atoms: C_2  and  C_16
REMARK    2  A    between atoms: N_3  and  C_4
REMARK    3  A    between atoms: C_4  and  C_5
REMARK    4  A    between atoms: C_5  and  C_6
REMARK    5  A    between atoms: C_20  and  C_21
REMARK    6  A    between atoms: C_21  and  C_22
REMARK                            x       y       z     vdW  Elec       q    Type
REMARK                         _______ _______ _______ _____ _____    ______ ____
ROOT
ATOM      1  O   UNL     1       8.200   6.076  19.277  0.00  0.00    +0.000 OA
ATOM      2  C   UNL     1       7.602   6.556  18.325  0.00  0.00    +0.000 C 
ATOM      3  N   UNL     1       7.811   7.840  17.853  0.00  0.00    +0.000 N 
ATOM      4  H   UNL     1       7.098   8.243  17.257  0.00  0.00    +0.000 HD
ENDROOT
BRANCH   2   5
ATOM      5  C   UNL     1       6.539   5.777  17.639  0.00  0.00    +0.000 A 
ATOM      6  C   UNL     1       6.844   4.814  16.674  0.00  0.00    +0.000 A 
ATOM      7  C   UNL     1       5.815   4.099  16.060  0.00  0.00    +0.000 A 
ATOM      8  C   UNL     1       4.484   4.349  16.404  0.00  0.00    +0.000 A 
ATOM      9  C   UNL     1       4.164   5.306  17.378  0.00  0.00    +0.000 A 
ATOM     10  C   UNL     1       5.205   6.012  18.000  0.00  0.00    +0.000 A 
BRANCH   9  11
ATOM     11  C   UNL     1       2.725   5.577  17.750  0.00  0.00    +0.000 C 
BRANCH  11  12
ATOM     12  C   UNL     1       2.164   4.643  18.799  0.00  0.00    +0.000 A 
ATOM     13  C   UNL     1       1.434   3.504  18.425  0.00  0.00    +0.000 A 
ATOM     14  C   UNL     1       0.961   2.615  19.393  0.00  0.00    +0.000 A 
ATOM     15  C   UNL     1       1.202   2.858  20.743  0.00  0.00    +0.000 A 
ATOM     16  C   UNL     1       1.903   3.998  21.128  0.00  0.00    +0.000 A 
ATOM     17  C   UNL     1       2.378   4.889  20.163  0.00  0.00    +0.000 A 
ENDBRANCH  11  12
ENDBRANCH   9  11
ENDBRANCH   2   5
BRANCH   3  18
ATOM     18  C   UNL     1       8.701   8.732  18.577  0.00  0.00    +0.000 C 
BRANCH  18  19
ATOM     19  C   UNL     1       8.615  10.179  18.091  0.00  0.00    +0.000 C 
BRANCH  19  20
ATOM     20  C   UNL     1       9.378  11.118  18.975  0.00  0.00    +0.000 A 
ATOM     21  C   UNL     1      10.339  10.767  19.901  0.00  0.00    +0.000 A 
ATOM     22  N   UNL     1      10.775  11.903  20.525  0.00  0.00    +0.000 N 
ATOM     23  C   UNL     1      10.121  13.003  20.021  0.00  0.00    +0.000 A 
ATOM     24  C   UNL     1      10.240  14.356  20.364  0.00  0.00    +0.000 A 
ATOM     25  C   UNL     1       9.440  15.271  19.674  0.00  0.00    +0.000 A 
ATOM     26  C   UNL     1       8.561  14.840  18.684  0.00  0.00    +0.000 A 
ATOM     27 CL   UNL     1       7.596  15.996  17.846  0.00  0.00    +0.000 Cl
ATOM     28  C   UNL     1       8.447  13.485  18.355  0.00  0.00    +0.000 A 
ATOM     29  C   UNL     1       9.243  12.543  19.038  0.00  0.00    +0.000 A 
ATOM     30  H   UNL     1      11.472  11.937  21.257  0.00  0.00    +0.000 HD
ENDBRANCH  19  20
ENDBRANCH  18  19
ENDBRANCH   3  18
TORSDOF 6
ENDMDL
MODEL 3
REMARK VINA RESULT:      -9.0      1.992      2.406
REMARK  Name = 
REMARK  6 active torsions:
REMARK  status: ('A' for Active; 'I' for Inactive)
REMARK    1  A    between atoms: C_2  and  C_16
REMARK    2  A    between atoms: N_3  and  C_4
REMARK    3  A    between atoms: C_4  and  C_5
REMARK    4  A    between atoms: C_5  and  C_6
REMARK    5  A    between atoms: C_20  and  C_21
REMARK    6  A    between atoms: C_21  and  C_22
REMARK                            x       y       z     vdW  Elec       q    Type
REMARK                         _______ _______ _______ _____ _____    ______ ____
ROOT
ATOM      1  O   UNL     1       8.182   6.268  19.272  0.00  0.00    +0.000 OA
ATOM      2  C   UNL     1       7.612   6.674  18.269  0.00  0.00    +0.000 C 
ATOM      3  N   UNL     1       7.834   7.920  17.708  0.00  0.00    +0.000 N 
ATOM      4  H   UNL     1       7.139   8.275  17.063  0.00  0.00    +0.000 HD
ENDROOT
BRANCH   2   5
ATOM      5  C   UNL     1       6.570   5.843  17.613  0.00  0.00    +0.000 A 
ATOM      6  C   UNL     1       6.901   4.856  16.681  0.00  0.00    +0.000 A 
ATOM      7  C   UNL     1       5.891   4.091  16.094  0.00  0.00    +0.000 A 
ATOM      8  C   UNL     1       4.554   4.317  16.431  0.00  0.00    +0.000 A 
ATOM      9  C   UNL     1       4.209   5.299  17.372  0.00  0.00    +0.000 A 
ATOM     10  C   UNL     1       5.230   6.054  17.967  0.00  0.00    +0.000 A 
BRANCH   9  11
ATOM     11  C   UNL     1       2.763   5.543  17.737  0.00  0.00    +0.000 C 
BRANCH  11  12
ATOM     12  C   UNL     1       2.221   4.614  18.800  0.00  0.00    +0.000 A 
ATOM     13  C   UNL     1       2.475   4.857  20.159  0.00  0.00    +0.000 A 
ATOM     14  C   UNL     1       1.930   4.028  21.143  0.00  0.00    +0.000 A 
ATOM     15  C   UNL     1       1.135   2.943  20.780  0.00  0.00    +0.000 A 
ATOM     16  C   UNL     1       0.896   2.677  19.433  0.00  0.00    +0.000 A 
ATOM     17  C   UNL     1       1.439   3.505  18.449  0.00  0.00    +0.000 A 
ENDBRANCH  11  12
ENDBRANCH   9  11
ENDBRANCH   2   5
BRANCH   3  18
ATOM     18  C   UNL     1       8.702   8.866  18.389  0.00  0.00    +0.000 C 
BRANCH  18  19
ATOM     19  C   UNL     1       8.265  10.318  18.194  0.00  0.00    +0.000 C 
BRANCH  19  20
ATOM     20  C   UNL     1       9.387  11.282  18.429  0.00  0.00    +0.000 A 
ATOM     21  C   UNL     1      10.511  11.433  17.641  0.00  0.00    +0.000 A 
ATOM     22  N   UNL     1      11.309  12.389  18.205  0.00  0.00    +0.000 N 
ATOM     23  C   UNL     1      10.730  12.879  19.351  0.00  0.00    +0.000 A 
ATOM     24  C   UNL     1      11.189  13.853  20.248  0.00  0.00    +0.000 A 
ATOM     25  C   UNL     1      10.377  14.157  21.343  0.00  0.00    +0.000 A 
ATOM     26  C   UNL     1       9.158  13.510  21.525  0.00  0.00    +0.000 A 
ATOM     27 CL   UNL     1       8.177  13.917  22.882  0.00  0.00    +0.000 Cl
ATOM     28  C   UNL     1       8.713  12.535  20.627  0.00  0.00    +0.000 A 
ATOM     29  C   UNL     1       9.515  12.209  19.514  0.00  0.00    +0.000 A 
ATOM     30  H   UNL     1      12.203  12.692  17.841  0.00  0.00    +0.000 HD
ENDBRANCH  19  20
ENDBRANCH  18  19
ENDBRANCH   3  18
TORSDOF 6
ENDMDL
MODEL 4
REMARK VINA RESULT:      -9.0      1.270      1.436
REMARK  Name = 
REMARK  6 active torsions:
REMARK  status: ('A' for Active; 'I' for Inactive)
REMARK    1  A    between atoms: C_2  and  C_16
REMARK    2  A    between atoms: N_3  and  C_4
REMARK    3  A    between atoms: C_4  and  C_5
REMARK    4  A    between atoms: C_5  and  C_6
REMARK    5  A    between atoms: C_20  and  C_21
REMARK    6  A    between atoms: C_21  and  C_22
REMARK                            x       y       z     vdW  Elec       q    Type
REMARK                         _______ _______ _______ _____ _____    ______ ____
ROOT
ATOM      1  O   UNL     1       8.237   6.491  18.980  0.00  0.00    +0.000 OA
ATOM      2  C   UNL     1       7.606   6.943  18.034  0.00  0.00    +0.000 C 
ATOM      3  N   UNL     1       7.846   8.184  17.473  0.00  0.00    +0.000 N 
ATOM      4  H   UNL     1       7.119   8.586  16.894  0.00  0.00    +0.000 HD
ENDROOT
BRANCH   2   5
ATOM      5  C   UNL     1       6.469   6.178  17.459  0.00  0.00    +0.000 A 
ATOM      6  C   UNL     1       6.657   5.255  16.426  0.00  0.00    +0.000 A 
ATOM      7  C   UNL     1       5.562   4.552  15.920  0.00  0.00    +0.000 A 
ATOM      8  C   UNL     1       4.284   4.774  16.438  0.00  0.00    +0.000 A 
ATOM      9  C   UNL     1       4.084   5.691  17.480  0.00  0.00    +0.000 A 
ATOM     10  C   UNL     1       5.190   6.385  17.993  0.00  0.00    +0.000 A 
BRANCH   9  11
ATOM     11  C   UNL     1       2.702   5.932  18.041  0.00  0.00    +0.000 C 
BRANCH  11  12
ATOM     12  C   UNL     1       2.214   4.858  18.987  0.00  0.00    +0.000 A 
ATOM     13  C   UNL     1       2.486   4.938  20.361  0.00  0.00    +0.000 A 
ATOM     14  C   UNL     1       1.991   3.971  21.240  0.00  0.00    +0.000 A 
ATOM     15  C   UNL     1       1.227   2.912  20.756  0.00  0.00    +0.000 A 
ATOM     16  C   UNL     1       0.971   2.808  19.390  0.00  0.00    +0.000 A 
ATOM     17  C   UNL     1       1.465   3.773  18.509  0.00  0.00    +0.000 A 
ENDBRANCH  11  12
ENDBRANCH   9  11
ENDBRANCH   2   5
BRANCH   3  18
ATOM     18  C   UNL     1       8.817   9.072  18.089  0.00  0.00    +0.000 C 
BRANCH  18  19
ATOM     19  C   UNL     1       8.269  10.481  18.322  0.00  0.00    +0.000 C 
BRANCH  19  20
ATOM     20  C   UNL     1       9.107  11.261  19.289  0.00  0.00    +0.000 A 
ATOM     21  C   UNL     1       9.312  10.956  20.619  0.00  0.00    +0.000 A 
ATOM     22  N   UNL     1      10.109  11.925  21.167  0.00  0.00    +0.000 N 
ATOM     23  C   UNL     1      10.438  12.863  20.217  0.00  0.00    +0.000 A 
ATOM     24  C   UNL     1      11.219  14.021  20.329  0.00  0.00    +0.000 A 
ATOM     25  C   UNL     1      11.389  14.799  19.180  0.00  0.00    +0.000 A 
ATOM     26  C   UNL     1      10.801  14.424  17.976  0.00  0.00    +0.000 A 
ATOM     27 CL   UNL     1      11.041  15.401  16.576  0.00  0.00    +0.000 Cl
ATOM     28  C   UNL     1      10.019  13.269  17.878  0.00  0.00    +0.000 A 
ATOM     29  C   UNL     1       9.831  12.468  19.024  0.00  0.00    +0.000 A 
ATOM     30  H   UNL     1      10.410  11.956  22.132  0.00  0.00    +0.000 HD
ENDBRANCH  19  20
ENDBRANCH  18  19
ENDBRANCH   3  18
TORSDOF 6
ENDMDL
MODEL 5
REMARK VINA RESULT:      -9.0      6.125      9.247
REMARK  Name = 
REMARK  6 active torsions:
REMARK  status: ('A' for Active; 'I' for Inactive)
REMARK    1  A    between atoms: C_2  and  C_16
REMARK    2  A    between atoms: N_3  and  C_4
REMARK    3  A    between atoms: C_4  and  C_5
REMARK    4  A    between atoms: C_5  and  C_6
REMARK    5  A    between atoms: C_20  and  C_21
REMARK    6  A    between atoms: C_21  and  C_22
REMARK                            x       y       z     vdW  Elec       q    Type
REMARK                         _______ _______ _______ _____ _____    ______ ____
ROOT
ATOM      1  O   UNL     1       1.246   7.461  21.071  0.00  0.00    +0.000 OA
ATOM      2  C   UNL     1       1.883   7.023  20.123  0.00  0.00    +0.000 C 
ATOM      3  N   UNL     1       2.272   7.788  19.038  0.00  0.00    +0.000 N 
ATOM      4  H   UNL     1       2.544   7.300  18.193  0.00  0.00    +0.000 HD
ENDROOT
BRANCH   2   5
ATOM      5  C   UNL     1       2.232   5.580  20.059  0.00  0.00    +0.000 A 
ATOM      6  C   UNL     1       2.002   4.724  21.139  0.00  0.00    +0.000 A 
ATOM      7  C   UNL     1       2.337   3.372  21.034  0.00  0.00    +0.000 A 
ATOM      8  C   UNL     1       2.906   2.880  19.858  0.00  0.00    +0.000 A 
ATOM      9  C   UNL     1       3.135   3.727  18.763  0.00  0.00    +0.000 A 
ATOM     10  C   UNL     1       2.783   5.081  18.872  0.00  0.00    +0.000 A 
BRANCH   9  11
ATOM     11  C   UNL     1       3.750   3.195  17.491  0.00  0.00    +0.000 C 
BRANCH  11  12
ATOM     12  C   UNL     1       4.938   3.987  16.991  0.00  0.00    +0.000 A 
ATOM     13  C   UNL     1       6.014   4.277  17.845  0.00  0.00    +0.000 A 
ATOM     14  C   UNL     1       7.133   4.964  17.368  0.00  0.00    +0.000 A 
ATOM     15  C   UNL     1       7.186   5.375  16.038  0.00  0.00    +0.000 A 
ATOM     16  C   UNL     1       6.114   5.114  15.187  0.00  0.00    +0.000 A 
ATOM     17  C   UNL     1       4.994   4.428  15.662  0.00  0.00    +0.000 A 
ENDBRANCH  11  12
ENDBRANCH   9  11
ENDBRANCH   2   5
BRANCH   3  18
ATOM     18  C   UNL     1       1.816   9.164  18.933  0.00  0.00    +0.000 C 
BRANCH  18  19
ATOM     19  C   UNL     1       0.760   9.358  17.845  0.00  0.00    +0.000 C 
BRANCH  19  20
ATOM     20  C   UNL     1      -0.401  10.175  18.322  0.00  0.00    +0.000 A 
ATOM     21  C   UNL     1      -0.497  10.822  19.538  0.00  0.00    +0.000 A 
ATOM     22  N   UNL     1      -1.720  11.431  19.608  0.00  0.00    +0.000 N 
ATOM     23  C   UNL     1      -2.434  11.201  18.456  0.00  0.00    +0.000 A 
ATOM     24  C   UNL     1      -3.722  11.618  18.096  0.00  0.00    +0.000 A 
ATOM     25  C   UNL     1      -4.199  11.232  16.841  0.00  0.00    +0.000 A 
ATOM     26  C   UNL     1      -3.413  10.462  15.988  0.00  0.00    +0.000 A 
ATOM     27 CL   UNL     1      -4.029  10.012  14.443  0.00  0.00    +0.000 Cl
ATOM     28  C   UNL     1      -2.131  10.046  16.362  0.00  0.00    +0.000 A 
ATOM     29  C   UNL     1      -1.627  10.422  17.624  0.00  0.00    +0.000 A 
ATOM     30  H   UNL     1      -2.060  11.968  20.395  0.00  0.00    +0.000 HD
ENDBRANCH  19  20
ENDBRANCH  18  19
ENDBRANCH   3  18
TORSDOF 6
ENDMDL
MODEL 6
REMARK VINA RESULT:      -8.8      5.721      8.527
REMARK  Name = 
REMARK  6 active torsions:
REMARK  status: ('A' for Active; 'I' for Inactive)
REMARK    1  A    between atoms: C_2  and  C_16
REMARK    2  A    between atoms: N_3  and  C_4
REMARK    3  A    between atoms: C_4  and  C_5
REMARK    4  A    between atoms: C_5  and  C_6
REMARK    5  A    between atoms: C_20  and  C_21
REMARK    6  A    between atoms: C_21  and  C_22
REMARK                            x       y       z     vdW  Elec       q    Type
REMARK                         _______ _______ _______ _____ _____    ______ ____
ROOT
ATOM      1  O   UNL     1       3.694   7.095  17.280  0.00  0.00    +0.000 OA
ATOM      2  C   UNL     1       2.909   6.660  18.111  0.00  0.00    +0.000 C 
ATOM      3  N   UNL     1       2.609   5.317  18.257  0.00  0.00    +0.000 N 
ATOM      4  H   UNL     1       1.766   5.076  18.764  0.00  0.00    +0.000 HD
ENDROOT
BRANCH   2   5
ATOM      5  C   UNL     1       2.165   7.591  18.998  0.00  0.00    +0.000 A 
ATOM      6  C   UNL     1       1.997   7.327  20.360  0.00  0.00    +0.000 A 
ATOM      7  C   UNL     1       1.299   8.233  21.159  0.00  0.00    +0.000 A 
ATOM      8  C   UNL     1       0.763   9.396  20.600  0.00  0.00    +0.000 A 
ATOM      9  C   UNL     1       0.933   9.678  19.236  0.00  0.00    +0.000 A 
ATOM     10  C   UNL     1       1.647   8.768  18.441  0.00  0.00    +0.000 A 
BRANCH   9  11
ATOM     11  C   UNL     1       0.355  10.935  18.630  0.00  0.00    +0.000 C 
BRANCH  11  12
ATOM     12  C   UNL     1      -1.123  10.857  18.317  0.00  0.00    +0.000 A 
ATOM     13  C   UNL     1      -2.036  11.705  18.961  0.00  0.00    +0.000 A 
ATOM     14  C   UNL     1      -3.394  11.667  18.633  0.00  0.00    +0.000 A 
ATOM     15  C   UNL     1      -3.854  10.776  17.666  0.00  0.00    +0.000 A 
ATOM     16  C   UNL     1      -2.961   9.911  17.036  0.00  0.00    +0.000 A 
ATOM     17  C   UNL     1      -1.604   9.948  17.363  0.00  0.00    +0.000 A 
ENDBRANCH  11  12
ENDBRANCH   9  11
ENDBRANCH   2   5
BRANCH   3  18
ATOM     18  C   UNL     1       3.152   4.356  17.311  0.00  0.00    +0.000 C 
BRANCH  18  19
ATOM     19  C   UNL     1       4.471   3.742  17.781  0.00  0.00    +0.000 C 
BRANCH  19  20
ATOM     20  C   UNL     1       5.653   4.330  17.073  0.00  0.00    +0.000 A 
ATOM     21  C   UNL     1       6.680   5.045  17.657  0.00  0.00    +0.000 A 
ATOM     22  N   UNL     1       7.548   5.436  16.675  0.00  0.00    +0.000 N 
ATOM     23  C   UNL     1       7.115   4.987  15.450  0.00  0.00    +0.000 A 
ATOM     24  C   UNL     1       7.677   5.156  14.178  0.00  0.00    +0.000 A 
ATOM     25  C   UNL     1       7.011   4.578  13.094  0.00  0.00    +0.000 A 
ATOM     26  C   UNL     1       5.833   3.862  13.285  0.00  0.00    +0.000 A 
ATOM     27 CL   UNL     1       5.042   3.154  11.927  0.00  0.00    +0.000 Cl
ATOM     28  C   UNL     1       5.277   3.705  14.559  0.00  0.00    +0.000 A 
ATOM     29  C   UNL     1       5.931   4.280  15.669  0.00  0.00    +0.000 A 
ATOM     30  H   UNL     1       8.386   5.983  16.820  0.00  0.00    +0.000 HD
ENDBRANCH  19  20
ENDBRANCH  18  19
ENDBRANCH   3  18
TORSDOF 6
ENDMDL
MODEL 7
REMARK VINA RESULT:      -8.7      5.960      8.635
REMARK  Name = 
REMARK  6 active torsions:
REMARK  status: ('A' for Active; 'I' for Inactive)
REMARK    1  A    between atoms: C_2  and  C_16
REMARK    2  A    between atoms: N_3  and  C_4
REMARK    3  A    between atoms: C_4  and  C_5
REMARK    4  A    between atoms: C_5  and  C_6
REMARK    5  A    between atoms: C_20  and  C_21
REMARK    6  A    between atoms: C_21  and  C_22
REMARK                            x       y       z     vdW  Elec       q    Type
REMARK                         _______ _______ _______ _____ _____    ______ ____
ROOT
ATOM      1  O   UNL     1       1.865   7.591  19.824  0.00  0.00    +0.000 OA
ATOM      2  C   UNL     1       2.132   7.454  18.638  0.00  0.00    +0.000 C 
ATOM      3  N   UNL     1       2.018   8.465  17.701  0.00  0.00    +0.000 N 
ATOM      4  H   UNL     1       1.991   8.199  16.724  0.00  0.00    +0.000 HD
ENDROOT
BRANCH   2   5
ATOM      5  C   UNL     1       2.551   6.128  18.114  0.00  0.00    +0.000 A 
ATOM      6  C   UNL     1       1.645   5.070  17.992  0.00  0.00    +0.000 A 
ATOM      7  C   UNL     1       2.079   3.843  17.487  0.00  0.00    +0.000 A 
ATOM      8  C   UNL     1       3.413   3.670  17.112  0.00  0.00    +0.000 A 
ATOM      9  C   UNL     1       4.330   4.725  17.222  0.00  0.00    +0.000 A 
ATOM     10  C   UNL     1       3.884   5.960  17.717  0.00  0.00    +0.000 A 
BRANCH   9  11
ATOM     11  C   UNL     1       5.773   4.539  16.816  0.00  0.00    +0.000 C 
BRANCH  11  12
ATOM     12  C   UNL     1       6.735   5.515  17.457  0.00  0.00    +0.000 A 
ATOM     13  C   UNL     1       6.937   6.788  16.903  0.00  0.00    +0.000 A 
ATOM     14  C   UNL     1       7.786   7.707  17.525  0.00  0.00    +0.000 A 
ATOM     15  C   UNL     1       8.448   7.362  18.701  0.00  0.00    +0.000 A 
ATOM     16  C   UNL     1       8.275   6.092  19.248  0.00  0.00    +0.000 A 
ATOM     17  C   UNL     1       7.427   5.172  18.628  0.00  0.00    +0.000 A 
ENDBRANCH  11  12
ENDBRANCH   9  11
ENDBRANCH   2   5
BRANCH   3  18
ATOM     18  C   UNL     1       1.442   9.741  18.093  0.00  0.00    +0.000 C 
BRANCH  18  19
ATOM     19  C   UNL     1      -0.056   9.830  17.804  0.00  0.00    +0.000 C 
BRANCH  19  20
ATOM     20  C   UNL     1      -0.731  10.879  18.633  0.00  0.00    +0.000 A 
ATOM     21  C   UNL     1      -1.397  11.991  18.158  0.00  0.00    +0.000 A 
ATOM     22  N   UNL     1      -1.845  12.717  19.228  0.00  0.00    +0.000 N 
ATOM     23  C   UNL     1      -1.491  12.100  20.404  0.00  0.00    +0.000 A 
ATOM     24  C   UNL     1      -1.728  12.485  21.730  0.00  0.00    +0.000 A 
ATOM     25  C   UNL     1      -1.247  11.650  22.742  0.00  0.00    +0.000 A 
ATOM     26  C   UNL     1      -0.559  10.480  22.430  0.00  0.00    +0.000 A 
ATOM     27 CL   UNL     1       0.012   9.469  23.703  0.00  0.00    +0.000 Cl
ATOM     28  C   UNL     1      -0.323  10.110  21.103  0.00  0.00    +0.000 A 
ATOM     29  C   UNL     1      -0.798  10.937  20.064  0.00  0.00    +0.000 A 
ATOM     30  H   UNL     1      -2.357  13.587  19.169  0.00  0.00    +0.000 HD
ENDBRANCH  19  20
ENDBRANCH  18  19
ENDBRANCH   3  18
TORSDOF 6
ENDMDL
MODEL 8
REMARK VINA RESULT:      -8.7      2.026      2.536
REMARK  Name = 
REMARK  6 active torsions:
REMARK  status: ('A' for Active; 'I' for Inactive)
REMARK    1  A    between atoms: C_2  and  C_16
REMARK    2  A    between atoms: N_3  and  C_4
REMARK    3  A    between atoms: C_4  and  C_5
REMARK    4  A    between atoms: C_5  and  C_6
REMARK    5  A    between atoms: C_20  and  C_21
REMARK    6  A    between atoms: C_21  and  C_22
REMARK                            x       y       z     vdW  Elec       q    Type
REMARK                         _______ _______ _______ _____ _____    ______ ____
ROOT
ATOM      1  O   UNL     1       8.603   6.930  19.029  0.00  0.00    +0.000 OA
ATOM      2  C   UNL     1       7.813   7.392  18.217  0.00  0.00    +0.000 C 
ATOM      3  N   UNL     1       7.838   8.705  17.782  0.00  0.00    +0.000 N 
ATOM      4  H   UNL     1       7.004   9.068  17.337  0.00  0.00    +0.000 HD
ENDROOT
BRANCH   2   5
ATOM      5  C   UNL     1       6.710   6.552  17.684  0.00  0.00    +0.000 A 
ATOM      6  C   UNL     1       6.117   6.821  16.447  0.00  0.00    +0.000 A 
ATOM      7  C   UNL     1       5.089   6.001  15.980  0.00  0.00    +0.000 A 
ATOM      8  C   UNL     1       4.648   4.920  16.747  0.00  0.00    +0.000 A 
ATOM      9  C   UNL     1       5.241   4.634  17.986  0.00  0.00    +0.000 A 
ATOM     10  C   UNL     1       6.283   5.455  18.444  0.00  0.00    +0.000 A 
BRANCH   9  11
ATOM     11  C   UNL     1       4.766   3.465  18.817  0.00  0.00    +0.000 C 
BRANCH  11  12
ATOM     12  C   UNL     1       3.325   3.562  19.268  0.00  0.00    +0.000 A 
ATOM     13  C   UNL     1       2.357   2.681  18.762  0.00  0.00    +0.000 A 
ATOM     14  C   UNL     1       1.037   2.739  19.218  0.00  0.00    +0.000 A 
ATOM     15  C   UNL     1       0.670   3.681  20.176  0.00  0.00    +0.000 A 
ATOM     16  C   UNL     1       1.617   4.577  20.668  0.00  0.00    +0.000 A 
ATOM     17  C   UNL     1       2.936   4.522  20.214  0.00  0.00    +0.000 A 
ENDBRANCH  11  12
ENDBRANCH   9  11
ENDBRANCH   2   5
BRANCH   3  18
ATOM     18  C   UNL     1       8.769   9.642  18.388  0.00  0.00    +0.000 C 
BRANCH  18  19
ATOM     19  C   UNL     1       8.519  11.088  17.960  0.00  0.00    +0.000 C 
BRANCH  19  20
ATOM     20  C   UNL     1       9.792  11.864  17.819  0.00  0.00    +0.000 A 
ATOM     21  C   UNL     1      11.051  11.335  17.615  0.00  0.00    +0.000 A 
ATOM     22  N   UNL     1      11.951  12.365  17.570  0.00  0.00    +0.000 N 
ATOM     23  C   UNL     1      11.307  13.568  17.736  0.00  0.00    +0.000 A 
ATOM     24  C   UNL     1      11.824  14.869  17.767  0.00  0.00    +0.000 A 
ATOM     25  C   UNL     1      10.921  15.920  17.951  0.00  0.00    +0.000 A 
ATOM     26  C   UNL     1       9.560  15.669  18.095  0.00  0.00    +0.000 A 
ATOM     27 CL   UNL     1       8.473  16.989  18.310  0.00  0.00    +0.000 Cl
ATOM     28  C   UNL     1       9.056  14.364  18.068  0.00  0.00    +0.000 A 
ATOM     29  C   UNL     1       9.947  13.287  17.885  0.00  0.00    +0.000 A 
ATOM     30  H   UNL     1      12.949  12.262  17.442  0.00  0.00    +0.000 HD
ENDBRANCH  19  20
ENDBRANCH  18  19
ENDBRANCH   3  18
TORSDOF 6
ENDMDL
MODEL 9
REMARK VINA RESULT:      -8.7      8.266     10.826
REMARK  Name = 
REMARK  6 active torsions:
REMARK  status: ('A' for Active; 'I' for Inactive)
REMARK    1  A    between atoms: C_2  and  C_16
REMARK    2  A    between atoms: N_3  and  C_4
REMARK    3  A    between atoms: C_4  and  C_5
REMARK    4  A    between atoms: C_5  and  C_6
REMARK    5  A    between atoms: C_20  and  C_21
REMARK    6  A    between atoms: C_21  and  C_22
REMARK                            x       y       z     vdW  Elec       q    Type
REMARK                         _______ _______ _______ _____ _____    ______ ____
ROOT
ATOM      1  O   UNL     1      -0.608   8.870  21.967  0.00  0.00    +0.000 OA
ATOM      2  C   UNL     1       0.025   9.674  21.296  0.00  0.00    +0.000 C 
ATOM      3  N   UNL     1       0.015  11.039  21.520  0.00  0.00    +0.000 N 
ATOM      4  H   UNL     1       0.334  11.640  20.770  0.00  0.00    +0.000 HD
ENDROOT
BRANCH   2   5
ATOM      5  C   UNL     1       0.819   9.213  20.129  0.00  0.00    +0.000 A 
ATOM      6  C   UNL     1       0.824   9.919  18.922  0.00  0.00    +0.000 A 
ATOM      7  C   UNL     1       1.592   9.455  17.853  0.00  0.00    +0.000 A 
ATOM      8  C   UNL     1       2.346   8.287  17.983  0.00  0.00    +0.000 A 
ATOM      9  C   UNL     1       2.357   7.573  19.191  0.00  0.00    +0.000 A 
ATOM     10  C   UNL     1       1.594   8.053  20.267  0.00  0.00    +0.000 A 
BRANCH   9  11
ATOM     11  C   UNL     1       3.172   6.310  19.334  0.00  0.00    +0.000 C 
BRANCH  11  12
ATOM     12  C   UNL     1       2.353   5.040  19.401  0.00  0.00    +0.000 A 
ATOM     13  C   UNL     1       1.965   4.504  20.638  0.00  0.00    +0.000 A 
ATOM     14  C   UNL     1       1.165   3.360  20.697  0.00  0.00    +0.000 A 
ATOM     15  C   UNL     1       0.752   2.736  19.523  0.00  0.00    +0.000 A 
ATOM     16  C   UNL     1       1.150   3.244  18.288  0.00  0.00    +0.000 A 
ATOM     17  C   UNL     1       1.950   4.387  18.227  0.00  0.00    +0.000 A 
ENDBRANCH  11  12
ENDBRANCH   9  11
ENDBRANCH   2   5
BRANCH   3  18
ATOM     18  C   UNL     1      -0.877  11.592  22.525  0.00  0.00    +0.000 C 
BRANCH  18  19
ATOM     19  C   UNL     1      -1.592  12.858  22.053  0.00  0.00    +0.000 C 
BRANCH  19  20
ATOM     20  C   UNL     1      -3.078  12.763  22.215  0.00  0.00    +0.000 A 
ATOM     21  C   UNL     1      -3.774  12.828  23.406  0.00  0.00    +0.000 A 
ATOM     22  N   UNL     1      -5.106  12.670  23.138  0.00  0.00    +0.000 N 
ATOM     23  C   UNL     1      -5.304  12.507  21.787  0.00  0.00    +0.000 A 
ATOM     24  C   UNL     1      -6.489  12.306  21.069  0.00  0.00    +0.000 A 
ATOM     25  C   UNL     1      -6.390  12.172  19.681  0.00  0.00    +0.000 A 
ATOM     26  C   UNL     1      -5.152  12.239  19.049  0.00  0.00    +0.000 A 
ATOM     27 CL   UNL     1      -5.067  12.080  17.335  0.00  0.00    +0.000 Cl
ATOM     28  C   UNL     1      -3.974  12.433  19.778  0.00  0.00    +0.000 A 
ATOM     29  C   UNL     1      -4.049  12.570  21.179  0.00  0.00    +0.000 A 
ATOM     30  H   UNL     1      -5.844  12.665  23.830  0.00  0.00    +0.000 HD
ENDBRANCH  19  20
ENDBRANCH  18  19
ENDBRANCH   3  18
TORSDOF 6
ENDMDL
