MODEL 1
REMARK VINA RESULT:      -8.3      0.000      0.000
REMARK  Name = 
REMARK  6 active torsions:
REMARK  status: ('A' for Active; 'I' for Inactive)
REMARK    1  A    between atoms: C_1  and  O_2
REMARK    2  A    between atoms: O_2  and  C_3
REMARK    3  A    between atoms: C_6  and  C_7
REMARK    4  A    between atoms: N_12  and  N_13
REMARK    5  A    between atoms: C_14  and  C_15
REMARK    6  A    between atoms: C_16  and  C_17
REMARK                            x       y       z     vdW  Elec       q    Type
REMARK                         _______ _______ _______ _____ _____    ______ ____
ROOT
ATOM      1  C   UNL     1       3.499   6.067  17.978  0.00  0.00    +0.000 A 
ATOM      2  C   UNL     1       2.947   4.832  17.694  0.00  0.00    +0.000 A 
ATOM      3  N   UNL     1       3.697   3.818  17.233  0.00  0.00    +0.000 NA
ATOM      4  N   UNL     1       5.025   4.035  17.066  0.00  0.00    +0.000 NA
ATOM      5  C   UNL     1       5.560   5.249  17.344  0.00  0.00    +0.000 A 
ATOM      6  N   UNL     1       6.952   5.375  17.162  0.00  0.00    +0.000 N 
ATOM      7  N   UNL     1       4.822   6.281  17.801  0.00  0.00    +0.000 NA
ATOM      8  H   UNL     1       7.287   4.542  16.687  0.00  0.00    +0.000 HD
ENDROOT
BRANCH   1  12
ATOM      9  C   UNL     1       1.102   9.276  19.596  0.00  0.00    +0.000 A 
ATOM     10  C   UNL     1       1.442   8.177  20.381  0.00  0.00    +0.000 A 
ATOM     11  C   UNL     1       2.247   7.154  19.864  0.00  0.00    +0.000 A 
ATOM     12  C   UNL     1       2.713   7.187  18.537  0.00  0.00    +0.000 A 
ATOM     13  C   UNL     1       2.366   8.313  17.767  0.00  0.00    +0.000 A 
ATOM     14  C   UNL     1       1.565   9.341  18.285  0.00  0.00    +0.000 A 
BRANCH   9  16
ATOM     15  C   UNL     1      -0.800  10.662  19.395  0.00  0.00    +0.000 C 
ATOM     16  O   UNL     1       0.288  10.200  20.189  0.00  0.00    +0.000 OA
ENDBRANCH   9  16
ENDBRANCH   1  12
BRANCH   6  17
ATOM     17  N   UNL     1       7.447   6.600  16.832  0.00  0.00    +0.000 NA
ATOM     18  C   UNL     1       7.643   7.400  17.829  0.00  0.00    +0.000 C 
BRANCH  18  19
ATOM     19  C   UNL     1       8.164   8.759  17.598  0.00  0.00    +0.000 C 
ATOM     20  C   UNL     1       8.772   9.448  18.572  0.00  0.00    +0.000 C 
BRANCH  20  21
ATOM     21  C   UNL     1       9.215  10.778  18.327  0.00  0.00    +0.000 A 
ATOM     22  C   UNL     1      10.441  11.364  18.615  0.00  0.00    +0.000 A 
ATOM     23  C   UNL     1      10.389  12.719  18.200  0.00  0.00    +0.000 A 
ATOM     24  C   UNL     1       9.135  12.900  17.671  0.00  0.00    +0.000 A 
ATOM     25  O   UNL     1       8.425  11.751  17.738  0.00  0.00    +0.000 OA
ENDBRANCH  20  21
ENDBRANCH  18  19
ENDBRANCH   6  17
TORSDOF 5
ENDMDL
MODEL 2
REMARK VINA RESULT:      -8.3      0.515      1.106
REMARK  Name = 
REMARK  6 active torsions:
REMARK  status: ('A' for Active; 'I' for Inactive)
REMARK    1  A    between atoms: C_1  and  O_2
REMARK    2  A    between atoms: O_2  and  C_3
REMARK    3  A    between atoms: C_6  and  C_7
REMARK    4  A    between atoms: N_12  and  N_13
REMARK    5  A    between atoms: C_14  and  C_15
REMARK    6  A    between atoms: C_16  and  C_17
REMARK                            x       y       z     vdW  Elec       q    Type
REMARK                         _______ _______ _______ _____ _____    ______ ____
ROOT
ATOM      1  C   UNL     1       3.444   6.049  17.985  0.00  0.00    +0.000 A 
ATOM      2  C   UNL     1       2.945   4.798  17.674  0.00  0.00    +0.000 A 
ATOM      3  N   UNL     1       3.738   3.826  17.196  0.00  0.00    +0.000 NA
ATOM      4  N   UNL     1       5.056   4.103  17.037  0.00  0.00    +0.000 NA
ATOM      5  C   UNL     1       5.539   5.332  17.341  0.00  0.00    +0.000 A 
ATOM      6  N   UNL     1       6.925   5.521  17.165  0.00  0.00    +0.000 N 
ATOM      7  N   UNL     1       4.757   6.323  17.816  0.00  0.00    +0.000 NA
ATOM      8  H   UNL     1       7.296   4.713  16.675  0.00  0.00    +0.000 HD
ENDROOT
BRANCH   1  12
ATOM      9  C   UNL     1       1.104   9.258  19.685  0.00  0.00    +0.000 A 
ATOM     10  C   UNL     1       1.473   9.281  18.342  0.00  0.00    +0.000 A 
ATOM     11  C   UNL     1       2.203   8.223  17.787  0.00  0.00    +0.000 A 
ATOM     12  C   UNL     1       2.609   7.124  18.564  0.00  0.00    +0.000 A 
ATOM     13  C   UNL     1       2.216   7.118  19.915  0.00  0.00    +0.000 A 
ATOM     14  C   UNL     1       1.479   8.172  20.472  0.00  0.00    +0.000 A 
BRANCH   9  16
ATOM     15  C   UNL     1       0.309  10.477  21.546  0.00  0.00    +0.000 C 
ATOM     16  O   UNL     1       0.420  10.355  20.132  0.00  0.00    +0.000 OA
ENDBRANCH   9  16
ENDBRANCH   1  12
BRANCH   6  17
ATOM     17  N   UNL     1       7.368   6.772  16.862  0.00  0.00    +0.000 NA
ATOM     18  C   UNL     1       7.705   7.498  17.878  0.00  0.00    +0.000 C 
BRANCH  18  19
ATOM     19  C   UNL     1       8.189   8.876  17.678  0.00  0.00    +0.000 C 
ATOM     20  C   UNL     1       8.870   9.521  18.634  0.00  0.00    +0.000 C 
BRANCH  20  21
ATOM     21  C   UNL     1       9.274  10.870  18.425  0.00  0.00    +0.000 A 
ATOM     22  C   UNL     1      10.414  11.525  18.872  0.00  0.00    +0.000 A 
ATOM     23  C   UNL     1      10.353  12.869  18.425  0.00  0.00    +0.000 A 
ATOM     24  C   UNL     1       9.180  12.974  17.719  0.00  0.00    +0.000 A 
ATOM     25  O   UNL     1       8.528  11.789  17.709  0.00  0.00    +0.000 OA
ENDBRANCH  20  21
ENDBRANCH  18  19
ENDBRANCH   6  17
TORSDOF 5
ENDMDL
MODEL 3
REMARK VINA RESULT:      -8.0      4.435      5.048
REMARK  Name = 
REMARK  6 active torsions:
REMARK  status: ('A' for Active; 'I' for Inactive)
REMARK    1  A    between atoms: C_1  and  O_2
REMARK    2  A    between atoms: O_2  and  C_3
REMARK    3  A    between atoms: C_6  and  C_7
REMARK    4  A    between atoms: N_12  and  N_13
REMARK    5  A    between atoms: C_14  and  C_15
REMARK    6  A    between atoms: C_16  and  C_17
REMARK                            x       y       z     vdW  Elec       q    Type
REMARK                         _______ _______ _______ _____ _____    ______ ____
ROOT
ATOM      1  C   UNL     1       2.381   5.759  19.900  0.00  0.00    +0.000 A 
ATOM      2  C   UNL     1       1.561   5.003  20.717  0.00  0.00    +0.000 A 
ATOM      3  N   UNL     1       1.887   3.749  21.071  0.00  0.00    +0.000 NA
ATOM      4  N   UNL     1       3.059   3.245  20.613  0.00  0.00    +0.000 NA
ATOM      5  C   UNL     1       3.857   3.989  19.810  0.00  0.00    +0.000 A 
ATOM      6  N   UNL     1       5.066   3.391  19.401  0.00  0.00    +0.000 N 
ATOM      7  N   UNL     1       3.544   5.248  19.438  0.00  0.00    +0.000 NA
ATOM      8  H   UNL     1       5.043   2.412  19.669  0.00  0.00    +0.000 HD
ENDROOT
BRANCH   1  12
ATOM      9  C   UNL     1       1.381   9.819  18.818  0.00  0.00    +0.000 A 
ATOM     10  C   UNL     1       1.114   9.338  20.097  0.00  0.00    +0.000 A 
ATOM     11  C   UNL     1       1.469   8.032  20.455  0.00  0.00    +0.000 A 
ATOM     12  C   UNL     1       2.078   7.159  19.535  0.00  0.00    +0.000 A 
ATOM     13  C   UNL     1       2.348   7.671  18.253  0.00  0.00    +0.000 A 
ATOM     14  C   UNL     1       1.999   8.981  17.895  0.00  0.00    +0.000 A 
BRANCH   9  16
ATOM     15  C   UNL     1      -0.084  11.579  19.399  0.00  0.00    +0.000 C 
ATOM     16  O   UNL     1       0.965  11.098  18.566  0.00  0.00    +0.000 OA
ENDBRANCH   9  16
ENDBRANCH   1  12
BRANCH   6  17
ATOM     17  N   UNL     1       5.593   3.762  18.202  0.00  0.00    +0.000 NA
ATOM     18  C   UNL     1       4.801   3.627  17.188  0.00  0.00    +0.000 C 
BRANCH  18  19
ATOM     19  C   UNL     1       5.262   3.983  15.834  0.00  0.00    +0.000 C 
ATOM     20  C   UNL     1       6.565   4.098  15.549  0.00  0.00    +0.000 C 
BRANCH  20  21
ATOM     21  C   UNL     1       6.971   4.496  14.244  0.00  0.00    +0.000 A 
ATOM     22  C   UNL     1       6.575   3.996  13.010  0.00  0.00    +0.000 A 
ATOM     23  C   UNL     1       7.278   4.704  12.003  0.00  0.00    +0.000 A 
ATOM     24  C   UNL     1       8.068   5.610  12.666  0.00  0.00    +0.000 A 
ATOM     25  O   UNL     1       7.893   5.499  14.002  0.00  0.00    +0.000 OA
ENDBRANCH  20  21
ENDBRANCH  18  19
ENDBRANCH   6  17
TORSDOF 5
ENDMDL
MODEL 4
REMARK VINA RESULT:      -8.0      0.963      1.120
REMARK  Name = 
REMARK  6 active torsions:
REMARK  status: ('A' for Active; 'I' for Inactive)
REMARK    1  A    between atoms: C_1  and  O_2
REMARK    2  A    between atoms: O_2  and  C_3
REMARK    3  A    between atoms: C_6  and  C_7
REMARK    4  A    between atoms: N_12  and  N_13
REMARK    5  A    between atoms: C_14  and  C_15
REMARK    6  A    between atoms: C_16  and  C_17
REMARK                            x       y       z     vdW  Elec       q    Type
REMARK                         _______ _______ _______ _____ _____    ______ ____
ROOT
ATOM      1  C   UNL     1       2.934   6.579  18.213  0.00  0.00    +0.000 A 
ATOM      2  C   UNL     1       2.344   5.356  17.958  0.00  0.00    +0.000 A 
ATOM      3  N   UNL     1       3.055   4.319  17.485  0.00  0.00    +0.000 NA
ATOM      4  N   UNL     1       4.382   4.503  17.276  0.00  0.00    +0.000 NA
ATOM      5  C   UNL     1       4.954   5.706  17.525  0.00  0.00    +0.000 A 
ATOM      6  N   UNL     1       6.342   5.797  17.299  0.00  0.00    +0.000 N 
ATOM      7  N   UNL     1       4.255   6.760  17.993  0.00  0.00    +0.000 NA
ATOM      8  H   UNL     1       6.643   4.952  16.822  0.00  0.00    +0.000 HD
ENDROOT
BRANCH   1  12
ATOM      9  C   UNL     1       0.667   9.856  19.881  0.00  0.00    +0.000 A 
ATOM     10  C   UNL     1       1.100   8.808  20.689  0.00  0.00    +0.000 A 
ATOM     11  C   UNL     1       1.863   7.764  20.151  0.00  0.00    +0.000 A 
ATOM     12  C   UNL     1       2.192   7.723  18.784  0.00  0.00    +0.000 A 
ATOM     13  C   UNL     1       1.752   8.799  17.991  0.00  0.00    +0.000 A 
ATOM     14  C   UNL     1       0.994   9.849  18.528  0.00  0.00    +0.000 A 
BRANCH   9  16
ATOM     15  C   UNL     1      -0.216  10.675  21.913  0.00  0.00    +0.000 C 
ATOM     16  O   UNL     1      -0.097  10.807  20.501  0.00  0.00    +0.000 OA
ENDBRANCH   9  16
ENDBRANCH   1  12
BRANCH   6  17
ATOM     17  N   UNL     1       6.856   7.006  16.942  0.00  0.00    +0.000 NA
ATOM     18  C   UNL     1       7.695   7.517  17.783  0.00  0.00    +0.000 C 
BRANCH  18  19
ATOM     19  C   UNL     1       8.309   8.830  17.514  0.00  0.00    +0.000 C 
ATOM     20  C   UNL     1       8.669   9.649  18.510  0.00  0.00    +0.000 C 
BRANCH  20  21
ATOM     21  C   UNL     1       9.209  10.931  18.211  0.00  0.00    +0.000 A 
ATOM     22  C   UNL     1       8.557  12.084  17.792  0.00  0.00    +0.000 A 
ATOM     23  C   UNL     1       9.531  13.095  17.601  0.00  0.00    +0.000 A 
ATOM     24  C   UNL     1      10.736  12.519  17.918  0.00  0.00    +0.000 A 
ATOM     25  O   UNL     1      10.558  11.229  18.286  0.00  0.00    +0.000 OA
ENDBRANCH  20  21
ENDBRANCH  18  19
ENDBRANCH   6  17
TORSDOF 5
ENDMDL
MODEL 5
REMARK VINA RESULT:      -7.9      3.218      3.724
REMARK  Name = 
REMARK  6 active torsions:
REMARK  status: ('A' for Active; 'I' for Inactive)
REMARK    1  A    between atoms: C_1  and  O_2
REMARK    2  A    between atoms: O_2  and  C_3
REMARK    3  A    between atoms: C_6  and  C_7
REMARK    4  A    between atoms: N_12  and  N_13
REMARK    5  A    between atoms: C_14  and  C_15
REMARK    6  A    between atoms: C_16  and  C_17
REMARK                            x       y       z     vdW  Elec       q    Type
REMARK                         _______ _______ _______ _____ _____    ______ ____
ROOT
ATOM      1  C   UNL     1       4.741   4.974  16.795  0.00  0.00    +0.000 A 
ATOM      2  C   UNL     1       4.761   4.391  15.542  0.00  0.00    +0.000 A 
ATOM      3  N   UNL     1       5.740   4.654  14.661  0.00  0.00    +0.000 NA
ATOM      4  N   UNL     1       6.726   5.504  15.043  0.00  0.00    +0.000 NA
ATOM      5  C   UNL     1       6.699   6.075  16.271  0.00  0.00    +0.000 A 
ATOM      6  N   UNL     1       7.776   6.928  16.588  0.00  0.00    +0.000 N 
ATOM      7  N   UNL     1       5.721   5.829  17.167  0.00  0.00    +0.000 NA
ATOM      8  H   UNL     1       8.316   7.085  15.743  0.00  0.00    +0.000 HD
ENDROOT
BRANCH   1  12
ATOM      9  C   UNL     1       1.777   3.967  19.771  0.00  0.00    +0.000 A 
ATOM     10  C   UNL     1       3.036   4.428  20.149  0.00  0.00    +0.000 A 
ATOM     11  C   UNL     1       3.983   4.785  19.181  0.00  0.00    +0.000 A 
ATOM     12  C   UNL     1       3.708   4.666  17.806  0.00  0.00    +0.000 A 
ATOM     13  C   UNL     1       2.426   4.208  17.449  0.00  0.00    +0.000 A 
ATOM     14  C   UNL     1       1.474   3.857  18.417  0.00  0.00    +0.000 A 
BRANCH   9  16
ATOM     15  C   UNL     1       1.466   2.676  21.725  0.00  0.00    +0.000 C 
ATOM     16  O   UNL     1       0.941   3.617  20.795  0.00  0.00    +0.000 OA
ENDBRANCH   9  16
ENDBRANCH   1  12
BRANCH   6  17
ATOM     17  N   UNL     1       7.551   7.950  17.460  0.00  0.00    +0.000 NA
ATOM     18  C   UNL     1       8.539   8.769  17.614  0.00  0.00    +0.000 C 
BRANCH  18  19
ATOM     19  C   UNL     1       8.421   9.908  18.542  0.00  0.00    +0.000 C 
ATOM     20  C   UNL     1       9.453  10.303  19.297  0.00  0.00    +0.000 C 
BRANCH  20  21
ATOM     21  C   UNL     1       9.286  11.373  20.221  0.00  0.00    +0.000 A 
ATOM     22  C   UNL     1       9.478  12.735  20.032  0.00  0.00    +0.000 A 
ATOM     23  C   UNL     1       9.205  13.392  21.258  0.00  0.00    +0.000 A 
ATOM     24  C   UNL     1       8.851  12.402  22.141  0.00  0.00    +0.000 A 
ATOM     25  O   UNL     1       8.893  11.194  21.535  0.00  0.00    +0.000 OA
ENDBRANCH  20  21
ENDBRANCH  18  19
ENDBRANCH   6  17
TORSDOF 5
ENDMDL
MODEL 6
REMARK VINA RESULT:      -7.8      4.406      5.131
REMARK  Name = 
REMARK  6 active torsions:
REMARK  status: ('A' for Active; 'I' for Inactive)
REMARK    1  A    between atoms: C_1  and  O_2
REMARK    2  A    between atoms: O_2  and  C_3
REMARK    3  A    between atoms: C_6  and  C_7
REMARK    4  A    between atoms: N_12  and  N_13
REMARK    5  A    between atoms: C_14  and  C_15
REMARK    6  A    between atoms: C_16  and  C_17
REMARK                            x       y       z     vdW  Elec       q    Type
REMARK                         _______ _______ _______ _____ _____    ______ ____
ROOT
ATOM      1  C   UNL     1       2.293   6.068  19.967  0.00  0.00    +0.000 A 
ATOM      2  C   UNL     1       1.521   5.297  20.815  0.00  0.00    +0.000 A 
ATOM      3  N   UNL     1       1.894   4.056  21.170  0.00  0.00    +0.000 NA
ATOM      4  N   UNL     1       3.066   3.581  20.680  0.00  0.00    +0.000 NA
ATOM      5  C   UNL     1       3.817   4.341  19.846  0.00  0.00    +0.000 A 
ATOM      6  N   UNL     1       5.030   3.774  19.405  0.00  0.00    +0.000 N 
ATOM      7  N   UNL     1       3.456   5.586  19.473  0.00  0.00    +0.000 NA
ATOM      8  H   UNL     1       5.043   2.797  19.681  0.00  0.00    +0.000 HD
ENDROOT
BRANCH   1  12
ATOM      9  C   UNL     1       1.372  10.154  18.914  0.00  0.00    +0.000 A 
ATOM     10  C   UNL     1       1.994   9.308  18.000  0.00  0.00    +0.000 A 
ATOM     11  C   UNL     1       2.261   7.974  18.333  0.00  0.00    +0.000 A 
ATOM     12  C   UNL     1       1.939   7.455  19.600  0.00  0.00    +0.000 A 
ATOM     13  C   UNL     1       1.301   8.327  20.502  0.00  0.00    +0.000 A 
ATOM     14  C   UNL     1       1.026   9.661  20.168  0.00  0.00    +0.000 A 
BRANCH   9  16
ATOM     15  C   UNL     1      -0.004  12.074  18.959  0.00  0.00    +0.000 C 
ATOM     16  O   UNL     1       1.186  11.444  18.497  0.00  0.00    +0.000 OA
ENDBRANCH   9  16
ENDBRANCH   1  12
BRANCH   6  17
ATOM     17  N   UNL     1       5.508   4.149  18.186  0.00  0.00    +0.000 NA
ATOM     18  C   UNL     1       4.919   3.603  17.172  0.00  0.00    +0.000 C 
BRANCH  18  19
ATOM     19  C   UNL     1       5.357   3.921  15.801  0.00  0.00    +0.000 C 
ATOM     20  C   UNL     1       6.638   4.198  15.524  0.00  0.00    +0.000 C 
BRANCH  20  21
ATOM     21  C   UNL     1       7.014   4.553  14.198  0.00  0.00    +0.000 A 
ATOM     22  C   UNL     1       6.592   4.012  12.991  0.00  0.00    +0.000 A 
ATOM     23  C   UNL     1       7.271   4.686  11.946  0.00  0.00    +0.000 A 
ATOM     24  C   UNL     1       8.074   5.615  12.560  0.00  0.00    +0.000 A 
ATOM     25  O   UNL     1       7.929   5.548  13.903  0.00  0.00    +0.000 OA
ENDBRANCH  20  21
ENDBRANCH  18  19
ENDBRANCH   6  17
TORSDOF 5
ENDMDL
MODEL 7
REMARK VINA RESULT:      -7.7      1.085      1.265
REMARK  Name = 
REMARK  6 active torsions:
REMARK  status: ('A' for Active; 'I' for Inactive)
REMARK    1  A    between atoms: C_1  and  O_2
REMARK    2  A    between atoms: O_2  and  C_3
REMARK    3  A    between atoms: C_6  and  C_7
REMARK    4  A    between atoms: N_12  and  N_13
REMARK    5  A    between atoms: C_14  and  C_15
REMARK    6  A    between atoms: C_16  and  C_17
REMARK                            x       y       z     vdW  Elec       q    Type
REMARK                         _______ _______ _______ _____ _____    ______ ____
ROOT
ATOM      1  C   UNL     1       4.048   5.487  18.006  0.00  0.00    +0.000 A 
ATOM      2  C   UNL     1       3.717   4.257  17.470  0.00  0.00    +0.000 A 
ATOM      3  N   UNL     1       4.585   3.563  16.715  0.00  0.00    +0.000 NA
ATOM      4  N   UNL     1       5.811   4.100  16.503  0.00  0.00    +0.000 NA
ATOM      5  C   UNL     1       6.130   5.308  17.029  0.00  0.00    +0.000 A 
ATOM      6  N   UNL     1       7.435   5.777  16.774  0.00  0.00    +0.000 N 
ATOM      7  N   UNL     1       5.269   6.023  17.783  0.00  0.00    +0.000 NA
ATOM      8  H   UNL     1       7.862   5.167  16.084  0.00  0.00    +0.000 HD
ENDROOT
BRANCH   1  12
ATOM      9  C   UNL     1       1.292   7.664  20.520  0.00  0.00    +0.000 A 
ATOM     10  C   UNL     1       1.651   6.353  20.827  0.00  0.00    +0.000 A 
ATOM     11  C   UNL     1       2.570   5.662  20.028  0.00  0.00    +0.000 A 
ATOM     12  C   UNL     1       3.137   6.251  18.883  0.00  0.00    +0.000 A 
ATOM     13  C   UNL     1       2.767   7.579  18.600  0.00  0.00    +0.000 A 
ATOM     14  C   UNL     1       1.852   8.276  19.402  0.00  0.00    +0.000 A 
BRANCH   9  16
ATOM     15  C   UNL     1       0.256   9.651  21.267  0.00  0.00    +0.000 C 
ATOM     16  O   UNL     1       0.364   8.234  21.348  0.00  0.00    +0.000 OA
ENDBRANCH   9  16
ENDBRANCH   1  12
BRANCH   6  17
ATOM     17  N   UNL     1       7.634   7.123  16.719  0.00  0.00    +0.000 NA
ATOM     18  C   UNL     1       7.945   7.680  17.844  0.00  0.00    +0.000 C 
BRANCH  18  19
ATOM     19  C   UNL     1       8.172   9.134  17.914  0.00  0.00    +0.000 C 
ATOM     20  C   UNL     1       9.053   9.662  18.774  0.00  0.00    +0.000 C 
BRANCH  20  21
ATOM     21  C   UNL     1       9.207  11.075  18.850  0.00  0.00    +0.000 A 
ATOM     22  C   UNL     1       9.412  11.877  19.965  0.00  0.00    +0.000 A 
ATOM     23  C   UNL     1       9.477  13.225  19.531  0.00  0.00    +0.000 A 
ATOM     24  C   UNL     1       9.314  13.187  18.168  0.00  0.00    +0.000 A 
ATOM     25  O   UNL     1       9.154  11.910  17.749  0.00  0.00    +0.000 OA
ENDBRANCH  20  21
ENDBRANCH  18  19
ENDBRANCH   6  17
TORSDOF 5
ENDMDL
MODEL 8
REMARK VINA RESULT:      -7.7      0.971      1.477
REMARK  Name = 
REMARK  6 active torsions:
REMARK  status: ('A' for Active; 'I' for Inactive)
REMARK    1  A    between atoms: C_1  and  O_2
REMARK    2  A    between atoms: O_2  and  C_3
REMARK    3  A    between atoms: C_6  and  C_7
REMARK    4  A    between atoms: N_12  and  N_13
REMARK    5  A    between atoms: C_14  and  C_15
REMARK    6  A    between atoms: C_16  and  C_17
REMARK                            x       y       z     vdW  Elec       q    Type
REMARK                         _______ _______ _______ _____ _____    ______ ____
ROOT
ATOM      1  C   UNL     1       3.501   5.883  18.350  0.00  0.00    +0.000 A 
ATOM      2  C   UNL     1       3.024   4.768  17.688  0.00  0.00    +0.000 A 
ATOM      3  N   UNL     1       3.829   3.741  17.371  0.00  0.00    +0.000 NA
ATOM      4  N   UNL     1       5.134   3.823  17.733  0.00  0.00    +0.000 NA
ATOM      5  C   UNL     1       5.597   4.920  18.379  0.00  0.00    +0.000 A 
ATOM      6  N   UNL     1       6.961   4.907  18.735  0.00  0.00    +0.000 N 
ATOM      7  N   UNL     1       4.805   5.964  18.700  0.00  0.00    +0.000 NA
ATOM      8  H   UNL     1       7.399   4.109  18.285  0.00  0.00    +0.000 HD
ENDROOT
BRANCH   1  12
ATOM      9  C   UNL     1       1.058   9.234  19.557  0.00  0.00    +0.000 A 
ATOM     10  C   UNL     1       1.501   9.115  18.242  0.00  0.00    +0.000 A 
ATOM     11  C   UNL     1       2.266   8.010  17.847  0.00  0.00    +0.000 A 
ATOM     12  C   UNL     1       2.632   7.006  18.761  0.00  0.00    +0.000 A 
ATOM     13  C   UNL     1       2.163   7.142  20.080  0.00  0.00    +0.000 A 
ATOM     14  C   UNL     1       1.392   8.244  20.477  0.00  0.00    +0.000 A 
BRANCH   9  16
ATOM     15  C   UNL     1      -1.003  10.376  19.386  0.00  0.00    +0.000 C 
ATOM     16  O   UNL     1       0.345  10.366  19.843  0.00  0.00    +0.000 OA
ENDBRANCH   9  16
ENDBRANCH   1  12
BRANCH   6  17
ATOM     17  N   UNL     1       7.616   6.099  18.810  0.00  0.00    +0.000 NA
ATOM     18  C   UNL     1       7.458   6.879  17.792  0.00  0.00    +0.000 C 
BRANCH  18  19
ATOM     19  C   UNL     1       8.128   8.191  17.751  0.00  0.00    +0.000 C 
ATOM     20  C   UNL     1       8.572   8.782  18.868  0.00  0.00    +0.000 C 
BRANCH  20  21
ATOM     21  C   UNL     1       9.166  10.074  18.795  0.00  0.00    +0.000 A 
ATOM     22  C   UNL     1       9.000  11.065  17.837  0.00  0.00    +0.000 A 
ATOM     23  C   UNL     1       9.824  12.162  18.192  0.00  0.00    +0.000 A 
ATOM     24  C   UNL     1      10.454  11.795  19.355  0.00  0.00    +0.000 A 
ATOM     25  O   UNL     1      10.069  10.553  19.728  0.00  0.00    +0.000 OA
ENDBRANCH  20  21
ENDBRANCH  18  19
ENDBRANCH   6  17
TORSDOF 5
ENDMDL
MODEL 9
REMARK VINA RESULT:      -7.7      2.761      3.739
REMARK  Name = 
REMARK  6 active torsions:
REMARK  status: ('A' for Active; 'I' for Inactive)
REMARK    1  A    between atoms: C_1  and  O_2
REMARK    2  A    between atoms: O_2  and  C_3
REMARK    3  A    between atoms: C_6  and  C_7
REMARK    4  A    between atoms: N_12  and  N_13
REMARK    5  A    between atoms: C_14  and  C_15
REMARK    6  A    between atoms: C_16  and  C_17
REMARK                            x       y       z     vdW  Elec       q    Type
REMARK                         _______ _______ _______ _____ _____    ______ ____
ROOT
ATOM      1  C   UNL     1       4.743   4.827  16.693  0.00  0.00    +0.000 A 
ATOM      2  C   UNL     1       4.750   4.288  15.421  0.00  0.00    +0.000 A 
ATOM      3  N   UNL     1       5.713   4.592  14.535  0.00  0.00    +0.000 NA
ATOM      4  N   UNL     1       6.694   5.440  14.930  0.00  0.00    +0.000 NA
ATOM      5  C   UNL     1       6.680   5.969  16.178  0.00  0.00    +0.000 A 
ATOM      6  N   UNL     1       7.752   6.822  16.508  0.00  0.00    +0.000 N 
ATOM      7  N   UNL     1       5.719   5.680  17.079  0.00  0.00    +0.000 NA
ATOM      8  H   UNL     1       8.278   7.015  15.661  0.00  0.00    +0.000 HD
ENDROOT
BRANCH   1  12
ATOM      9  C   UNL     1       1.862   3.815  19.748  0.00  0.00    +0.000 A 
ATOM     10  C   UNL     1       2.123   5.145  19.430  0.00  0.00    +0.000 A 
ATOM     11  C   UNL     1       3.033   5.469  18.415  0.00  0.00    +0.000 A 
ATOM     12  C   UNL     1       3.730   4.472  17.709  0.00  0.00    +0.000 A 
ATOM     13  C   UNL     1       3.442   3.136  18.041  0.00  0.00    +0.000 A 
ATOM     14  C   UNL     1       2.526   2.809  19.051  0.00  0.00    +0.000 A 
BRANCH   9  16
ATOM     15  C   UNL     1       1.366   2.631  21.731  0.00  0.00    +0.000 C 
ATOM     16  O   UNL     1       0.980   3.611  20.774  0.00  0.00    +0.000 OA
ENDBRANCH   9  16
ENDBRANCH   1  12
BRANCH   6  17
ATOM     17  N   UNL     1       7.529   7.811  17.417  0.00  0.00    +0.000 NA
ATOM     18  C   UNL     1       8.477   8.684  17.524  0.00  0.00    +0.000 C 
BRANCH  18  19
ATOM     19  C   UNL     1       8.357   9.795  18.485  0.00  0.00    +0.000 C 
ATOM     20  C   UNL     1       9.402  10.581  18.776  0.00  0.00    +0.000 C 
BRANCH  20  21
ATOM     21  C   UNL     1       9.262  11.610  19.749  0.00  0.00    +0.000 A 
ATOM     22  C   UNL     1       9.237  11.513  21.135  0.00  0.00    +0.000 A 
ATOM     23  C   UNL     1       9.054  12.814  21.664  0.00  0.00    +0.000 A 
ATOM     24  C   UNL     1       8.980  13.652  20.579  0.00  0.00    +0.000 A 
ATOM     25  O   UNL     1       9.106  12.948  19.431  0.00  0.00    +0.000 OA
ENDBRANCH  20  21
ENDBRANCH  18  19
ENDBRANCH   6  17
TORSDOF 5
ENDMDL
