MODEL 1
REMARK VINA RESULT:      -7.4      0.000      0.000
REMARK  Name = 
REMARK  10 active torsions:
REMARK  status: ('A' for Active; 'I' for Inactive)
REMARK    1  A    between atoms: C_1  and  C_2
REMARK    2  A    between atoms: C_2  and  C_3
REMARK    3  A    between atoms: C_3  and  N_4
REMARK    4  A    between atoms: N_4  and  C_5
REMARK    5  A    between atoms: N_4  and  C_12
REMARK    6  A    between atoms: C_5  and  C_6
REMARK    7  A    between atoms: C_14  and  C_15
REMARK    8  A    between atoms: C_14  and  C_16
REMARK    9  A    between atoms: C_18  and  C_19
REMARK   10  A    between atoms: C_18  and  C_20
REMARK                            x       y       z     vdW  Elec       q    Type
REMARK                         _______ _______ _______ _____ _____    ______ ____
ROOT
ATOM      1  N   UNL     1       3.349   6.454  17.758  0.00  0.00    +0.000 NA
ENDROOT
BRANCH   1   2
ATOM      2  C   UNL     1       4.756   6.058  17.340  0.00  0.00    +0.000 C 
ATOM      3  C   UNL     1       5.661   7.257  17.676  0.00  0.00    +0.000 C 
ATOM      4  C   UNL     1       7.165   6.961  17.539  0.00  0.00    +0.000 C 
ATOM      5  C   UNL     1       7.907   8.318  17.556  0.00  0.00    +0.000 C 
ATOM      6  C   UNL     1       7.683   6.158  18.746  0.00  0.00    +0.000 C 
ATOM      7  N   UNL     1       7.503   6.326  16.264  0.00  0.00    +0.000 NA
ATOM      8  C   UNL     1       6.615   5.285  15.731  0.00  0.00    +0.000 C 
ATOM      9  C   UNL     1       6.949   5.182  14.226  0.00  0.00    +0.000 C 
ATOM     10  C   UNL     1       6.944   3.901  16.334  0.00  0.00    +0.000 C 
ATOM     11  C   UNL     1       5.105   5.651  15.886  0.00  0.00    +0.000 C 
ATOM     12  H   UNL     1       8.475   6.012  16.262  0.00  0.00    +0.000 HD
ENDBRANCH   1   2
BRANCH   1  13
ATOM     13  C   UNL     1       3.280   7.953  17.637  0.00  0.00    +0.000 C 
BRANCH  13  15
ATOM     14  C   UNL     1       1.959  10.151  17.981  0.00  0.00    +0.000 C 
ATOM     15  C   UNL     1       1.913   8.646  17.803  0.00  0.00    +0.000 C 
ENDBRANCH  13  15
ENDBRANCH   1  13
BRANCH   1  16
ATOM     16  C   UNL     1       2.949   5.966  19.107  0.00  0.00    +0.000 C 
BRANCH  16  17
ATOM     17  C   UNL     1       2.175   4.655  19.231  0.00  0.00    +0.000 A 
ATOM     18  C   UNL     1       1.843   4.149  20.507  0.00  0.00    +0.000 A 
ATOM     19  C   UNL     1       1.086   2.977  20.647  0.00  0.00    +0.000 A 
ATOM     20  C   UNL     1       0.670   2.329  19.503  0.00  0.00    +0.000 A 
ATOM     21  N   UNL     1       0.983   2.755  18.264  0.00  0.00    +0.000 NA
ATOM     22  C   UNL     1       1.741   3.886  18.165  0.00  0.00    +0.000 A 
ENDBRANCH  16  17
ENDBRANCH   1  16
TORSDOF 5
ENDMDL
MODEL 2
REMARK VINA RESULT:      -7.4      1.110      1.323
REMARK  Name = 
REMARK  10 active torsions:
REMARK  status: ('A' for Active; 'I' for Inactive)
REMARK    1  A    between atoms: C_1  and  C_2
REMARK    2  A    between atoms: C_2  and  C_3
REMARK    3  A    between atoms: C_3  and  N_4
REMARK    4  A    between atoms: N_4  and  C_5
REMARK    5  A    between atoms: N_4  and  C_12
REMARK    6  A    between atoms: C_5  and  C_6
REMARK    7  A    between atoms: C_14  and  C_15
REMARK    8  A    between atoms: C_14  and  C_16
REMARK    9  A    between atoms: C_18  and  C_19
REMARK   10  A    between atoms: C_18  and  C_20
REMARK                            x       y       z     vdW  Elec       q    Type
REMARK                         _______ _______ _______ _____ _____    ______ ____
ROOT
ATOM      1  N   UNL     1       3.200   5.999  17.518  0.00  0.00    +0.000 NA
ENDROOT
BRANCH   1   2
ATOM      2  C   UNL     1       4.643   5.718  17.130  0.00  0.00    +0.000 C 
ATOM      3  C   UNL     1       5.453   6.959  17.548  0.00  0.00    +0.000 C 
ATOM      4  C   UNL     1       6.977   6.772  17.448  0.00  0.00    +0.000 C 
ATOM      5  C   UNL     1       7.623   8.174  17.549  0.00  0.00    +0.000 C 
ATOM      6  C   UNL     1       7.512   5.951  18.636  0.00  0.00    +0.000 C 
ATOM      7  N   UNL     1       7.397   6.220  16.158  0.00  0.00    +0.000 NA
ATOM      8  C   UNL     1       6.598   5.147  15.551  0.00  0.00    +0.000 C 
ATOM      9  C   UNL     1       6.984   5.135  14.056  0.00  0.00    +0.000 C 
ATOM     10  C   UNL     1       7.004   3.761  16.104  0.00  0.00    +0.000 C 
ATOM     11  C   UNL     1       5.063   5.403  15.672  0.00  0.00    +0.000 C 
ATOM     12  H   UNL     1       8.387   5.972  16.175  0.00  0.00    +0.000 HD
ENDBRANCH   1   2
BRANCH   1  13
ATOM     13  C   UNL     1       3.255   6.882  18.736  0.00  0.00    +0.000 C 
BRANCH  13  15
ATOM     14  C   UNL     1       2.024   9.003  17.914  0.00  0.00    +0.000 C 
ATOM     15  C   UNL     1       2.126   7.908  18.958  0.00  0.00    +0.000 C 
ENDBRANCH  13  15
ENDBRANCH   1  13
BRANCH   1  16
ATOM     16  C   UNL     1       2.372   4.780  17.727  0.00  0.00    +0.000 C 
BRANCH  16  17
ATOM     17  C   UNL     1       2.427   4.057  19.071  0.00  0.00    +0.000 A 
ATOM     18  C   UNL     1       1.327   4.122  19.954  0.00  0.00    +0.000 A 
ATOM     19  C   UNL     1       1.331   3.422  21.169  0.00  0.00    +0.000 A 
ATOM     20  C   UNL     1       2.439   2.662  21.481  0.00  0.00    +0.000 A 
ATOM     21  N   UNL     1       3.524   2.588  20.685  0.00  0.00    +0.000 NA
ATOM     22  C   UNL     1       3.496   3.302  19.522  0.00  0.00    +0.000 A 
ENDBRANCH  16  17
ENDBRANCH   1  16
TORSDOF 5
ENDMDL
MODEL 3
REMARK VINA RESULT:      -7.3      0.731      1.098
REMARK  Name = 
REMARK  10 active torsions:
REMARK  status: ('A' for Active; 'I' for Inactive)
REMARK    1  A    between atoms: C_1  and  C_2
REMARK    2  A    between atoms: C_2  and  C_3
REMARK    3  A    between atoms: C_3  and  N_4
REMARK    4  A    between atoms: N_4  and  C_5
REMARK    5  A    between atoms: N_4  and  C_12
REMARK    6  A    between atoms: C_5  and  C_6
REMARK    7  A    between atoms: C_14  and  C_15
REMARK    8  A    between atoms: C_14  and  C_16
REMARK    9  A    between atoms: C_18  and  C_19
REMARK   10  A    between atoms: C_18  and  C_20
REMARK                            x       y       z     vdW  Elec       q    Type
REMARK                         _______ _______ _______ _____ _____    ______ ____
ROOT
ATOM      1  N   UNL     1       3.358   6.509  17.883  0.00  0.00    +0.000 NA
ENDROOT
BRANCH   1   2
ATOM      2  C   UNL     1       4.750   6.100  17.428  0.00  0.00    +0.000 C 
ATOM      3  C   UNL     1       5.674   7.292  17.739  0.00  0.00    +0.000 C 
ATOM      4  C   UNL     1       7.172   6.983  17.563  0.00  0.00    +0.000 C 
ATOM      5  C   UNL     1       7.925   8.333  17.558  0.00  0.00    +0.000 C 
ATOM      6  C   UNL     1       7.714   6.176  18.756  0.00  0.00    +0.000 C 
ATOM      7  N   UNL     1       7.470   6.344  16.279  0.00  0.00    +0.000 NA
ATOM      8  C   UNL     1       6.559   5.310  15.771  0.00  0.00    +0.000 C 
ATOM      9  C   UNL     1       6.852   5.203  14.258  0.00  0.00    +0.000 C 
ATOM     10  C   UNL     1       6.892   3.923  16.367  0.00  0.00    +0.000 C 
ATOM     11  C   UNL     1       5.057   5.690  15.966  0.00  0.00    +0.000 C 
ATOM     12  H   UNL     1       8.438   6.021  16.252  0.00  0.00    +0.000 HD
ENDBRANCH   1   2
BRANCH   1  13
ATOM     13  C   UNL     1       3.268   7.998  17.678  0.00  0.00    +0.000 C 
BRANCH  13  15
ATOM     14  C   UNL     1       1.450   9.341  18.938  0.00  0.00    +0.000 C 
ATOM     15  C   UNL     1       1.875   8.657  17.652  0.00  0.00    +0.000 C 
ENDBRANCH  13  15
ENDBRANCH   1  13
BRANCH   1  16
ATOM     16  C   UNL     1       3.022   6.098  19.274  0.00  0.00    +0.000 C 
BRANCH  16  17
ATOM     17  C   UNL     1       2.215   4.822  19.505  0.00  0.00    +0.000 A 
ATOM     18  C   UNL     1       1.792   4.044  18.404  0.00  0.00    +0.000 A 
ATOM     19  C   UNL     1       1.099   2.840  18.592  0.00  0.00    +0.000 A 
ATOM     20  C   UNL     1       0.841   2.430  19.883  0.00  0.00    +0.000 A 
ATOM     21  N   UNL     1       1.200   3.148  20.965  0.00  0.00    +0.000 NA
ATOM     22  C   UNL     1       1.852   4.327  20.745  0.00  0.00    +0.000 A 
ENDBRANCH  16  17
ENDBRANCH   1  16
TORSDOF 5
ENDMDL
MODEL 4
REMARK VINA RESULT:      -7.3      1.314      1.578
REMARK  Name = 
REMARK  10 active torsions:
REMARK  status: ('A' for Active; 'I' for Inactive)
REMARK    1  A    between atoms: C_1  and  C_2
REMARK    2  A    between atoms: C_2  and  C_3
REMARK    3  A    between atoms: C_3  and  N_4
REMARK    4  A    between atoms: N_4  and  C_5
REMARK    5  A    between atoms: N_4  and  C_12
REMARK    6  A    between atoms: C_5  and  C_6
REMARK    7  A    between atoms: C_14  and  C_15
REMARK    8  A    between atoms: C_14  and  C_16
REMARK    9  A    between atoms: C_18  and  C_19
REMARK   10  A    between atoms: C_18  and  C_20
REMARK                            x       y       z     vdW  Elec       q    Type
REMARK                         _______ _______ _______ _____ _____    ______ ____
ROOT
ATOM      1  N   UNL     1       3.255   6.515  17.450  0.00  0.00    +0.000 NA
ENDROOT
BRANCH   1   2
ATOM      2  C   UNL     1       4.674   6.079  17.119  0.00  0.00    +0.000 C 
ATOM      3  C   UNL     1       5.591   7.243  17.533  0.00  0.00    +0.000 C 
ATOM      4  C   UNL     1       7.091   6.901  17.492  0.00  0.00    +0.000 C 
ATOM      5  C   UNL     1       7.873   8.232  17.578  0.00  0.00    +0.000 C 
ATOM      6  C   UNL     1       7.502   6.065  18.718  0.00  0.00    +0.000 C 
ATOM      7  N   UNL     1       7.493   6.272  16.232  0.00  0.00    +0.000 NA
ATOM      8  C   UNL     1       6.610   5.267  15.625  0.00  0.00    +0.000 C 
ATOM      9  C   UNL     1       7.040   5.173  14.145  0.00  0.00    +0.000 C 
ATOM     10  C   UNL     1       6.854   3.865  16.227  0.00  0.00    +0.000 C 
ATOM     11  C   UNL     1       5.105   5.680  15.686  0.00  0.00    +0.000 C 
ATOM     12  H   UNL     1       8.452   5.926  16.289  0.00  0.00    +0.000 HD
ENDBRANCH   1   2
BRANCH   1  13
ATOM     13  C   UNL     1       3.333   7.979  17.790  0.00  0.00    +0.000 C 
BRANCH  13  15
ATOM     14  C   UNL     1       1.420   9.203  19.031  0.00  0.00    +0.000 C 
ATOM     15  C   UNL     1       2.049   8.828  17.703  0.00  0.00    +0.000 C 
ENDBRANCH  13  15
ENDBRANCH   1  13
BRANCH   1  16
ATOM     16  C   UNL     1       2.597   5.710  18.515  0.00  0.00    +0.000 C 
BRANCH  16  17
ATOM     17  C   UNL     1       2.900   4.217  18.622  0.00  0.00    +0.000 A 
ATOM     18  C   UNL     1       2.372   3.319  17.668  0.00  0.00    +0.000 A 
ATOM     19  C   UNL     1       2.681   1.952  17.712  0.00  0.00    +0.000 A 
ATOM     20  C   UNL     1       3.517   1.503  18.712  0.00  0.00    +0.000 A 
ATOM     21  N   UNL     1       4.024   2.314  19.661  0.00  0.00    +0.000 NA
ATOM     22  C   UNL     1       3.684   3.635  19.602  0.00  0.00    +0.000 A 
ENDBRANCH  16  17
ENDBRANCH   1  16
TORSDOF 5
ENDMDL
MODEL 5
REMARK VINA RESULT:      -7.2      1.121      1.409
REMARK  Name = 
REMARK  10 active torsions:
REMARK  status: ('A' for Active; 'I' for Inactive)
REMARK    1  A    between atoms: C_1  and  C_2
REMARK    2  A    between atoms: C_2  and  C_3
REMARK    3  A    between atoms: C_3  and  N_4
REMARK    4  A    between atoms: N_4  and  C_5
REMARK    5  A    between atoms: N_4  and  C_12
REMARK    6  A    between atoms: C_5  and  C_6
REMARK    7  A    between atoms: C_14  and  C_15
REMARK    8  A    between atoms: C_14  and  C_16
REMARK    9  A    between atoms: C_18  and  C_19
REMARK   10  A    between atoms: C_18  and  C_20
REMARK                            x       y       z     vdW  Elec       q    Type
REMARK                         _______ _______ _______ _____ _____    ______ ____
ROOT
ATOM      1  N   UNL     1       3.248   5.862  17.545  0.00  0.00    +0.000 NA
ENDROOT
BRANCH   1   2
ATOM      2  C   UNL     1       4.697   5.641  17.138  0.00  0.00    +0.000 C 
ATOM      3  C   UNL     1       5.461   6.910  17.557  0.00  0.00    +0.000 C 
ATOM      4  C   UNL     1       6.991   6.784  17.439  0.00  0.00    +0.000 C 
ATOM      5  C   UNL     1       7.582   8.209  17.543  0.00  0.00    +0.000 C 
ATOM      6  C   UNL     1       7.571   5.976  18.615  0.00  0.00    +0.000 C 
ATOM      7  N   UNL     1       7.417   6.257  16.141  0.00  0.00    +0.000 NA
ATOM      8  C   UNL     1       6.655   5.158  15.535  0.00  0.00    +0.000 C 
ATOM      9  C   UNL     1       7.024   5.172  14.035  0.00  0.00    +0.000 C 
ATOM     10  C   UNL     1       7.120   3.786  16.073  0.00  0.00    +0.000 C 
ATOM     11  C   UNL     1       5.112   5.352  15.674  0.00  0.00    +0.000 C 
ATOM     12  H   UNL     1       8.416   6.049  16.145  0.00  0.00    +0.000 HD
ENDBRANCH   1   2
BRANCH   1  13
ATOM     13  C   UNL     1       3.285   6.641  18.832  0.00  0.00    +0.000 C 
BRANCH  13  15
ATOM     14  C   UNL     1       1.977   8.638  17.835  0.00  0.00    +0.000 C 
ATOM     15  C   UNL     1       2.255   7.767  19.045  0.00  0.00    +0.000 C 
ENDBRANCH  13  15
ENDBRANCH   1  13
BRANCH   1  16
ATOM     16  C   UNL     1       2.442   4.615  17.649  0.00  0.00    +0.000 C 
BRANCH  16  17
ATOM     17  C   UNL     1       2.329   3.905  18.997  0.00  0.00    +0.000 A 
ATOM     18  C   UNL     1       3.420   3.161  19.498  0.00  0.00    +0.000 A 
ATOM     19  C   UNL     1       3.360   2.547  20.757  0.00  0.00    +0.000 A 
ATOM     20  C   UNL     1       2.207   2.689  21.499  0.00  0.00    +0.000 A 
ATOM     21  N   UNL     1       1.129   3.366  21.055  0.00  0.00    +0.000 NA
ATOM     22  C   UNL     1       1.213   3.931  19.815  0.00  0.00    +0.000 A 
ENDBRANCH  16  17
ENDBRANCH   1  16
TORSDOF 5
ENDMDL
MODEL 6
REMARK VINA RESULT:      -7.1      1.314      2.750
REMARK  Name = 
REMARK  10 active torsions:
REMARK  status: ('A' for Active; 'I' for Inactive)
REMARK    1  A    between atoms: C_1  and  C_2
REMARK    2  A    between atoms: C_2  and  C_3
REMARK    3  A    between atoms: C_3  and  N_4
REMARK    4  A    between atoms: N_4  and  C_5
REMARK    5  A    between atoms: N_4  and  C_12
REMARK    6  A    between atoms: C_5  and  C_6
REMARK    7  A    between atoms: C_14  and  C_15
REMARK    8  A    between atoms: C_14  and  C_16
REMARK    9  A    between atoms: C_18  and  C_19
REMARK   10  A    between atoms: C_18  and  C_20
REMARK                            x       y       z     vdW  Elec       q    Type
REMARK                         _______ _______ _______ _____ _____    ______ ____
ROOT
ATOM      1  N   UNL     1       2.911   6.565  18.177  0.00  0.00    +0.000 NA
ENDROOT
BRANCH   1   2
ATOM      2  C   UNL     1       4.357   6.335  17.765  0.00  0.00    +0.000 C 
ATOM      3  C   UNL     1       4.367   5.045  16.925  0.00  0.00    +0.000 C 
ATOM      4  C   UNL     1       5.708   4.770  16.221  0.00  0.00    +0.000 C 
ATOM      5  C   UNL     1       5.680   3.305  15.728  0.00  0.00    +0.000 C 
ATOM      6  C   UNL     1       5.868   5.656  14.971  0.00  0.00    +0.000 C 
ATOM      7  N   UNL     1       6.854   4.876  17.126  0.00  0.00    +0.000 NA
ATOM      8  C   UNL     1       6.883   5.963  18.113  0.00  0.00    +0.000 C 
ATOM      9  C   UNL     1       7.907   5.527  19.184  0.00  0.00    +0.000 C 
ATOM     10  C   UNL     1       7.441   7.267  17.499  0.00  0.00    +0.000 C 
ATOM     11  C   UNL     1       5.498   6.181  18.801  0.00  0.00    +0.000 C 
ATOM     12  H   UNL     1       7.732   4.833  16.605  0.00  0.00    +0.000 HD
ENDBRANCH   1   2
BRANCH   1  13
ATOM     13  C   UNL     1       2.542   7.935  17.674  0.00  0.00    +0.000 C 
BRANCH  13  15
ATOM     14  C   UNL     1       1.656  10.289  18.277  0.00  0.00    +0.000 C 
ATOM     15  C   UNL     1       1.572   8.793  18.509  0.00  0.00    +0.000 C 
ENDBRANCH  13  15
ENDBRANCH   1  13
BRANCH   1  16
ATOM     16  C   UNL     1       2.652   6.397  19.633  0.00  0.00    +0.000 C 
BRANCH  16  17
ATOM     17  C   UNL     1       2.162   5.049  20.158  0.00  0.00    +0.000 A 
ATOM     18  C   UNL     1       1.363   4.220  19.340  0.00  0.00    +0.000 A 
ATOM     19  C   UNL     1       0.947   2.955  19.778  0.00  0.00    +0.000 A 
ATOM     20  C   UNL     1       1.340   2.536  21.032  0.00  0.00    +0.000 A 
ATOM     21  N   UNL     1       2.079   3.299  21.860  0.00  0.00    +0.000 NA
ATOM     22  C   UNL     1       2.446   4.535  21.411  0.00  0.00    +0.000 A 
ENDBRANCH  16  17
ENDBRANCH   1  16
TORSDOF 5
ENDMDL
MODEL 7
REMARK VINA RESULT:      -7.1      1.251      1.315
REMARK  Name = 
REMARK  10 active torsions:
REMARK  status: ('A' for Active; 'I' for Inactive)
REMARK    1  A    between atoms: C_1  and  C_2
REMARK    2  A    between atoms: C_2  and  C_3
REMARK    3  A    between atoms: C_3  and  N_4
REMARK    4  A    between atoms: N_4  and  C_5
REMARK    5  A    between atoms: N_4  and  C_12
REMARK    6  A    between atoms: C_5  and  C_6
REMARK    7  A    between atoms: C_14  and  C_15
REMARK    8  A    between atoms: C_14  and  C_16
REMARK    9  A    between atoms: C_18  and  C_19
REMARK   10  A    between atoms: C_18  and  C_20
REMARK                            x       y       z     vdW  Elec       q    Type
REMARK                         _______ _______ _______ _____ _____    ______ ____
ROOT
ATOM      1  N   UNL     1       3.228   6.503  17.368  0.00  0.00    +0.000 NA
ENDROOT
BRANCH   1   2
ATOM      2  C   UNL     1       4.648   6.057  17.056  0.00  0.00    +0.000 C 
ATOM      3  C   UNL     1       5.568   7.212  17.491  0.00  0.00    +0.000 C 
ATOM      4  C   UNL     1       7.066   6.858  17.470  0.00  0.00    +0.000 C 
ATOM      5  C   UNL     1       7.856   8.183  17.576  0.00  0.00    +0.000 C 
ATOM      6  C   UNL     1       7.452   6.012  18.697  0.00  0.00    +0.000 C 
ATOM      7  N   UNL     1       7.482   6.233  16.213  0.00  0.00    +0.000 NA
ATOM      8  C   UNL     1       6.601   5.239  15.587  0.00  0.00    +0.000 C 
ATOM      9  C   UNL     1       7.053   5.150  14.113  0.00  0.00    +0.000 C 
ATOM     10  C   UNL     1       6.825   3.832  16.185  0.00  0.00    +0.000 C 
ATOM     11  C   UNL     1       5.099   5.664  15.627  0.00  0.00    +0.000 C 
ATOM     12  H   UNL     1       8.438   5.880  16.283  0.00  0.00    +0.000 HD
ENDBRANCH   1   2
BRANCH   1  13
ATOM     13  C   UNL     1       3.329   7.924  17.853  0.00  0.00    +0.000 C 
BRANCH  13  15
ATOM     14  C   UNL     1       1.389   9.160  19.038  0.00  0.00    +0.000 C 
ATOM     15  C   UNL     1       2.091   8.836  17.733  0.00  0.00    +0.000 C 
ENDBRANCH  13  15
ENDBRANCH   1  13
BRANCH   1  16
ATOM     16  C   UNL     1       2.502   5.619  18.320  0.00  0.00    +0.000 C 
BRANCH  16  17
ATOM     17  C   UNL     1       2.904   4.150  18.437  0.00  0.00    +0.000 A 
ATOM     18  C   UNL     1       3.751   3.730  19.485  0.00  0.00    +0.000 A 
ATOM     19  C   UNL     1       4.089   2.379  19.646  0.00  0.00    +0.000 A 
ATOM     20  C   UNL     1       3.571   1.465  18.752  0.00  0.00    +0.000 A 
ATOM     21  N   UNL     1       2.781   1.818  17.720  0.00  0.00    +0.000 NA
ATOM     22  C   UNL     1       2.491   3.145  17.579  0.00  0.00    +0.000 A 
ENDBRANCH  16  17
ENDBRANCH   1  16
TORSDOF 5
ENDMDL
MODEL 8
REMARK VINA RESULT:      -7.1      1.331      2.764
REMARK  Name = 
REMARK  10 active torsions:
REMARK  status: ('A' for Active; 'I' for Inactive)
REMARK    1  A    between atoms: C_1  and  C_2
REMARK    2  A    between atoms: C_2  and  C_3
REMARK    3  A    between atoms: C_3  and  N_4
REMARK    4  A    between atoms: N_4  and  C_5
REMARK    5  A    between atoms: N_4  and  C_12
REMARK    6  A    between atoms: C_5  and  C_6
REMARK    7  A    between atoms: C_14  and  C_15
REMARK    8  A    between atoms: C_14  and  C_16
REMARK    9  A    between atoms: C_18  and  C_19
REMARK   10  A    between atoms: C_18  and  C_20
REMARK                            x       y       z     vdW  Elec       q    Type
REMARK                         _______ _______ _______ _____ _____    ______ ____
ROOT
ATOM      1  N   UNL     1       2.833   6.069  17.866  0.00  0.00    +0.000 NA
ENDROOT
BRANCH   1   2
ATOM      2  C   UNL     1       4.315   6.059  17.522  0.00  0.00    +0.000 C 
ATOM      3  C   UNL     1       4.539   4.836  16.613  0.00  0.00    +0.000 C 
ATOM      4  C   UNL     1       5.936   4.786  15.969  0.00  0.00    +0.000 C 
ATOM      5  C   UNL     1       6.130   3.363  15.396  0.00  0.00    +0.000 C 
ATOM      6  C   UNL     1       6.033   5.760  14.781  0.00  0.00    +0.000 C 
ATOM      7  N   UNL     1       7.014   4.986  16.940  0.00  0.00    +0.000 NA
ATOM      8  C   UNL     1       6.849   6.004  17.986  0.00  0.00    +0.000 C 
ATOM      9  C   UNL     1       7.871   5.643  19.086  0.00  0.00    +0.000 C 
ATOM     10  C   UNL     1       7.253   7.406  17.476  0.00  0.00    +0.000 C 
ATOM     11  C   UNL     1       5.417   5.994  18.609  0.00  0.00    +0.000 C 
ATOM     12  H   UNL     1       7.913   5.093  16.467  0.00  0.00    +0.000 HD
ENDBRANCH   1   2
BRANCH   1  13
ATOM     13  C   UNL     1       2.703   6.844  19.149  0.00  0.00    +0.000 C 
BRANCH  13  15
ATOM     14  C   UNL     1       2.018   8.966  17.837  0.00  0.00    +0.000 C 
ATOM     15  C   UNL     1       1.934   8.180  19.132  0.00  0.00    +0.000 C 
ENDBRANCH  13  15
ENDBRANCH   1  13
BRANCH   1  16
ATOM     16  C   UNL     1       2.211   4.719  17.943  0.00  0.00    +0.000 C 
BRANCH  16  17
ATOM     17  C   UNL     1       2.267   3.941  19.256  0.00  0.00    +0.000 A 
ATOM     18  C   UNL     1       1.123   3.861  20.080  0.00  0.00    +0.000 A 
ATOM     19  C   UNL     1       1.132   3.107  21.262  0.00  0.00    +0.000 A 
ATOM     20  C   UNL     1       2.291   2.441  21.602  0.00  0.00    +0.000 A 
ATOM     21  N   UNL     1       3.416   2.506  20.865  0.00  0.00    +0.000 NA
ATOM     22  C   UNL     1       3.379   3.268  19.732  0.00  0.00    +0.000 A 
ENDBRANCH  16  17
ENDBRANCH   1  16
TORSDOF 5
ENDMDL
MODEL 9
REMARK VINA RESULT:      -6.9      1.345      2.794
REMARK  Name = 
REMARK  10 active torsions:
REMARK  status: ('A' for Active; 'I' for Inactive)
REMARK    1  A    between atoms: C_1  and  C_2
REMARK    2  A    between atoms: C_2  and  C_3
REMARK    3  A    between atoms: C_3  and  N_4
REMARK    4  A    between atoms: N_4  and  C_5
REMARK    5  A    between atoms: N_4  and  C_12
REMARK    6  A    between atoms: C_5  and  C_6
REMARK    7  A    between atoms: C_14  and  C_15
REMARK    8  A    between atoms: C_14  and  C_16
REMARK    9  A    between atoms: C_18  and  C_19
REMARK   10  A    between atoms: C_18  and  C_20
REMARK                            x       y       z     vdW  Elec       q    Type
REMARK                         _______ _______ _______ _____ _____    ______ ____
ROOT
ATOM      1  N   UNL     1       2.815   6.047  17.880  0.00  0.00    +0.000 NA
ENDROOT
BRANCH   1   2
ATOM      2  C   UNL     1       4.296   6.046  17.535  0.00  0.00    +0.000 C 
ATOM      3  C   UNL     1       4.525   4.828  16.622  0.00  0.00    +0.000 C 
ATOM      4  C   UNL     1       5.922   4.786  15.977  0.00  0.00    +0.000 C 
ATOM      5  C   UNL     1       6.123   3.366  15.399  0.00  0.00    +0.000 C 
ATOM      6  C   UNL     1       6.013   5.764  14.791  0.00  0.00    +0.000 C 
ATOM      7  N   UNL     1       7.000   4.989  16.947  0.00  0.00    +0.000 NA
ATOM      8  C   UNL     1       6.831   6.002  17.996  0.00  0.00    +0.000 C 
ATOM      9  C   UNL     1       7.856   5.643  19.094  0.00  0.00    +0.000 C 
ATOM     10  C   UNL     1       7.227   7.408  17.490  0.00  0.00    +0.000 C 
ATOM     11  C   UNL     1       5.399   5.983  18.620  0.00  0.00    +0.000 C 
ATOM     12  H   UNL     1       7.898   5.101  16.473  0.00  0.00    +0.000 HD
ENDBRANCH   1   2
BRANCH   1  13
ATOM     13  C   UNL     1       2.690   6.763  19.198  0.00  0.00    +0.000 C 
BRANCH  13  15
ATOM     14  C   UNL     1       1.877   8.850  17.903  0.00  0.00    +0.000 C 
ATOM     15  C   UNL     1       1.977   8.129  19.234  0.00  0.00    +0.000 C 
ENDBRANCH  13  15
ENDBRANCH   1  13
BRANCH   1  16
ATOM     16  C   UNL     1       2.186   4.698  17.894  0.00  0.00    +0.000 C 
BRANCH  16  17
ATOM     17  C   UNL     1       2.146   3.903  19.198  0.00  0.00    +0.000 A 
ATOM     18  C   UNL     1       3.299   3.222  19.646  0.00  0.00    +0.000 A 
ATOM     19  C   UNL     1       3.304   2.532  20.867  0.00  0.00    +0.000 A 
ATOM     20  C   UNL     1       2.151   2.535  21.623  0.00  0.00    +0.000 A 
ATOM     21  N   UNL     1       1.017   3.147  21.228  0.00  0.00    +0.000 NA
ATOM     22  C   UNL     1       1.041   3.789  20.023  0.00  0.00    +0.000 A 
ENDBRANCH  16  17
ENDBRANCH   1  16
TORSDOF 5
ENDMDL
