MODEL 1
REMARK VINA RESULT:      -5.4      0.000      0.000
REMARK  Name = 
REMARK  12 active torsions:
REMARK  status: ('A' for Active; 'I' for Inactive)
REMARK    1  A    between atoms: C_1  and  C_2
REMARK    2  A    between atoms: C_2  and  C_3
REMARK    3  A    between atoms: C_3  and  C_4
REMARK    4  A    between atoms: C_7  and  C_8
REMARK    5  A    between atoms: C_11  and  C_12
REMARK    6  A    between atoms: C_17  and  C_18
REMARK    7  A    between atoms: C_22  and  C_23
REMARK    8  A    between atoms: C_22  and  C_27
REMARK    9  A    between atoms: C_23  and  C_24
REMARK   10  A    between atoms: C_24  and  C_25
REMARK   11  A    between atoms: C_24  and  C_26
REMARK   12  A    between atoms: C_27  and  O_29
REMARK                            x       y       z     vdW  Elec       q    Type
REMARK                         _______ _______ _______ _____ _____    ______ ____
ROOT
ATOM      1  C   UNL     1      -1.630  12.418  21.381  0.00  0.00    +0.000 C 
ATOM      2  O   UNL     1      -2.335  11.881  22.242  0.00  0.00    +0.000 OA
ATOM      3  N   UNL     1      -1.604  13.808  21.248  0.00  0.00    +0.000 N 
ATOM      4  C   UNL     1      -0.935  14.636  20.208  0.00  0.00    +0.000 C 
ATOM      5  C   UNL     1      -0.856  16.012  20.863  0.00  0.00    +0.000 C 
ATOM      6  C   UNL     1      -2.190  16.128  21.602  0.00  0.00    +0.000 C 
ATOM      7  C   UNL     1      -2.586  14.677  22.018  0.00  0.00    +0.000 C 
ENDROOT
BRANCH   1  11
ATOM      8  C   UNL     1       0.615   9.820  18.820  0.00  0.00    +0.000 A 
ATOM      9  C   UNL     1      -0.628  10.314  18.409  0.00  0.00    +0.000 A 
ATOM     10  C   UNL     1      -1.400  11.103  19.262  0.00  0.00    +0.000 A 
ATOM     11  C   UNL     1      -0.888  11.497  20.495  0.00  0.00    +0.000 A 
ATOM     12  C   UNL     1       0.317  10.946  20.951  0.00  0.00    +0.000 A 
ATOM     13  C   UNL     1       1.064  10.109  20.115  0.00  0.00    +0.000 A 
BRANCH   8  14
ATOM     14  C   UNL     1       1.454   8.996  17.876  0.00  0.00    +0.000 C 
BRANCH  14  16
ATOM     15  C   UNL     1       3.426   7.445  17.739  0.00  0.00    +0.000 C 
ATOM     16  C   UNL     1       2.262   7.915  18.599  0.00  0.00    +0.000 C 
ENDBRANCH  14  16
ENDBRANCH   8  14
ENDBRANCH   1  11
BRANCH   4  17
ATOM     17  C   UNL     1       0.410  14.200  19.674  0.00  0.00    +0.000 A 
ATOM     18  N   UNL     1       0.561  13.793  18.424  0.00  0.00    +0.000 NA
ATOM     19  C   UNL     1       1.868  13.446  18.183  0.00  0.00    +0.000 A 
ATOM     20  C   UNL     1       2.724  13.618  19.243  0.00  0.00    +0.000 A 
ATOM     21  S   UNL     1       1.862  14.224  20.599  0.00  0.00    +0.000 S 
ENDBRANCH   4  17
BRANCH   5  22
ATOM     22  C   UNL     1      -0.646  17.122  19.848  0.00  0.00    +0.000 C 
ATOM     23  N   UNL     1      -1.575  17.176  18.853  0.00  0.00    +0.000 N 
ATOM     24  O   UNL     1       0.259  17.939  19.888  0.00  0.00    +0.000 OA
ATOM     25  H   UNL     1      -2.308  16.494  18.719  0.00  0.00    +0.000 HD
ATOM     26  H   UNL     1      -1.470  17.912  18.165  0.00  0.00    +0.000 HD
ENDBRANCH   5  22
BRANCH   7  27
ATOM     27  C   UNL     1      -4.034  14.398  21.500  0.00  0.00    +0.000 C 
ATOM     28  O   UNL     1      -4.935  13.950  22.197  0.00  0.00    +0.000 OA
BRANCH  27  29
ATOM     29  O   UNL     1      -4.242  14.625  20.185  0.00  0.00    +0.000 OA
ATOM     30  H   UNL     1      -4.909  15.331  19.999  0.00  0.00    +0.000 HD
ENDBRANCH  27  29
ENDBRANCH   7  27
BRANCH   7  31
ATOM     31  C   UNL     1      -2.479  14.487  23.567  0.00  0.00    +0.000 C 
BRANCH  31  32
ATOM     32  C   UNL     1      -2.521  15.724  24.511  0.00  0.00    +0.000 C 
ATOM     33  C   UNL     1      -3.926  16.184  24.906  0.00  0.00    +0.000 C 
ATOM     34  C   UNL     1      -1.766  15.394  25.810  0.00  0.00    +0.000 C 
ENDBRANCH  31  32
ENDBRANCH   7  31
TORSDOF 9
ENDMDL
MODEL 2
REMARK VINA RESULT:      -5.4      2.579      5.255
REMARK  Name = 
REMARK  12 active torsions:
REMARK  status: ('A' for Active; 'I' for Inactive)
REMARK    1  A    between atoms: C_1  and  C_2
REMARK    2  A    between atoms: C_2  and  C_3
REMARK    3  A    between atoms: C_3  and  C_4
REMARK    4  A    between atoms: C_7  and  C_8
REMARK    5  A    between atoms: C_11  and  C_12
REMARK    6  A    between atoms: C_17  and  C_18
REMARK    7  A    between atoms: C_22  and  C_23
REMARK    8  A    between atoms: C_22  and  C_27
REMARK    9  A    between atoms: C_23  and  C_24
REMARK   10  A    between atoms: C_24  and  C_25
REMARK   11  A    between atoms: C_24  and  C_26
REMARK   12  A    between atoms: C_27  and  O_29
REMARK                            x       y       z     vdW  Elec       q    Type
REMARK                         _______ _______ _______ _____ _____    ______ ____
ROOT
ATOM      1  C   UNL     1      -1.395  15.124  21.552  0.00  0.00    +0.000 C 
ATOM      2  O   UNL     1      -2.266  15.965  21.797  0.00  0.00    +0.000 OA
ATOM      3  N   UNL     1      -1.501  13.824  22.049  0.00  0.00    +0.000 N 
ATOM      4  C   UNL     1      -0.514  12.713  21.980  0.00  0.00    +0.000 C 
ATOM      5  C   UNL     1      -1.370  11.476  22.238  0.00  0.00    +0.000 C 
ATOM      6  C   UNL     1      -2.352  11.945  23.312  0.00  0.00    +0.000 C 
ATOM      7  C   UNL     1      -2.578  13.469  23.061  0.00  0.00    +0.000 C 
ENDROOT
BRANCH   1  11
ATOM      8  C   UNL     1       1.946  16.427  19.209  0.00  0.00    +0.000 A 
ATOM      9  C   UNL     1       2.030  16.403  20.606  0.00  0.00    +0.000 A 
ATOM     10  C   UNL     1       0.926  16.049  21.381  0.00  0.00    +0.000 A 
ATOM     11  C   UNL     1      -0.242  15.609  20.765  0.00  0.00    +0.000 A 
ATOM     12  C   UNL     1      -0.366  15.704  19.372  0.00  0.00    +0.000 A 
ATOM     13  C   UNL     1       0.725  16.114  18.599  0.00  0.00    +0.000 A 
BRANCH   8  14
ATOM     14  C   UNL     1       3.157  16.779  18.382  0.00  0.00    +0.000 C 
BRANCH  14  16
ATOM     15  C   UNL     1       4.741  14.875  17.961  0.00  0.00    +0.000 C 
ATOM     16  C   UNL     1       3.556  15.660  17.417  0.00  0.00    +0.000 C 
ENDBRANCH  14  16
ENDBRANCH   8  14
ENDBRANCH   1  11
BRANCH   4  17
ATOM     17  C   UNL     1       0.328  12.552  20.735  0.00  0.00    +0.000 A 
ATOM     18  N   UNL     1       1.636  12.748  20.753  0.00  0.00    +0.000 NA
ATOM     19  C   UNL     1       2.172  12.549  19.503  0.00  0.00    +0.000 A 
ATOM     20  C   UNL     1       1.275  12.170  18.536  0.00  0.00    +0.000 A 
ATOM     21  S   UNL     1      -0.303  12.072  19.207  0.00  0.00    +0.000 S 
ENDBRANCH   4  17
BRANCH   5  22
ATOM     22  C   UNL     1      -0.540  10.283  22.679  0.00  0.00    +0.000 C 
ATOM     23  N   UNL     1      -0.425   9.289  21.754  0.00  0.00    +0.000 N 
ATOM     24  O   UNL     1       0.016  10.184  23.760  0.00  0.00    +0.000 OA
ATOM     25  H   UNL     1      -0.912   9.273  20.870  0.00  0.00    +0.000 HD
ATOM     26  H   UNL     1       0.131   8.483  22.013  0.00  0.00    +0.000 HD
ENDBRANCH   5  22
BRANCH   7  27
ATOM     27  C   UNL     1      -2.298  14.231  24.397  0.00  0.00    +0.000 C 
ATOM     28  O   UNL     1      -3.153  14.470  25.240  0.00  0.00    +0.000 OA
BRANCH  27  29
ATOM     29  O   UNL     1      -1.036  14.683  24.562  0.00  0.00    +0.000 OA
ATOM     30  H   UNL     1      -0.930  15.651  24.390  0.00  0.00    +0.000 HD
ENDBRANCH  27  29
ENDBRANCH   7  27
BRANCH   7  31
ATOM     31  C   UNL     1      -4.025  13.743  22.532  0.00  0.00    +0.000 C 
BRANCH  31  32
ATOM     32  C   UNL     1      -4.750  12.682  21.654  0.00  0.00    +0.000 C 
ATOM     33  C   UNL     1      -6.278  12.728  21.721  0.00  0.00    +0.000 C 
ATOM     34  C   UNL     1      -4.350  12.885  20.182  0.00  0.00    +0.000 C 
ENDBRANCH  31  32
ENDBRANCH   7  31
TORSDOF 9
ENDMDL
MODEL 3
REMARK VINA RESULT:      -5.4      2.512      7.363
REMARK  Name = 
REMARK  12 active torsions:
REMARK  status: ('A' for Active; 'I' for Inactive)
REMARK    1  A    between atoms: C_1  and  C_2
REMARK    2  A    between atoms: C_2  and  C_3
REMARK    3  A    between atoms: C_3  and  C_4
REMARK    4  A    between atoms: C_7  and  C_8
REMARK    5  A    between atoms: C_11  and  C_12
REMARK    6  A    between atoms: C_17  and  C_18
REMARK    7  A    between atoms: C_22  and  C_23
REMARK    8  A    between atoms: C_22  and  C_27
REMARK    9  A    between atoms: C_23  and  C_24
REMARK   10  A    between atoms: C_24  and  C_25
REMARK   11  A    between atoms: C_24  and  C_26
REMARK   12  A    between atoms: C_27  and  O_29
REMARK                            x       y       z     vdW  Elec       q    Type
REMARK                         _______ _______ _______ _____ _____    ______ ____
ROOT
ATOM      1  C   UNL     1      -0.178  13.512  21.540  0.00  0.00    +0.000 C 
ATOM      2  O   UNL     1       1.036  13.384  21.725  0.00  0.00    +0.000 OA
ATOM      3  N   UNL     1      -0.826  12.788  20.538  0.00  0.00    +0.000 N 
ATOM      4  C   UNL     1      -2.236  12.891  20.071  0.00  0.00    +0.000 C 
ATOM      5  C   UNL     1      -2.457  11.565  19.350  0.00  0.00    +0.000 C 
ATOM      6  C   UNL     1      -1.127  11.327  18.634  0.00  0.00    +0.000 C 
ATOM      7  C   UNL     1      -0.027  11.981  19.527  0.00  0.00    +0.000 C 
ENDROOT
BRANCH   1  11
ATOM      8  C   UNL     1      -2.229  16.320  24.041  0.00  0.00    +0.000 A 
ATOM      9  C   UNL     1      -1.776  16.704  22.774  0.00  0.00    +0.000 A 
ATOM     10  C   UNL     1      -1.045  15.820  21.980  0.00  0.00    +0.000 A 
ATOM     11  C   UNL     1      -0.854  14.507  22.399  0.00  0.00    +0.000 A 
ATOM     12  C   UNL     1      -1.231  14.134  23.696  0.00  0.00    +0.000 A 
ATOM     13  C   UNL     1      -1.915  15.040  24.513  0.00  0.00    +0.000 A 
BRANCH   8  14
ATOM     14  C   UNL     1      -3.047  17.274  24.875  0.00  0.00    +0.000 C 
BRANCH  14  16
ATOM     15  C   UNL     1      -5.345  17.443  23.873  0.00  0.00    +0.000 C 
ATOM     16  C   UNL     1      -4.511  16.844  24.996  0.00  0.00    +0.000 C 
ENDBRANCH  14  16
ENDBRANCH   8  14
ENDBRANCH   1  11
BRANCH   4  17
ATOM     17  C   UNL     1      -3.327  13.160  21.082  0.00  0.00    +0.000 A 
ATOM     18  N   UNL     1      -3.559  12.335  22.089  0.00  0.00    +0.000 NA
ATOM     19  C   UNL     1      -4.601  12.792  22.860  0.00  0.00    +0.000 A 
ATOM     20  C   UNL     1      -5.145  13.987  22.458  0.00  0.00    +0.000 A 
ATOM     21  S   UNL     1      -4.336  14.555  21.053  0.00  0.00    +0.000 S 
ENDBRANCH   4  17
BRANCH   5  22
ATOM     22  C   UNL     1      -3.638  11.617  18.398  0.00  0.00    +0.000 C 
ATOM     23  N   UNL     1      -3.322  11.897  17.102  0.00  0.00    +0.000 N 
ATOM     24  O   UNL     1      -4.798  11.413  18.716  0.00  0.00    +0.000 OA
ATOM     25  H   UNL     1      -2.397  12.143  16.781  0.00  0.00    +0.000 HD
ATOM     26  H   UNL     1      -4.087  11.928  16.439  0.00  0.00    +0.000 HD
ENDBRANCH   5  22
BRANCH   7  27
ATOM     27  C   UNL     1       0.809  12.958  18.636  0.00  0.00    +0.000 C 
ATOM     28  O   UNL     1       0.519  14.133  18.452  0.00  0.00    +0.000 OA
BRANCH  27  29
ATOM     29  O   UNL     1       1.873  12.413  18.007  0.00  0.00    +0.000 OA
ATOM     30  H   UNL     1       2.692  12.379  18.560  0.00  0.00    +0.000 HD
ENDBRANCH  27  29
ENDBRANCH   7  27
BRANCH   7  31
ATOM     31  C   UNL     1       0.876  10.893  20.196  0.00  0.00    +0.000 C 
BRANCH  31  32
ATOM     32  C   UNL     1       0.771   9.407  19.746  0.00  0.00    +0.000 C 
ATOM     33  C   UNL     1       1.682   9.022  18.578  0.00  0.00    +0.000 C 
ATOM     34  C   UNL     1       1.136   8.494  20.929  0.00  0.00    +0.000 C 
ENDBRANCH  31  32
ENDBRANCH   7  31
TORSDOF 9
ENDMDL
MODEL 4
REMARK VINA RESULT:      -5.3      2.670      7.257
REMARK  Name = 
REMARK  12 active torsions:
REMARK  status: ('A' for Active; 'I' for Inactive)
REMARK    1  A    between atoms: C_1  and  C_2
REMARK    2  A    between atoms: C_2  and  C_3
REMARK    3  A    between atoms: C_3  and  C_4
REMARK    4  A    between atoms: C_7  and  C_8
REMARK    5  A    between atoms: C_11  and  C_12
REMARK    6  A    between atoms: C_17  and  C_18
REMARK    7  A    between atoms: C_22  and  C_23
REMARK    8  A    between atoms: C_22  and  C_27
REMARK    9  A    between atoms: C_23  and  C_24
REMARK   10  A    between atoms: C_24  and  C_25
REMARK   11  A    between atoms: C_24  and  C_26
REMARK   12  A    between atoms: C_27  and  O_29
REMARK                            x       y       z     vdW  Elec       q    Type
REMARK                         _______ _______ _______ _____ _____    ______ ____
ROOT
ATOM      1  C   UNL     1      -0.381  13.546  21.918  0.00  0.00    +0.000 C 
ATOM      2  O   UNL     1       0.808  13.416  22.226  0.00  0.00    +0.000 OA
ATOM      3  N   UNL     1      -0.927  12.814  20.862  0.00  0.00    +0.000 N 
ATOM      4  C   UNL     1      -2.282  12.915  20.255  0.00  0.00    +0.000 C 
ATOM      5  C   UNL     1      -2.434  11.583  19.527  0.00  0.00    +0.000 C 
ATOM      6  C   UNL     1      -1.039  11.336  18.950  0.00  0.00    +0.000 C 
ATOM      7  C   UNL     1      -0.033  11.996  19.944  0.00  0.00    +0.000 C 
ENDROOT
BRANCH   1  11
ATOM      8  C   UNL     1      -2.664  16.379  24.178  0.00  0.00    +0.000 A 
ATOM      9  C   UNL     1      -2.112  16.742  22.944  0.00  0.00    +0.000 A 
ATOM     10  C   UNL     1      -1.308  15.851  22.234  0.00  0.00    +0.000 A 
ATOM     11  C   UNL     1      -1.137  14.550  22.696  0.00  0.00    +0.000 A 
ATOM     12  C   UNL     1      -1.616  14.199  23.966  0.00  0.00    +0.000 A 
ATOM     13  C   UNL     1      -2.376  15.113  24.703  0.00  0.00    +0.000 A 
BRANCH   8  14
ATOM     14  C   UNL     1      -3.558  17.340  24.921  0.00  0.00    +0.000 C 
BRANCH  14  16
ATOM     15  C   UNL     1      -1.619  18.318  26.184  0.00  0.00    +0.000 C 
ATOM     16  C   UNL     1      -2.834  18.627  25.321  0.00  0.00    +0.000 C 
ENDBRANCH  14  16
ENDBRANCH   8  14
ENDBRANCH   1  11
BRANCH   4  17
ATOM     17  C   UNL     1      -3.469  13.196  21.148  0.00  0.00    +0.000 A 
ATOM     18  N   UNL     1      -3.793  12.390  22.145  0.00  0.00    +0.000 NA
ATOM     19  C   UNL     1      -4.908  12.854  22.801  0.00  0.00    +0.000 A 
ATOM     20  C   UNL     1      -5.418  14.035  22.322  0.00  0.00    +0.000 A 
ATOM     21  S   UNL     1      -4.479  14.581  20.992  0.00  0.00    +0.000 S 
ENDBRANCH   4  17
BRANCH   5  22
ATOM     22  C   UNL     1      -3.513  11.630  18.460  0.00  0.00    +0.000 C 
ATOM     23  N   UNL     1      -3.062  11.853  17.194  0.00  0.00    +0.000 N 
ATOM     24  O   UNL     1      -4.704  11.467  18.668  0.00  0.00    +0.000 OA
ATOM     25  H   UNL     1      -2.104  12.064  16.959  0.00  0.00    +0.000 HD
ATOM     26  H   UNL     1      -3.756  11.879  16.457  0.00  0.00    +0.000 HD
ENDBRANCH   5  22
BRANCH   7  27
ATOM     27  C   UNL     1       0.891  12.963  19.134  0.00  0.00    +0.000 C 
ATOM     28  O   UNL     1       2.114  12.923  19.162  0.00  0.00    +0.000 OA
BRANCH  27  29
ATOM     29  O   UNL     1       0.259  13.918  18.419  0.00  0.00    +0.000 OA
ATOM     30  H   UNL     1      -0.624  13.641  18.068  0.00  0.00    +0.000 HD
ENDBRANCH  27  29
ENDBRANCH   7  27
BRANCH   7  31
ATOM     31  C   UNL     1       0.795  10.912  20.710  0.00  0.00    +0.000 C 
BRANCH  31  32
ATOM     32  C   UNL     1       0.084   9.660  21.301  0.00  0.00    +0.000 C 
ATOM     33  C   UNL     1       0.911   8.373  21.264  0.00  0.00    +0.000 C 
ATOM     34  C   UNL     1      -0.274   9.931  22.773  0.00  0.00    +0.000 C 
ENDBRANCH  31  32
ENDBRANCH   7  31
TORSDOF 9
ENDMDL
MODEL 5
REMARK VINA RESULT:      -5.3      7.304     10.852
REMARK  Name = 
REMARK  12 active torsions:
REMARK  status: ('A' for Active; 'I' for Inactive)
REMARK    1  A    between atoms: C_1  and  C_2
REMARK    2  A    between atoms: C_2  and  C_3
REMARK    3  A    between atoms: C_3  and  C_4
REMARK    4  A    between atoms: C_7  and  C_8
REMARK    5  A    between atoms: C_11  and  C_12
REMARK    6  A    between atoms: C_17  and  C_18
REMARK    7  A    between atoms: C_22  and  C_23
REMARK    8  A    between atoms: C_22  and  C_27
REMARK    9  A    between atoms: C_23  and  C_24
REMARK   10  A    between atoms: C_24  and  C_25
REMARK   11  A    between atoms: C_24  and  C_26
REMARK   12  A    between atoms: C_27  and  O_29
REMARK                            x       y       z     vdW  Elec       q    Type
REMARK                         _______ _______ _______ _____ _____    ______ ____
ROOT
ATOM      1  C   UNL     1       7.904  15.325  18.450  0.00  0.00    +0.000 C 
ATOM      2  O   UNL     1       8.540  15.675  17.451  0.00  0.00    +0.000 OA
ATOM      3  N   UNL     1       8.525  14.609  19.474  0.00  0.00    +0.000 N 
ATOM      4  C   UNL     1       7.919  13.989  20.684  0.00  0.00    +0.000 C 
ATOM      5  C   UNL     1       9.116  13.804  21.612  0.00  0.00    +0.000 C 
ATOM      6  C   UNL     1      10.237  13.380  20.662  0.00  0.00    +0.000 C 
ATOM      7  C   UNL     1       9.937  14.072  19.296  0.00  0.00    +0.000 C 
ENDROOT
BRANCH   1  11
ATOM      8  C   UNL     1       3.733  16.292  18.313  0.00  0.00    +0.000 A 
ATOM      9  C   UNL     1       4.646  17.187  18.881  0.00  0.00    +0.000 A 
ATOM     10  C   UNL     1       5.996  16.852  18.996  0.00  0.00    +0.000 A 
ATOM     11  C   UNL     1       6.465  15.665  18.444  0.00  0.00    +0.000 A 
ATOM     12  C   UNL     1       5.552  14.726  17.944  0.00  0.00    +0.000 A 
ATOM     13  C   UNL     1       4.190  15.040  17.882  0.00  0.00    +0.000 A 
BRANCH   8  14
ATOM     14  C   UNL     1       2.283  16.679  18.165  0.00  0.00    +0.000 C 
BRANCH  14  16
ATOM     15  C   UNL     1       0.718  18.328  17.094  0.00  0.00    +0.000 C 
ATOM     16  C   UNL     1       2.035  17.580  16.952  0.00  0.00    +0.000 C 
ENDBRANCH  14  16
ENDBRANCH   8  14
ENDBRANCH   1  11
BRANCH   4  17
ATOM     17  C   UNL     1       6.781  14.697  21.382  0.00  0.00    +0.000 A 
ATOM     18  N   UNL     1       5.554  14.204  21.384  0.00  0.00    +0.000 NA
ATOM     19  C   UNL     1       4.701  15.030  22.076  0.00  0.00    +0.000 A 
ATOM     20  C   UNL     1       5.286  16.142  22.630  0.00  0.00    +0.000 A 
ATOM     21  S   UNL     1       6.963  16.166  22.261  0.00  0.00    +0.000 S 
ENDBRANCH   4  17
BRANCH   5  22
ATOM     22  C   UNL     1       8.848  12.781  22.702  0.00  0.00    +0.000 C 
ATOM     23  N   UNL     1       8.929  11.481  22.303  0.00  0.00    +0.000 N 
ATOM     24  O   UNL     1       8.594  13.053  23.863  0.00  0.00    +0.000 OA
ATOM     25  H   UNL     1       9.065  11.184  21.348  0.00  0.00    +0.000 HD
ATOM     26  H   UNL     1       8.765  10.773  23.009  0.00  0.00    +0.000 HD
ENDBRANCH   5  22
BRANCH   7  27
ATOM     27  C   UNL     1       9.931  12.974  18.183  0.00  0.00    +0.000 C 
ATOM     28  O   UNL     1       9.590  11.813  18.369  0.00  0.00    +0.000 OA
BRANCH  27  29
ATOM     29  O   UNL     1      10.394  13.361  16.974  0.00  0.00    +0.000 OA
ATOM     30  H   UNL     1      11.109  12.782  16.613  0.00  0.00    +0.000 HD
ENDBRANCH  27  29
ENDBRANCH   7  27
BRANCH   7  31
ATOM     31  C   UNL     1      10.981  15.197  18.993  0.00  0.00    +0.000 C 
BRANCH  31  32
ATOM     32  C   UNL     1      11.001  16.495  19.852  0.00  0.00    +0.000 C 
ATOM     33  C   UNL     1      12.190  16.615  20.808  0.00  0.00    +0.000 C 
ATOM     34  C   UNL     1      11.041  17.717  18.917  0.00  0.00    +0.000 C 
ENDBRANCH  31  32
ENDBRANCH   7  31
TORSDOF 9
ENDMDL
MODEL 6
REMARK VINA RESULT:      -5.3      2.673      7.339
REMARK  Name = 
REMARK  12 active torsions:
REMARK  status: ('A' for Active; 'I' for Inactive)
REMARK    1  A    between atoms: C_1  and  C_2
REMARK    2  A    between atoms: C_2  and  C_3
REMARK    3  A    between atoms: C_3  and  C_4
REMARK    4  A    between atoms: C_7  and  C_8
REMARK    5  A    between atoms: C_11  and  C_12
REMARK    6  A    between atoms: C_17  and  C_18
REMARK    7  A    between atoms: C_22  and  C_23
REMARK    8  A    between atoms: C_22  and  C_27
REMARK    9  A    between atoms: C_23  and  C_24
REMARK   10  A    between atoms: C_24  and  C_25
REMARK   11  A    between atoms: C_24  and  C_26
REMARK   12  A    between atoms: C_27  and  O_29
REMARK                            x       y       z     vdW  Elec       q    Type
REMARK                         _______ _______ _______ _____ _____    ______ ____
ROOT
ATOM      1  C   UNL     1      -0.286  13.545  21.934  0.00  0.00    +0.000 C 
ATOM      2  O   UNL     1       0.912  13.376  22.185  0.00  0.00    +0.000 OA
ATOM      3  N   UNL     1      -0.904  12.833  20.904  0.00  0.00    +0.000 N 
ATOM      4  C   UNL     1      -2.283  12.979  20.363  0.00  0.00    +0.000 C 
ATOM      5  C   UNL     1      -2.511  11.654  19.641  0.00  0.00    +0.000 C 
ATOM      6  C   UNL     1      -1.154  11.364  18.999  0.00  0.00    +0.000 C 
ATOM      7  C   UNL     1      -0.081  11.989  19.945  0.00  0.00    +0.000 C 
ENDROOT
BRANCH   1  11
ATOM      8  C   UNL     1      -2.174  16.588  24.283  0.00  0.00    +0.000 A 
ATOM      9  C   UNL     1      -2.068  15.282  24.775  0.00  0.00    +0.000 A 
ATOM     10  C   UNL     1      -1.519  14.268  23.990  0.00  0.00    +0.000 A 
ATOM     11  C   UNL     1      -0.971  14.571  22.747  0.00  0.00    +0.000 A 
ATOM     12  C   UNL     1      -1.143  15.855  22.211  0.00  0.00    +0.000 A 
ATOM     13  C   UNL     1      -1.744  16.858  22.978  0.00  0.00    +0.000 A 
BRANCH   8  14
ATOM     14  C   UNL     1      -2.740  17.682  25.153  0.00  0.00    +0.000 C 
BRANCH  14  16
ATOM     15  C   UNL     1      -5.248  17.825  25.188  0.00  0.00    +0.000 C 
ATOM     16  C   UNL     1      -3.974  18.345  24.537  0.00  0.00    +0.000 C 
ENDBRANCH  14  16
ENDBRANCH   8  14
ENDBRANCH   1  11
BRANCH   4  17
ATOM     17  C   UNL     1      -3.417  13.295  21.311  0.00  0.00    +0.000 A 
ATOM     18  N   UNL     1      -3.754  12.471  22.288  0.00  0.00    +0.000 NA
ATOM     19  C   UNL     1      -4.813  12.976  23.003  0.00  0.00    +0.000 A 
ATOM     20  C   UNL     1      -5.265  14.205  22.590  0.00  0.00    +0.000 A 
ATOM     21  S   UNL     1      -4.343  14.745  21.246  0.00  0.00    +0.000 S 
ENDBRANCH   4  17
BRANCH   5  22
ATOM     22  C   UNL     1      -3.638  11.737  18.627  0.00  0.00    +0.000 C 
ATOM     23  N   UNL     1      -3.239  11.925  17.337  0.00  0.00    +0.000 N 
ATOM     24  O   UNL     1      -4.823  11.630  18.894  0.00  0.00    +0.000 OA
ATOM     25  H   UNL     1      -2.284  12.090  17.054  0.00  0.00    +0.000 HD
ATOM     26  H   UNL     1      -3.966  11.974  16.634  0.00  0.00    +0.000 HD
ENDBRANCH   5  22
BRANCH   7  27
ATOM     27  C   UNL     1       0.834  12.927  19.092  0.00  0.00    +0.000 C 
ATOM     28  O   UNL     1       0.425  13.646  18.190  0.00  0.00    +0.000 OA
BRANCH  27  29
ATOM     29  O   UNL     1       2.156  12.865  19.365  0.00  0.00    +0.000 OA
ATOM     30  H   UNL     1       2.563  13.738  19.586  0.00  0.00    +0.000 HD
ENDBRANCH  27  29
ENDBRANCH   7  27
BRANCH   7  31
ATOM     31  C   UNL     1       0.747  10.877  20.670  0.00  0.00    +0.000 C 
BRANCH  31  32
ATOM     32  C   UNL     1       0.029   9.630  21.264  0.00  0.00    +0.000 C 
ATOM     33  C   UNL     1       0.863   8.347  21.264  0.00  0.00    +0.000 C 
ATOM     34  C   UNL     1      -0.364   9.921  22.723  0.00  0.00    +0.000 C 
ENDBRANCH  31  32
ENDBRANCH   7  31
TORSDOF 9
ENDMDL
MODEL 7
REMARK VINA RESULT:      -5.2      2.590      7.239
REMARK  Name = 
REMARK  12 active torsions:
REMARK  status: ('A' for Active; 'I' for Inactive)
REMARK    1  A    between atoms: C_1  and  C_2
REMARK    2  A    between atoms: C_2  and  C_3
REMARK    3  A    between atoms: C_3  and  C_4
REMARK    4  A    between atoms: C_7  and  C_8
REMARK    5  A    between atoms: C_11  and  C_12
REMARK    6  A    between atoms: C_17  and  C_18
REMARK    7  A    between atoms: C_22  and  C_23
REMARK    8  A    between atoms: C_22  and  C_27
REMARK    9  A    between atoms: C_23  and  C_24
REMARK   10  A    between atoms: C_24  and  C_25
REMARK   11  A    between atoms: C_24  and  C_26
REMARK   12  A    between atoms: C_27  and  O_29
REMARK                            x       y       z     vdW  Elec       q    Type
REMARK                         _______ _______ _______ _____ _____    ______ ____
ROOT
ATOM      1  C   UNL     1      -0.118  13.822  21.848  0.00  0.00    +0.000 C 
ATOM      2  O   UNL     1       1.071  13.650  22.135  0.00  0.00    +0.000 OA
ATOM      3  N   UNL     1      -0.734  13.043  20.868  0.00  0.00    +0.000 N 
ATOM      4  C   UNL     1      -2.099  13.174  20.289  0.00  0.00    +0.000 C 
ATOM      5  C   UNL     1      -2.344  11.800  19.672  0.00  0.00    +0.000 C 
ATOM      6  C   UNL     1      -0.983  11.431  19.082  0.00  0.00    +0.000 C 
ATOM      7  C   UNL     1       0.087  12.108  19.995  0.00  0.00    +0.000 C 
ENDROOT
BRANCH   1  11
ATOM      8  C   UNL     1      -2.176  16.946  23.936  0.00  0.00    +0.000 A 
ATOM      9  C   UNL     1      -1.651  17.178  22.660  0.00  0.00    +0.000 A 
ATOM     10  C   UNL     1      -0.918  16.191  22.001  0.00  0.00    +0.000 A 
ATOM     11  C   UNL     1      -0.795  14.925  22.564  0.00  0.00    +0.000 A 
ATOM     12  C   UNL     1      -1.245  14.704  23.873  0.00  0.00    +0.000 A 
ATOM     13  C   UNL     1      -1.931  15.714  24.555  0.00  0.00    +0.000 A 
BRANCH   8  14
ATOM     14  C   UNL     1      -2.995  18.009  24.624  0.00  0.00    +0.000 C 
BRANCH  14  16
ATOM     15  C   UNL     1      -5.470  17.698  24.325  0.00  0.00    +0.000 C 
ATOM     16  C   UNL     1      -4.280  17.453  25.242  0.00  0.00    +0.000 C 
ENDBRANCH  14  16
ENDBRANCH   8  14
ENDBRANCH   1  11
BRANCH   4  17
ATOM     17  C   UNL     1      -3.242  13.589  21.187  0.00  0.00    +0.000 A 
ATOM     18  N   UNL     1      -3.909  14.713  20.986  0.00  0.00    +0.000 NA
ATOM     19  C   UNL     1      -4.892  14.869  21.934  0.00  0.00    +0.000 A 
ATOM     20  C   UNL     1      -4.995  13.845  22.843  0.00  0.00    +0.000 A 
ATOM     21  S   UNL     1      -3.810  12.647  22.512  0.00  0.00    +0.000 S 
ENDBRANCH   4  17
BRANCH   5  22
ATOM     22  C   UNL     1      -3.451  11.825  18.632  0.00  0.00    +0.000 C 
ATOM     23  N   UNL     1      -3.025  11.900  17.340  0.00  0.00    +0.000 N 
ATOM     24  O   UNL     1      -4.642  11.764  18.884  0.00  0.00    +0.000 OA
ATOM     25  H   UNL     1      -2.062  12.022  17.063  0.00  0.00    +0.000 HD
ATOM     26  H   UNL     1      -3.738  11.908  16.621  0.00  0.00    +0.000 HD
ENDBRANCH   5  22
BRANCH   7  27
ATOM     27  C   UNL     1       1.038  12.955  19.088  0.00  0.00    +0.000 C 
ATOM     28  O   UNL     1       0.692  13.968  18.492  0.00  0.00    +0.000 OA
BRANCH  27  29
ATOM     29  O   UNL     1       2.290  12.472  18.936  0.00  0.00    +0.000 OA
ATOM     30  H   UNL     1       2.926  13.119  18.543  0.00  0.00    +0.000 HD
ENDBRANCH  27  29
ENDBRANCH   7  27
BRANCH   7  31
ATOM     31  C   UNL     1       0.877  11.041  20.822  0.00  0.00    +0.000 C 
BRANCH  31  32
ATOM     32  C   UNL     1       0.141   9.795  21.396  0.00  0.00    +0.000 C 
ATOM     33  C   UNL     1       0.983   8.519  21.450  0.00  0.00    +0.000 C 
ATOM     34  C   UNL     1      -0.321  10.099  22.832  0.00  0.00    +0.000 C 
ENDBRANCH  31  32
ENDBRANCH   7  31
TORSDOF 9
ENDMDL
MODEL 8
REMARK VINA RESULT:      -5.2      2.693      5.420
REMARK  Name = 
REMARK  12 active torsions:
REMARK  status: ('A' for Active; 'I' for Inactive)
REMARK    1  A    between atoms: C_1  and  C_2
REMARK    2  A    between atoms: C_2  and  C_3
REMARK    3  A    between atoms: C_3  and  C_4
REMARK    4  A    between atoms: C_7  and  C_8
REMARK    5  A    between atoms: C_11  and  C_12
REMARK    6  A    between atoms: C_17  and  C_18
REMARK    7  A    between atoms: C_22  and  C_23
REMARK    8  A    between atoms: C_22  and  C_27
REMARK    9  A    between atoms: C_23  and  C_24
REMARK   10  A    between atoms: C_24  and  C_25
REMARK   11  A    between atoms: C_24  and  C_26
REMARK   12  A    between atoms: C_27  and  O_29
REMARK                            x       y       z     vdW  Elec       q    Type
REMARK                         _______ _______ _______ _____ _____    ______ ____
ROOT
ATOM      1  C   UNL     1       1.379  12.502  19.348  0.00  0.00    +0.000 C 
ATOM      2  O   UNL     1       1.742  11.373  19.004  0.00  0.00    +0.000 OA
ATOM      3  N   UNL     1       0.080  12.723  19.809  0.00  0.00    +0.000 N 
ATOM      4  C   UNL     1      -0.588  14.009  20.146  0.00  0.00    +0.000 C 
ATOM      5  C   UNL     1      -1.757  13.571  21.022  0.00  0.00    +0.000 C 
ATOM      6  C   UNL     1      -2.235  12.281  20.354  0.00  0.00    +0.000 C 
ATOM      7  C   UNL     1      -0.971  11.629  19.711  0.00  0.00    +0.000 C 
ENDROOT
BRANCH   1  11
ATOM      8  C   UNL     1       4.241  15.666  18.961  0.00  0.00    +0.000 A 
ATOM      9  C   UNL     1       3.401  15.340  17.890  0.00  0.00    +0.000 A 
ATOM     10  C   UNL     1       2.515  14.266  17.980  0.00  0.00    +0.000 A 
ATOM     11  C   UNL     1       2.382  13.575  19.181  0.00  0.00    +0.000 A 
ATOM     12  C   UNL     1       3.271  13.838  20.232  0.00  0.00    +0.000 A 
ATOM     13  C   UNL     1       4.198  14.880  20.119  0.00  0.00    +0.000 A 
BRANCH   8  14
ATOM     14  C   UNL     1       5.171  16.849  18.862  0.00  0.00    +0.000 C 
BRANCH  14  16
ATOM     15  C   UNL     1       7.231  15.625  18.106  0.00  0.00    +0.000 C 
ATOM     16  C   UNL     1       6.620  16.488  19.200  0.00  0.00    +0.000 C 
ENDBRANCH  14  16
ENDBRANCH   8  14
ENDBRANCH   1  11
BRANCH   4  17
ATOM     17  C   UNL     1       0.217  15.106  20.805  0.00  0.00    +0.000 A 
ATOM     18  N   UNL     1       0.738  14.955  22.011  0.00  0.00    +0.000 NA
ATOM     19  C   UNL     1       1.415  16.089  22.391  0.00  0.00    +0.000 A 
ATOM     20  C   UNL     1       1.436  17.097  21.459  0.00  0.00    +0.000 A 
ATOM     21  S   UNL     1       0.565  16.618  20.059  0.00  0.00    +0.000 S 
ENDBRANCH   4  17
BRANCH   5  22
ATOM     22  C   UNL     1      -2.843  14.629  21.106  0.00  0.00    +0.000 C 
ATOM     23  N   UNL     1      -3.846  14.498  20.193  0.00  0.00    +0.000 N 
ATOM     24  O   UNL     1      -2.870  15.534  21.922  0.00  0.00    +0.000 OA
ATOM     25  H   UNL     1      -3.853  13.818  19.447  0.00  0.00    +0.000 HD
ATOM     26  H   UNL     1      -4.592  15.182  20.228  0.00  0.00    +0.000 HD
ENDBRANCH   5  22
BRANCH   7  27
ATOM     27  C   UNL     1      -1.280  11.348  18.204  0.00  0.00    +0.000 C 
ATOM     28  O   UNL     1      -1.225  10.238  17.690  0.00  0.00    +0.000 OA
BRANCH  27  29
ATOM     29  O   UNL     1      -1.563  12.432  17.450  0.00  0.00    +0.000 OA
ATOM     30  H   UNL     1      -0.891  12.624  16.752  0.00  0.00    +0.000 HD
ENDBRANCH  27  29
ENDBRANCH   7  27
BRANCH   7  31
ATOM     31  C   UNL     1      -0.563  10.323  20.471  0.00  0.00    +0.000 C 
BRANCH  31  32
ATOM     32  C   UNL     1       0.097  10.412  21.877  0.00  0.00    +0.000 C 
ATOM     33  C   UNL     1      -0.877  10.303  23.053  0.00  0.00    +0.000 C 
ATOM     34  C   UNL     1       1.123   9.275  22.026  0.00  0.00    +0.000 C 
ENDBRANCH  31  32
ENDBRANCH   7  31
TORSDOF 9
ENDMDL
MODEL 9
REMARK VINA RESULT:      -5.2      2.447      3.969
REMARK  Name = 
REMARK  12 active torsions:
REMARK  status: ('A' for Active; 'I' for Inactive)
REMARK    1  A    between atoms: C_1  and  C_2
REMARK    2  A    between atoms: C_2  and  C_3
REMARK    3  A    between atoms: C_3  and  C_4
REMARK    4  A    between atoms: C_7  and  C_8
REMARK    5  A    between atoms: C_11  and  C_12
REMARK    6  A    between atoms: C_17  and  C_18
REMARK    7  A    between atoms: C_22  and  C_23
REMARK    8  A    between atoms: C_22  and  C_27
REMARK    9  A    between atoms: C_23  and  C_24
REMARK   10  A    between atoms: C_24  and  C_25
REMARK   11  A    between atoms: C_24  and  C_26
REMARK   12  A    between atoms: C_27  and  O_29
REMARK                            x       y       z     vdW  Elec       q    Type
REMARK                         _______ _______ _______ _____ _____    ______ ____
ROOT
ATOM      1  C   UNL     1       0.069  12.650  20.830  0.00  0.00    +0.000 C 
ATOM      2  O   UNL     1       0.880  13.319  21.478  0.00  0.00    +0.000 OA
ATOM      3  N   UNL     1      -1.291  12.966  20.848  0.00  0.00    +0.000 N 
ATOM      4  C   UNL     1      -2.433  12.221  20.251  0.00  0.00    +0.000 C 
ATOM      5  C   UNL     1      -3.532  13.278  20.178  0.00  0.00    +0.000 C 
ATOM      6  C   UNL     1      -3.352  14.064  21.477  0.00  0.00    +0.000 C 
ATOM      7  C   UNL     1      -1.829  14.009  21.814  0.00  0.00    +0.000 C 
ENDROOT
BRANCH   1  11
ATOM      8  C   UNL     1       1.625   9.312  18.643  0.00  0.00    +0.000 A 
ATOM      9  C   UNL     1       1.080   9.126  19.919  0.00  0.00    +0.000 A 
ATOM     10  C   UNL     1       0.636  10.215  20.669  0.00  0.00    +0.000 A 
ATOM     11  C   UNL     1       0.631  11.489  20.108  0.00  0.00    +0.000 A 
ATOM     12  C   UNL     1       1.245  11.700  18.865  0.00  0.00    +0.000 A 
ATOM     13  C   UNL     1       1.741  10.613  18.138  0.00  0.00    +0.000 A 
BRANCH   8  14
ATOM     14  C   UNL     1       2.071   8.123  17.829  0.00  0.00    +0.000 C 
BRANCH  14  16
ATOM     15  C   UNL     1       3.667   6.184  17.935  0.00  0.00    +0.000 C 
ATOM     16  C   UNL     1       2.625   6.990  18.697  0.00  0.00    +0.000 C 
ENDBRANCH  14  16
ENDBRANCH   8  14
ENDBRANCH   1  11
BRANCH   4  17
ATOM     17  C   UNL     1      -2.244  11.526  18.923  0.00  0.00    +0.000 A 
ATOM     18  N   UNL     1      -1.925  12.196  17.828  0.00  0.00    +0.000 NA
ATOM     19  C   UNL     1      -1.818  11.345  16.754  0.00  0.00    +0.000 A 
ATOM     20  C   UNL     1      -2.026  10.018  17.036  0.00  0.00    +0.000 A 
ATOM     21  S   UNL     1      -2.383   9.824  18.705  0.00  0.00    +0.000 S 
ENDBRANCH   4  17
BRANCH   5  22
ATOM     22  C   UNL     1      -4.914  12.663  20.046  0.00  0.00    +0.000 C 
ATOM     23  N   UNL     1      -5.543  12.908  18.863  0.00  0.00    +0.000 N 
ATOM     24  O   UNL     1      -5.455  11.980  20.900  0.00  0.00    +0.000 OA
ATOM     25  H   UNL     1      -5.186  13.519  18.143  0.00  0.00    +0.000 HD
ATOM     26  H   UNL     1      -6.463  12.503  18.739  0.00  0.00    +0.000 HD
ENDBRANCH   5  22
BRANCH   7  27
ATOM     27  C   UNL     1      -1.671  13.484  23.277  0.00  0.00    +0.000 C 
ATOM     28  O   UNL     1      -2.368  12.605  23.768  0.00  0.00    +0.000 OA
BRANCH  27  29
ATOM     29  O   UNL     1      -0.734  14.105  24.026  0.00  0.00    +0.000 OA
ATOM     30  H   UNL     1      -0.151  14.719  23.515  0.00  0.00    +0.000 HD
ENDBRANCH  27  29
ENDBRANCH   7  27
BRANCH   7  31
ATOM     31  C   UNL     1      -1.161  15.412  21.628  0.00  0.00    +0.000 C 
BRANCH  31  32
ATOM     32  C   UNL     1      -1.518  16.290  20.393  0.00  0.00    +0.000 C 
ATOM     33  C   UNL     1      -1.560  17.796  20.665  0.00  0.00    +0.000 C 
ATOM     34  C   UNL     1      -0.475  16.054  19.287  0.00  0.00    +0.000 C 
ENDBRANCH  31  32
ENDBRANCH   7  31
TORSDOF 9
ENDMDL
