MODEL 1
REMARK VINA RESULT:      -7.6      0.000      0.000
REMARK  Name = 
REMARK  5 active torsions:
REMARK  status: ('A' for Active; 'I' for Inactive)
REMARK    1  A    between atoms: C_1  and  C_2
REMARK    2  A    between atoms: C_2  and  C_3
REMARK    3  A    between atoms: C_2  and  N_13
REMARK    4  A    between atoms: C_3  and  C_4
REMARK    5  A    between atoms: C_3  and  N_5
REMARK                            x       y       z     vdW  Elec       q    Type
REMARK                         _______ _______ _______ _____ _____    ______ ____
ROOT
ATOM      1  C   UNL     1       4.370   4.771  18.216  0.00  0.00    +0.000 C 
ATOM      2  C   UNL     1       4.024   4.188  16.829  0.00  0.00    +0.000 C 
ENDROOT
BRANCH   1   3
ATOM      3  N   UNL     1       5.355   5.890  18.250  0.00  0.00    +0.000 NA
ATOM      4  C   UNL     1       5.546   6.705  17.043  0.00  0.00    +0.000 C 
ATOM      5  C   UNL     1       6.276   5.940  15.946  0.00  0.00    +0.000 C 
ATOM      6  O   UNL     1       6.007   6.048  14.753  0.00  0.00    +0.000 OA
ATOM      7  N   UNL     1       7.300   5.134  16.383  0.00  0.00    +0.000 N 
ATOM      8  C   UNL     1       7.560   4.821  17.694  0.00  0.00    +0.000 C 
ATOM      9  O   UNL     1       8.465   4.042  17.980  0.00  0.00    +0.000 OA
ATOM     10  C   UNL     1       6.694   5.498  18.758  0.00  0.00    +0.000 C 
ATOM     11  H   UNL     1       7.806   4.616  15.681  0.00  0.00    +0.000 HD
ENDBRANCH   1   3
BRANCH   1  13
ATOM     12  C   UNL     1       2.763   6.353  19.540  0.00  0.00    +0.000 C 
ATOM     13  C   UNL     1       3.030   4.899  19.089  0.00  0.00    +0.000 C 
BRANCH  13  14
ATOM     14  N   UNL     1       2.890   3.959  20.243  0.00  0.00    +0.000 NA
ATOM     15  C   UNL     1       1.486   3.558  20.521  0.00  0.00    +0.000 C 
ATOM     16  C   UNL     1       0.847   2.732  19.390  0.00  0.00    +0.000 C 
ATOM     17  N   UNL     1       1.719   1.689  18.896  0.00  0.00    +0.000 N 
ATOM     18  C   UNL     1       3.082   1.722  19.046  0.00  0.00    +0.000 C 
ATOM     19  O   UNL     1       3.782   0.926  18.423  0.00  0.00    +0.000 OA
ATOM     20  C   UNL     1       3.662   2.694  20.086  0.00  0.00    +0.000 C 
ATOM     21  H   UNL     1       1.387   1.048  18.188  0.00  0.00    +0.000 HD
ENDBRANCH  13  14
ENDBRANCH   1  13
TORSDOF 3
ENDMDL
MODEL 2
REMARK VINA RESULT:      -7.5      1.969      2.667
REMARK  Name = 
REMARK  5 active torsions:
REMARK  status: ('A' for Active; 'I' for Inactive)
REMARK    1  A    between atoms: C_1  and  C_2
REMARK    2  A    between atoms: C_2  and  C_3
REMARK    3  A    between atoms: C_2  and  N_13
REMARK    4  A    between atoms: C_3  and  C_4
REMARK    5  A    between atoms: C_3  and  N_5
REMARK                            x       y       z     vdW  Elec       q    Type
REMARK                         _______ _______ _______ _____ _____    ______ ____
ROOT
ATOM      1  C   UNL     1       4.706   3.918  17.671  0.00  0.00    +0.000 C 
ATOM      2  C   UNL     1       4.711   3.548  16.172  0.00  0.00    +0.000 C 
ENDROOT
BRANCH   1   3
ATOM      3  N   UNL     1       4.844   5.364  18.009  0.00  0.00    +0.000 NA
ATOM      4  C   UNL     1       5.457   6.268  17.027  0.00  0.00    +0.000 C 
ATOM      5  C   UNL     1       6.958   6.034  16.895  0.00  0.00    +0.000 C 
ATOM      6  O   UNL     1       7.560   6.099  15.828  0.00  0.00    +0.000 OA
ATOM      7  N   UNL     1       7.612   5.779  18.077  0.00  0.00    +0.000 N 
ATOM      8  C   UNL     1       7.004   5.522  19.280  0.00  0.00    +0.000 C 
ATOM      9  O   UNL     1       7.677   5.246  20.271  0.00  0.00    +0.000 OA
ATOM     10  C   UNL     1       5.478   5.615  19.328  0.00  0.00    +0.000 C 
ATOM     11  H   UNL     1       8.607   5.624  18.025  0.00  0.00    +0.000 HD
ENDBRANCH   1   3
BRANCH   1  13
ATOM     12  C   UNL     1       3.809   1.533  18.264  0.00  0.00    +0.000 C 
ATOM     13  C   UNL     1       3.585   3.055  18.427  0.00  0.00    +0.000 C 
BRANCH  13  14
ATOM     14  N   UNL     1       2.160   3.407  18.138  0.00  0.00    +0.000 NA
ATOM     15  C   UNL     1       1.177   2.579  18.886  0.00  0.00    +0.000 C 
ATOM     16  C   UNL     1       1.229   2.788  20.409  0.00  0.00    +0.000 C 
ATOM     17  N   UNL     1       1.296   4.184  20.781  0.00  0.00    +0.000 N 
ATOM     18  C   UNL     1       1.745   5.163  19.932  0.00  0.00    +0.000 C 
ATOM     19  O   UNL     1       1.982   6.287  20.370  0.00  0.00    +0.000 OA
ATOM     20  C   UNL     1       1.820   4.827  18.434  0.00  0.00    +0.000 C 
ATOM     21  H   UNL     1       1.281   4.447  21.759  0.00  0.00    +0.000 HD
ENDBRANCH  13  14
ENDBRANCH   1  13
TORSDOF 3
ENDMDL
MODEL 3
REMARK VINA RESULT:      -7.5      1.929      5.609
REMARK  Name = 
REMARK  5 active torsions:
REMARK  status: ('A' for Active; 'I' for Inactive)
REMARK    1  A    between atoms: C_1  and  C_2
REMARK    2  A    between atoms: C_2  and  C_3
REMARK    3  A    between atoms: C_2  and  N_13
REMARK    4  A    between atoms: C_3  and  C_4
REMARK    5  A    between atoms: C_3  and  N_5
REMARK                            x       y       z     vdW  Elec       q    Type
REMARK                         _______ _______ _______ _____ _____    ______ ____
ROOT
ATOM      1  C   UNL     1       3.741   5.078  18.567  0.00  0.00    +0.000 C 
ATOM      2  C   UNL     1       3.071   5.806  19.753  0.00  0.00    +0.000 C 
ENDROOT
BRANCH   1   3
ATOM      3  N   UNL     1       2.849   4.294  17.666  0.00  0.00    +0.000 NA
ATOM      4  C   UNL     1       1.447   4.092  18.054  0.00  0.00    +0.000 C 
ATOM      5  C   UNL     1       1.312   3.124  19.224  0.00  0.00    +0.000 C 
ATOM      6  O   UNL     1       0.488   3.262  20.124  0.00  0.00    +0.000 OA
ATOM      7  N   UNL     1       2.163   2.045  19.188  0.00  0.00    +0.000 N 
ATOM      8  C   UNL     1       3.221   1.898  18.324  0.00  0.00    +0.000 C 
ATOM      9  O   UNL     1       3.962   0.921  18.409  0.00  0.00    +0.000 OA
ATOM     10  C   UNL     1       3.410   2.980  17.260  0.00  0.00    +0.000 C 
ATOM     11  H   UNL     1       2.097   1.384  19.946  0.00  0.00    +0.000 HD
ENDBRANCH   1   3
BRANCH   1  13
ATOM     12  C   UNL     1       4.236   7.000  16.863  0.00  0.00    +0.000 C 
ATOM     13  C   UNL     1       4.845   6.040  17.911  0.00  0.00    +0.000 C 
BRANCH  13  14
ATOM     14  N   UNL     1       6.069   5.378  17.363  0.00  0.00    +0.000 NA
ATOM     15  C   UNL     1       6.996   6.313  16.673  0.00  0.00    +0.000 C 
ATOM     16  C   UNL     1       7.623   7.361  17.609  0.00  0.00    +0.000 C 
ATOM     17  N   UNL     1       8.103   6.790  18.848  0.00  0.00    +0.000 N 
ATOM     18  C   UNL     1       7.643   5.599  19.349  0.00  0.00    +0.000 C 
ATOM     19  O   UNL     1       7.927   5.273  20.501  0.00  0.00    +0.000 OA
ATOM     20  C   UNL     1       6.881   4.669  18.392  0.00  0.00    +0.000 C 
ATOM     21  H   UNL     1       8.583   7.375  19.521  0.00  0.00    +0.000 HD
ENDBRANCH  13  14
ENDBRANCH   1  13
TORSDOF 3
ENDMDL
MODEL 4
REMARK VINA RESULT:      -7.4      1.830      5.826
REMARK  Name = 
REMARK  5 active torsions:
REMARK  status: ('A' for Active; 'I' for Inactive)
REMARK    1  A    between atoms: C_1  and  C_2
REMARK    2  A    between atoms: C_2  and  C_3
REMARK    3  A    between atoms: C_2  and  N_13
REMARK    4  A    between atoms: C_3  and  C_4
REMARK    5  A    between atoms: C_3  and  N_5
REMARK                            x       y       z     vdW  Elec       q    Type
REMARK                         _______ _______ _______ _____ _____    ______ ____
ROOT
ATOM      1  C   UNL     1       3.684   4.229  18.587  0.00  0.00    +0.000 C 
ATOM      2  C   UNL     1       2.521   4.743  17.712  0.00  0.00    +0.000 C 
ENDROOT
BRANCH   1   3
ATOM      3  N   UNL     1       3.664   2.783  18.953  0.00  0.00    +0.000 NA
ATOM      4  C   UNL     1       2.590   1.931  18.424  0.00  0.00    +0.000 C 
ATOM      5  C   UNL     1       1.247   2.236  19.077  0.00  0.00    +0.000 C 
ATOM      6  O   UNL     1       0.181   2.223  18.467  0.00  0.00    +0.000 OA
ATOM      7  N   UNL     1       1.301   2.493  20.426  0.00  0.00    +0.000 N 
ATOM      8  C   UNL     1       2.449   2.694  21.150  0.00  0.00    +0.000 C 
ATOM      9  O   UNL     1       2.391   2.977  22.344  0.00  0.00    +0.000 OA
ATOM     10  C   UNL     1       3.779   2.530  20.412  0.00  0.00    +0.000 C 
ATOM     11  H   UNL     1       0.428   2.694  20.889  0.00  0.00    +0.000 HD
ENDBRANCH   1   3
BRANCH   1  13
ATOM     12  C   UNL     1       5.960   5.339  19.243  0.00  0.00    +0.000 C 
ATOM     13  C   UNL     1       5.060   4.874  18.074  0.00  0.00    +0.000 C 
BRANCH  13  14
ATOM     14  N   UNL     1       4.952   5.948  17.039  0.00  0.00    +0.000 NA
ATOM     15  C   UNL     1       5.945   7.041  17.207  0.00  0.00    +0.000 C 
ATOM     16  C   UNL     1       7.401   6.587  17.008  0.00  0.00    +0.000 C 
ATOM     17  N   UNL     1       7.572   5.748  15.843  0.00  0.00    +0.000 N 
ATOM     18  C   UNL     1       6.543   5.046  15.270  0.00  0.00    +0.000 C 
ATOM     19  O   UNL     1       6.788   4.190  14.422  0.00  0.00    +0.000 OA
ATOM     20  C   UNL     1       5.108   5.454  15.642  0.00  0.00    +0.000 C 
ATOM     21  H   UNL     1       8.497   5.431  15.581  0.00  0.00    +0.000 HD
ENDBRANCH  13  14
ENDBRANCH   1  13
TORSDOF 3
ENDMDL
MODEL 5
REMARK VINA RESULT:      -7.3      1.246      1.369
REMARK  Name = 
REMARK  5 active torsions:
REMARK  status: ('A' for Active; 'I' for Inactive)
REMARK    1  A    between atoms: C_1  and  C_2
REMARK    2  A    between atoms: C_2  and  C_3
REMARK    3  A    between atoms: C_2  and  N_13
REMARK    4  A    between atoms: C_3  and  C_4
REMARK    5  A    between atoms: C_3  and  N_5
REMARK                            x       y       z     vdW  Elec       q    Type
REMARK                         _______ _______ _______ _____ _____    ______ ____
ROOT
ATOM      1  C   UNL     1       4.293   4.774  17.613  0.00  0.00    +0.000 C 
ATOM      2  C   UNL     1       3.681   3.820  16.565  0.00  0.00    +0.000 C 
ENDROOT
BRANCH   1   3
ATOM      3  N   UNL     1       5.276   5.780  17.116  0.00  0.00    +0.000 NA
ATOM      4  C   UNL     1       5.720   5.709  15.718  0.00  0.00    +0.000 C 
ATOM      5  C   UNL     1       6.637   4.517  15.470  0.00  0.00    +0.000 C 
ATOM      6  O   UNL     1       6.613   3.849  14.440  0.00  0.00    +0.000 OA
ATOM      7  N   UNL     1       7.536   4.256  16.476  0.00  0.00    +0.000 N 
ATOM      8  C   UNL     1       7.523   4.834  17.721  0.00  0.00    +0.000 C 
ATOM      9  O   UNL     1       8.336   4.490  18.575  0.00  0.00    +0.000 OA
ATOM     10  C   UNL     1       6.479   5.922  17.976  0.00  0.00    +0.000 C 
ATOM     11  H   UNL     1       8.160   3.475  16.341  0.00  0.00    +0.000 HD
ENDBRANCH   1   3
BRANCH   1  13
ATOM     12  C   UNL     1       2.993   6.792  18.650  0.00  0.00    +0.000 C 
ATOM     13  C   UNL     1       3.148   5.254  18.628  0.00  0.00    +0.000 C 
BRANCH  13  14
ATOM     14  N   UNL     1       3.219   4.716  20.021  0.00  0.00    +0.000 NA
ATOM     15  C   UNL     1       2.074   5.122  20.878  0.00  0.00    +0.000 C 
ATOM     16  C   UNL     1       0.723   4.552  20.411  0.00  0.00    +0.000 C 
ATOM     17  N   UNL     1       0.794   3.148  20.071  0.00  0.00    +0.000 N 
ATOM     18  C   UNL     1       1.966   2.520  19.734  0.00  0.00    +0.000 C 
ATOM     19  O   UNL     1       1.933   1.390  19.250  0.00  0.00    +0.000 OA
ATOM     20  C   UNL     1       3.283   3.229  20.089  0.00  0.00    +0.000 C 
ATOM     21  H   UNL     1      -0.045   2.651  19.801  0.00  0.00    +0.000 HD
ENDBRANCH  13  14
ENDBRANCH   1  13
TORSDOF 3
ENDMDL
MODEL 6
REMARK VINA RESULT:      -7.2      1.840      5.608
REMARK  Name = 
REMARK  5 active torsions:
REMARK  status: ('A' for Active; 'I' for Inactive)
REMARK    1  A    between atoms: C_1  and  C_2
REMARK    2  A    between atoms: C_2  and  C_3
REMARK    3  A    between atoms: C_2  and  N_13
REMARK    4  A    between atoms: C_3  and  C_4
REMARK    5  A    between atoms: C_3  and  N_5
REMARK                            x       y       z     vdW  Elec       q    Type
REMARK                         _______ _______ _______ _____ _____    ______ ____
ROOT
ATOM      1  C   UNL     1       3.046   4.766  18.496  0.00  0.00    +0.000 C 
ATOM      2  C   UNL     1       1.707   5.037  17.777  0.00  0.00    +0.000 C 
ENDROOT
BRANCH   1   3
ATOM      3  N   UNL     1       3.431   3.338  18.688  0.00  0.00    +0.000 NA
ATOM      4  C   UNL     1       2.550   2.288  18.161  0.00  0.00    +0.000 C 
ATOM      5  C   UNL     1       1.258   2.169  18.963  0.00  0.00    +0.000 C 
ATOM      6  O   UNL     1       0.166   1.936  18.453  0.00  0.00    +0.000 OA
ATOM      7  N   UNL     1       1.404   2.307  20.322  0.00  0.00    +0.000 N 
ATOM      8  C   UNL     1       2.543   2.734  20.959  0.00  0.00    +0.000 C 
ATOM      9  O   UNL     1       2.555   2.881  22.179  0.00  0.00    +0.000 OA
ATOM     10  C   UNL     1       3.775   2.991  20.090  0.00  0.00    +0.000 C 
ATOM     11  H   UNL     1       0.569   2.230  20.882  0.00  0.00    +0.000 HD
ENDBRANCH   1   3
BRANCH   1  13
ATOM     12  C   UNL     1       3.606   7.238  17.850  0.00  0.00    +0.000 C 
ATOM     13  C   UNL     1       4.154   5.796  17.963  0.00  0.00    +0.000 C 
BRANCH  13  14
ATOM     14  N   UNL     1       4.878   5.413  16.712  0.00  0.00    +0.000 NA
ATOM     15  C   UNL     1       5.493   6.565  16.001  0.00  0.00    +0.000 C 
ATOM     16  C   UNL     1       6.620   7.247  16.796  0.00  0.00    +0.000 C 
ATOM     17  N   UNL     1       7.540   6.302  17.388  0.00  0.00    +0.000 N 
ATOM     18  C   UNL     1       7.210   4.994  17.637  0.00  0.00    +0.000 C 
ATOM     19  O   UNL     1       7.951   4.301  18.332  0.00  0.00    +0.000 OA
ATOM     20  C   UNL     1       5.971   4.424  16.928  0.00  0.00    +0.000 C 
ATOM     21  H   UNL     1       8.353   6.636  17.891  0.00  0.00    +0.000 HD
ENDBRANCH  13  14
ENDBRANCH   1  13
TORSDOF 3
ENDMDL
MODEL 7
REMARK VINA RESULT:      -7.2      1.863      5.995
REMARK  Name = 
REMARK  5 active torsions:
REMARK  status: ('A' for Active; 'I' for Inactive)
REMARK    1  A    between atoms: C_1  and  C_2
REMARK    2  A    between atoms: C_2  and  C_3
REMARK    3  A    between atoms: C_2  and  N_13
REMARK    4  A    between atoms: C_3  and  C_4
REMARK    5  A    between atoms: C_3  and  N_5
REMARK                            x       y       z     vdW  Elec       q    Type
REMARK                         _______ _______ _______ _____ _____    ______ ____
ROOT
ATOM      1  C   UNL     1       3.964   3.813  18.825  0.00  0.00    +0.000 C 
ATOM      2  C   UNL     1       4.467   2.745  19.820  0.00  0.00    +0.000 C 
ENDROOT
BRANCH   1   3
ATOM      3  N   UNL     1       2.738   4.570  19.210  0.00  0.00    +0.000 NA
ATOM      4  C   UNL     1       2.415   4.720  20.635  0.00  0.00    +0.000 C 
ATOM      5  C   UNL     1       1.944   3.410  21.255  0.00  0.00    +0.000 C 
ATOM      6  O   UNL     1       2.235   3.059  22.395  0.00  0.00    +0.000 OA
ATOM      7  N   UNL     1       1.125   2.649  20.455  0.00  0.00    +0.000 N 
ATOM      8  C   UNL     1       0.886   2.875  19.123  0.00  0.00    +0.000 C 
ATOM      9  O   UNL     1       0.182   2.101  18.477  0.00  0.00    +0.000 OA
ATOM     10  C   UNL     1       1.510   4.126  18.502  0.00  0.00    +0.000 C 
ATOM     11  H   UNL     1       0.792   1.778  20.838  0.00  0.00    +0.000 HD
ENDBRANCH   1   3
BRANCH   1  13
ATOM     12  C   UNL     1       6.081   5.254  19.360  0.00  0.00    +0.000 C 
ATOM     13  C   UNL     1       5.218   4.626  18.241  0.00  0.00    +0.000 C 
BRANCH  13  14
ATOM     14  N   UNL     1       4.925   5.637  17.178  0.00  0.00    +0.000 NA
ATOM     15  C   UNL     1       5.850   6.800  17.188  0.00  0.00    +0.000 C 
ATOM     16  C   UNL     1       7.306   6.431  16.851  0.00  0.00    +0.000 C 
ATOM     17  N   UNL     1       7.410   5.547  15.711  0.00  0.00    +0.000 N 
ATOM     18  C   UNL     1       6.377   4.752  15.286  0.00  0.00    +0.000 C 
ATOM     19  O   UNL     1       6.590   3.871  14.454  0.00  0.00    +0.000 OA
ATOM     20  C   UNL     1       4.965   5.083  15.795  0.00  0.00    +0.000 C 
ATOM     21  H   UNL     1       8.322   5.279  15.363  0.00  0.00    +0.000 HD
ENDBRANCH  13  14
ENDBRANCH   1  13
TORSDOF 3
ENDMDL
MODEL 8
REMARK VINA RESULT:      -7.2      2.195      5.778
REMARK  Name = 
REMARK  5 active torsions:
REMARK  status: ('A' for Active; 'I' for Inactive)
REMARK    1  A    between atoms: C_1  and  C_2
REMARK    2  A    between atoms: C_2  and  C_3
REMARK    3  A    between atoms: C_2  and  N_13
REMARK    4  A    between atoms: C_3  and  C_4
REMARK    5  A    between atoms: C_3  and  N_5
REMARK                            x       y       z     vdW  Elec       q    Type
REMARK                         _______ _______ _______ _____ _____    ______ ____
ROOT
ATOM      1  C   UNL     1       3.984   4.506  17.928  0.00  0.00    +0.000 C 
ATOM      2  C   UNL     1       4.071   3.538  16.729  0.00  0.00    +0.000 C 
ENDROOT
BRANCH   1   3
ATOM      3  N   UNL     1       3.818   3.895  19.278  0.00  0.00    +0.000 NA
ATOM      4  C   UNL     1       2.977   2.699  19.418  0.00  0.00    +0.000 C 
ATOM      5  C   UNL     1       1.496   3.020  19.252  0.00  0.00    +0.000 C 
ATOM      6  O   UNL     1       0.703   2.277  18.681  0.00  0.00    +0.000 OA
ATOM      7  N   UNL     1       1.089   4.201  19.826  0.00  0.00    +0.000 N 
ATOM      8  C   UNL     1       1.924   5.167  20.329  0.00  0.00    +0.000 C 
ATOM      9  O   UNL     1       1.465   6.219  20.770  0.00  0.00    +0.000 OA
ATOM     10  C   UNL     1       3.423   4.863  20.333  0.00  0.00    +0.000 C 
ATOM     11  H   UNL     1       0.114   4.441  19.737  0.00  0.00    +0.000 HD
ENDBRANCH   1   3
BRANCH   1  13
ATOM     12  C   UNL     1       4.498   6.871  16.935  0.00  0.00    +0.000 C 
ATOM     13  C   UNL     1       5.063   5.680  17.742  0.00  0.00    +0.000 C 
BRANCH  13  14
ATOM     14  N   UNL     1       6.404   5.279  17.214  0.00  0.00    +0.000 NA
ATOM     15  C   UNL     1       7.188   6.412  16.656  0.00  0.00    +0.000 C 
ATOM     16  C   UNL     1       7.588   7.461  17.709  0.00  0.00    +0.000 C 
ATOM     17  N   UNL     1       8.104   6.868  18.923  0.00  0.00    +0.000 N 
ATOM     18  C   UNL     1       7.831   5.578  19.299  0.00  0.00    +0.000 C 
ATOM     19  O   UNL     1       8.115   5.201  20.434  0.00  0.00    +0.000 OA
ATOM     20  C   UNL     1       7.278   4.624  18.227  0.00  0.00    +0.000 C 
ATOM     21  H   UNL     1       8.449   7.461  19.667  0.00  0.00    +0.000 HD
ENDBRANCH  13  14
ENDBRANCH   1  13
TORSDOF 3
ENDMDL
MODEL 9
REMARK VINA RESULT:      -7.2      1.409      1.871
REMARK  Name = 
REMARK  5 active torsions:
REMARK  status: ('A' for Active; 'I' for Inactive)
REMARK    1  A    between atoms: C_1  and  C_2
REMARK    2  A    between atoms: C_2  and  C_3
REMARK    3  A    between atoms: C_2  and  N_13
REMARK    4  A    between atoms: C_3  and  C_4
REMARK    5  A    between atoms: C_3  and  N_5
REMARK                            x       y       z     vdW  Elec       q    Type
REMARK                         _______ _______ _______ _____ _____    ______ ____
ROOT
ATOM      1  C   UNL     1       4.281   5.479  17.339  0.00  0.00    +0.000 C 
ATOM      2  C   UNL     1       4.229   7.019  17.418  0.00  0.00    +0.000 C 
ENDROOT
BRANCH   1   3
ATOM      3  N   UNL     1       5.591   4.832  17.641  0.00  0.00    +0.000 NA
ATOM      4  C   UNL     1       6.704   5.667  18.111  0.00  0.00    +0.000 C 
ATOM      5  C   UNL     1       7.263   6.552  17.003  0.00  0.00    +0.000 C 
ATOM      6  O   UNL     1       7.648   7.703  17.187  0.00  0.00    +0.000 OA
ATOM      7  N   UNL     1       7.344   5.954  15.768  0.00  0.00    +0.000 N 
ATOM      8  C   UNL     1       6.787   4.745  15.433  0.00  0.00    +0.000 C 
ATOM      9  O   UNL     1       6.864   4.321  14.282  0.00  0.00    +0.000 OA
ATOM     10  C   UNL     1       6.097   3.960  16.550  0.00  0.00    +0.000 C 
ATOM     11  H   UNL     1       7.713   6.511  15.013  0.00  0.00    +0.000 HD
ENDBRANCH   1   3
BRANCH   1  13
ATOM     12  C   UNL     1       1.769   5.862  17.956  0.00  0.00    +0.000 C 
ATOM     13  C   UNL     1       2.952   4.868  17.998  0.00  0.00    +0.000 C 
BRANCH  13  14
ATOM     14  N   UNL     1       3.092   4.279  19.365  0.00  0.00    +0.000 NA
ATOM     15  C   UNL     1       1.794   3.934  20.002  0.00  0.00    +0.000 C 
ATOM     16  C   UNL     1       1.030   2.813  19.276  0.00  0.00    +0.000 C 
ATOM     17  N   UNL     1       1.878   1.697  18.919  0.00  0.00    +0.000 N 
ATOM     18  C   UNL     1       3.239   1.805  18.790  0.00  0.00    +0.000 C 
ATOM     19  O   UNL     1       3.876   0.886  18.279  0.00  0.00    +0.000 OA
ATOM     20  C   UNL     1       3.918   3.039  19.404  0.00  0.00    +0.000 C 
ATOM     21  H   UNL     1       1.475   0.877  18.483  0.00  0.00    +0.000 HD
ENDBRANCH  13  14
ENDBRANCH   1  13
TORSDOF 3
ENDMDL
