MODEL 1
REMARK VINA RESULT:      -8.7      0.000      0.000
REMARK  Name = 
REMARK  9 active torsions:
REMARK  status: ('A' for Active; 'I' for Inactive)
REMARK    1  A    between atoms: C_1  and  C_2
REMARK    2  A    between atoms: C_2  and  C_3
REMARK    3  A    between atoms: C_3  and  C_4
REMARK    4  A    between atoms: C_4  and  C_5
REMARK    5  A    between atoms: C_8  and  C_9
REMARK    6  A    between atoms: N_13  and  C_14
REMARK    7  A    between atoms: C_14  and  C_15
REMARK    8  A    between atoms: C_18  and  C_19
REMARK    9  A    between atoms: C_24  and  C_25
REMARK                            x       y       z     vdW  Elec       q    Type
REMARK                         _______ _______ _______ _____ _____    ______ ____
ROOT
ATOM      1  C   UNL     1       2.675   7.137  19.374  0.00  0.00    +0.000 A 
ATOM      2  C   UNL     1       1.917   7.740  20.384  0.00  0.00    +0.000 A 
ATOM      3  C   UNL     1       1.032   8.794  20.094  0.00  0.00    +0.000 A 
ATOM      4  C   UNL     1       0.889   9.297  18.790  0.00  0.00    +0.000 A 
ATOM      5  C   UNL     1       1.835   8.845  17.854  0.00  0.00    +0.000 A 
ATOM      6  C   UNL     1       2.675   7.753  18.121  0.00  0.00    +0.000 A 
ENDROOT
BRANCH   4   7
ATOM      7  C   UNL     1      -0.271  10.168  18.403  0.00  0.00    +0.000 A 
ATOM      8  C   UNL     1      -1.307   9.647  17.592  0.00  0.00    +0.000 A 
ATOM      9  C   UNL     1      -2.375  10.438  17.139  0.00  0.00    +0.000 A 
ATOM     10  C   UNL     1      -2.464  11.773  17.507  0.00  0.00    +0.000 A 
ATOM     11  C   UNL     1      -1.473  12.322  18.311  0.00  0.00    +0.000 A 
ATOM     12  C   UNL     1      -0.371  11.551  18.742  0.00  0.00    +0.000 A 
BRANCH  12  13
ATOM     13  C   UNL     1       0.634  12.272  19.512  0.00  0.00    +0.000 A 
ATOM     14  N   UNL     1       0.512  12.469  20.871  0.00  0.00    +0.000 NA
ATOM     15  N   UNL     1       1.623  13.070  21.271  0.00  0.00    +0.000 NA
ATOM     16  N   UNL     1       2.346  13.214  20.156  0.00  0.00    +0.000 N 
ATOM     17  N   UNL     1       1.768  12.801  19.021  0.00  0.00    +0.000 NA
ATOM     18  H   UNL     1       3.287  13.594  20.174  0.00  0.00    +0.000 HD
ENDBRANCH  12  13
ENDBRANCH   4   7
BRANCH   1  19
ATOM     19  C   UNL     1       3.444   5.850  19.625  0.00  0.00    +0.000 C 
BRANCH  19  26
ATOM     20  C   UNL     1       2.929   4.121  17.840  0.00  0.00    +0.000 A 
ATOM     21  C   UNL     1       3.325   3.381  16.792  0.00  0.00    +0.000 A 
ATOM     22  C   UNL     1       4.560   3.651  16.134  0.00  0.00    +0.000 A 
ATOM     23  C   UNL     1       5.328   4.672  16.535  0.00  0.00    +0.000 A 
ATOM     24  C   UNL     1       4.997   5.443  17.764  0.00  0.00    +0.000 A 
ATOM     25  O   UNL     1       5.753   6.324  18.157  0.00  0.00    +0.000 OA
ATOM     26  N   UNL     1       3.777   5.102  18.391  0.00  0.00    +0.000 N 
BRANCH  23  27
ATOM     27  C   UNL     1       6.611   4.914  15.755  0.00  0.00    +0.000 C 
ATOM     28  N   UNL     1       7.675   5.114  15.109  0.00  0.00    +0.000 NA
ENDBRANCH  23  27
BRANCH  20  29
ATOM     29  C   UNL     1       1.489   3.986  18.254  0.00  0.00    +0.000 C 
BRANCH  29  30
ATOM     30  C   UNL     1       1.380   2.733  19.132  0.00  0.00    +0.000 C 
BRANCH  30  32
ATOM     31  C   UNL     1       2.259   2.904  21.471  0.00  0.00    +0.000 C 
ATOM     32  C   UNL     1       1.043   3.079  20.573  0.00  0.00    +0.000 C 
ENDBRANCH  30  32
ENDBRANCH  29  30
ENDBRANCH  20  29
ENDBRANCH  19  26
ENDBRANCH   1  19
TORSDOF 8
ENDMDL
MODEL 2
REMARK VINA RESULT:      -8.7      1.967      2.764
REMARK  Name = 
REMARK  9 active torsions:
REMARK  status: ('A' for Active; 'I' for Inactive)
REMARK    1  A    between atoms: C_1  and  C_2
REMARK    2  A    between atoms: C_2  and  C_3
REMARK    3  A    between atoms: C_3  and  C_4
REMARK    4  A    between atoms: C_4  and  C_5
REMARK    5  A    between atoms: C_8  and  C_9
REMARK    6  A    between atoms: N_13  and  C_14
REMARK    7  A    between atoms: C_14  and  C_15
REMARK    8  A    between atoms: C_18  and  C_19
REMARK    9  A    between atoms: C_24  and  C_25
REMARK                            x       y       z     vdW  Elec       q    Type
REMARK                         _______ _______ _______ _____ _____    ______ ____
ROOT
ATOM      1  C   UNL     1       2.384   7.282  19.389  0.00  0.00    +0.000 A 
ATOM      2  C   UNL     1       2.364   7.858  18.113  0.00  0.00    +0.000 A 
ATOM      3  C   UNL     1       1.773   9.115  17.894  0.00  0.00    +0.000 A 
ATOM      4  C   UNL     1       1.162   9.832  18.937  0.00  0.00    +0.000 A 
ATOM      5  C   UNL     1       0.979   9.126  20.138  0.00  0.00    +0.000 A 
ATOM      6  C   UNL     1       1.620   7.900  20.381  0.00  0.00    +0.000 A 
ENDROOT
BRANCH   4   7
ATOM      7  C   UNL     1       0.836  11.291  18.805  0.00  0.00    +0.000 A 
ATOM      8  C   UNL     1       1.787  12.266  19.187  0.00  0.00    +0.000 A 
ATOM      9  C   UNL     1       1.507  13.642  19.155  0.00  0.00    +0.000 A 
ATOM     10  C   UNL     1       0.273  14.095  18.710  0.00  0.00    +0.000 A 
ATOM     11  C   UNL     1      -0.688  13.171  18.316  0.00  0.00    +0.000 A 
ATOM     12  C   UNL     1      -0.435  11.783  18.380  0.00  0.00    +0.000 A 
BRANCH  12  13
ATOM     13  C   UNL     1      -1.555  10.927  18.013  0.00  0.00    +0.000 A 
ATOM     14  N   UNL     1      -2.816  11.106  18.539  0.00  0.00    +0.000 NA
ATOM     15  N   UNL     1      -3.609  10.232  17.937  0.00  0.00    +0.000 NA
ATOM     16  N   UNL     1      -2.804   9.571  17.098  0.00  0.00    +0.000 N 
ATOM     17  N   UNL     1      -1.508   9.906  17.139  0.00  0.00    +0.000 NA
ATOM     18  H   UNL     1      -3.160   8.874  16.452  0.00  0.00    +0.000 HD
ENDBRANCH  12  13
ENDBRANCH   4   7
BRANCH   1  19
ATOM     19  C   UNL     1       3.225   6.051  19.687  0.00  0.00    +0.000 C 
BRANCH  19  26
ATOM     20  C   UNL     1       2.779   4.259  17.947  0.00  0.00    +0.000 A 
ATOM     21  C   UNL     1       3.210   3.497  16.928  0.00  0.00    +0.000 A 
ATOM     22  C   UNL     1       4.450   3.773  16.284  0.00  0.00    +0.000 A 
ATOM     23  C   UNL     1       5.190   4.823  16.668  0.00  0.00    +0.000 A 
ATOM     24  C   UNL     1       4.819   5.622  17.867  0.00  0.00    +0.000 A 
ATOM     25  O   UNL     1       5.550   6.531  18.246  0.00  0.00    +0.000 OA
ATOM     26  N   UNL     1       3.596   5.274  18.482  0.00  0.00    +0.000 N 
BRANCH  23  27
ATOM     27  C   UNL     1       6.481   5.068  15.904  0.00  0.00    +0.000 C 
ATOM     28  N   UNL     1       7.552   5.271  15.270  0.00  0.00    +0.000 NA
ENDBRANCH  23  27
BRANCH  20  29
ATOM     29  C   UNL     1       1.335   4.105  18.338  0.00  0.00    +0.000 C 
BRANCH  29  30
ATOM     30  C   UNL     1       1.236   2.875  19.249  0.00  0.00    +0.000 C 
BRANCH  30  32
ATOM     31  C   UNL     1       2.297   2.886  21.517  0.00  0.00    +0.000 C 
ATOM     32  C   UNL     1       1.065   3.263  20.709  0.00  0.00    +0.000 C 
ENDBRANCH  30  32
ENDBRANCH  29  30
ENDBRANCH  20  29
ENDBRANCH  19  26
ENDBRANCH   1  19
TORSDOF 8
ENDMDL
MODEL 3
REMARK VINA RESULT:      -8.4      2.417      8.416
REMARK  Name = 
REMARK  9 active torsions:
REMARK  status: ('A' for Active; 'I' for Inactive)
REMARK    1  A    between atoms: C_1  and  C_2
REMARK    2  A    between atoms: C_2  and  C_3
REMARK    3  A    between atoms: C_3  and  C_4
REMARK    4  A    between atoms: C_4  and  C_5
REMARK    5  A    between atoms: C_8  and  C_9
REMARK    6  A    between atoms: N_13  and  C_14
REMARK    7  A    between atoms: C_14  and  C_15
REMARK    8  A    between atoms: C_18  and  C_19
REMARK    9  A    between atoms: C_24  and  C_25
REMARK                            x       y       z     vdW  Elec       q    Type
REMARK                         _______ _______ _______ _____ _____    ______ ____
ROOT
ATOM      1  C   UNL     1       1.073   8.868  19.813  0.00  0.00    +0.000 A 
ATOM      2  C   UNL     1       1.582   9.110  18.531  0.00  0.00    +0.000 A 
ATOM      3  C   UNL     1       2.488   8.218  17.931  0.00  0.00    +0.000 A 
ATOM      4  C   UNL     1       2.936   7.064  18.597  0.00  0.00    +0.000 A 
ATOM      5  C   UNL     1       2.606   6.980  19.961  0.00  0.00    +0.000 A 
ATOM      6  C   UNL     1       1.654   7.831  20.546  0.00  0.00    +0.000 A 
ENDROOT
BRANCH   4   7
ATOM      7  C   UNL     1       3.618   5.945  17.866  0.00  0.00    +0.000 A 
ATOM      8  C   UNL     1       4.527   6.235  16.821  0.00  0.00    +0.000 A 
ATOM      9  C   UNL     1       5.136   5.227  16.055  0.00  0.00    +0.000 A 
ATOM     10  C   UNL     1       4.882   3.890  16.327  0.00  0.00    +0.000 A 
ATOM     11  C   UNL     1       4.002   3.562  17.352  0.00  0.00    +0.000 A 
ATOM     12  C   UNL     1       3.351   4.563  18.105  0.00  0.00    +0.000 A 
BRANCH  12  13
ATOM     13  C   UNL     1       2.397   4.081  19.094  0.00  0.00    +0.000 A 
ATOM     14  N   UNL     1       2.780   3.728  20.370  0.00  0.00    +0.000 NA
ATOM     15  N   UNL     1       1.672   3.425  21.031  0.00  0.00    +0.000 NA
ATOM     16  N   UNL     1       0.692   3.596  20.138  0.00  0.00    +0.000 N 
ATOM     17  N   UNL     1       1.073   3.939  18.902  0.00  0.00    +0.000 NA
ATOM     18  H   UNL     1      -0.286   3.494  20.392  0.00  0.00    +0.000 HD
ENDBRANCH  12  13
ENDBRANCH   4   7
BRANCH   1  19
ATOM     19  C   UNL     1      -0.082   9.684  20.371  0.00  0.00    +0.000 C 
BRANCH  19  26
ATOM     20  C   UNL     1      -1.107  11.255  18.663  0.00  0.00    +0.000 A 
ATOM     21  C   UNL     1      -1.122  12.446  18.043  0.00  0.00    +0.000 A 
ATOM     22  C   UNL     1      -0.344  13.534  18.535  0.00  0.00    +0.000 A 
ATOM     23  C   UNL     1       0.389  13.390  19.647  0.00  0.00    +0.000 A 
ATOM     24  C   UNL     1       0.535  12.061  20.300  0.00  0.00    +0.000 A 
ATOM     25  O   UNL     1       1.271  11.935  21.273  0.00  0.00    +0.000 OA
ATOM     26  N   UNL     1      -0.233  11.015  19.742  0.00  0.00    +0.000 N 
BRANCH  23  27
ATOM     27  C   UNL     1       1.159  14.611  20.124  0.00  0.00    +0.000 C 
ATOM     28  N   UNL     1       1.798  15.623  20.521  0.00  0.00    +0.000 NA
ENDBRANCH  23  27
BRANCH  20  29
ATOM     29  C   UNL     1      -2.191  10.285  18.281  0.00  0.00    +0.000 C 
BRANCH  29  30
ATOM     30  C   UNL     1      -2.020   9.971  16.790  0.00  0.00    +0.000 C 
BRANCH  30  32
ATOM     31  C   UNL     1      -3.049  10.055  14.508  0.00  0.00    +0.000 C 
ATOM     32  C   UNL     1      -3.265  10.321  15.991  0.00  0.00    +0.000 C 
ENDBRANCH  30  32
ENDBRANCH  29  30
ENDBRANCH  20  29
ENDBRANCH  19  26
ENDBRANCH   1  19
TORSDOF 8
ENDMDL
MODEL 4
REMARK VINA RESULT:      -8.4      2.404      8.438
REMARK  Name = 
REMARK  9 active torsions:
REMARK  status: ('A' for Active; 'I' for Inactive)
REMARK    1  A    between atoms: C_1  and  C_2
REMARK    2  A    between atoms: C_2  and  C_3
REMARK    3  A    between atoms: C_3  and  C_4
REMARK    4  A    between atoms: C_4  and  C_5
REMARK    5  A    between atoms: C_8  and  C_9
REMARK    6  A    between atoms: N_13  and  C_14
REMARK    7  A    between atoms: C_14  and  C_15
REMARK    8  A    between atoms: C_18  and  C_19
REMARK    9  A    between atoms: C_24  and  C_25
REMARK                            x       y       z     vdW  Elec       q    Type
REMARK                         _______ _______ _______ _____ _____    ______ ____
ROOT
ATOM      1  C   UNL     1       1.219   9.075  19.864  0.00  0.00    +0.000 A 
ATOM      2  C   UNL     1       1.574   7.849  20.439  0.00  0.00    +0.000 A 
ATOM      3  C   UNL     1       2.334   6.906  19.724  0.00  0.00    +0.000 A 
ATOM      4  C   UNL     1       2.748   7.144  18.402  0.00  0.00    +0.000 A 
ATOM      5  C   UNL     1       2.171   8.262  17.774  0.00  0.00    +0.000 A 
ATOM      6  C   UNL     1       1.466   9.236  18.498  0.00  0.00    +0.000 A 
ENDROOT
BRANCH   4   7
ATOM      7  C   UNL     1       3.823   6.323  17.752  0.00  0.00    +0.000 A 
ATOM      8  C   UNL     1       4.922   6.962  17.130  0.00  0.00    +0.000 A 
ATOM      9  C   UNL     1       5.916   6.246  16.443  0.00  0.00    +0.000 A 
ATOM     10  C   UNL     1       5.864   4.861  16.380  0.00  0.00    +0.000 A 
ATOM     11  C   UNL     1       4.806   4.193  16.986  0.00  0.00    +0.000 A 
ATOM     12  C   UNL     1       3.778   4.900  17.646  0.00  0.00    +0.000 A 
BRANCH  12  13
ATOM     13  C   UNL     1       2.691   4.082  18.167  0.00  0.00    +0.000 A 
ATOM     14  N   UNL     1       1.509   3.912  17.480  0.00  0.00    +0.000 NA
ATOM     15  N   UNL     1       0.783   3.050  18.177  0.00  0.00    +0.000 NA
ATOM     16  N   UNL     1       1.541   2.753  19.237  0.00  0.00    +0.000 N 
ATOM     17  N   UNL     1       2.708   3.404  19.328  0.00  0.00    +0.000 NA
ATOM     18  H   UNL     1       1.258   2.057  19.919  0.00  0.00    +0.000 HD
ENDBRANCH  12  13
ENDBRANCH   4   7
BRANCH   1  19
ATOM     19  C   UNL     1       0.615  10.194  20.697  0.00  0.00    +0.000 C 
BRANCH  19  26
ATOM     20  C   UNL     1      -0.659  11.534  18.960  0.00  0.00    +0.000 A 
ATOM     21  C   UNL     1      -0.781  12.637  18.204  0.00  0.00    +0.000 A 
ATOM     22  C   UNL     1       0.034  13.781  18.448  0.00  0.00    +0.000 A 
ATOM     23  C   UNL     1       0.911  13.781  19.461  0.00  0.00    +0.000 A 
ATOM     24  C   UNL     1       1.170  12.545  20.248  0.00  0.00    +0.000 A 
ATOM     25  O   UNL     1       2.030  12.545  21.121  0.00  0.00    +0.000 OA
ATOM     26  N   UNL     1       0.355  11.435  19.933  0.00  0.00    +0.000 N 
BRANCH  23  27
ATOM     27  C   UNL     1       1.713  15.055  19.674  0.00  0.00    +0.000 C 
ATOM     28  N   UNL     1       2.378  16.111  19.850  0.00  0.00    +0.000 NA
ENDBRANCH  23  27
BRANCH  20  29
ATOM     29  C   UNL     1      -1.765  10.520  18.852  0.00  0.00    +0.000 C 
BRANCH  29  30
ATOM     30  C   UNL     1      -1.767   9.996  17.410  0.00  0.00    +0.000 C 
BRANCH  30  32
ATOM     31  C   UNL     1      -3.029  10.025  15.248  0.00  0.00    +0.000 C 
ATOM     32  C   UNL     1      -3.135  10.125  16.762  0.00  0.00    +0.000 C 
ENDBRANCH  30  32
ENDBRANCH  29  30
ENDBRANCH  20  29
ENDBRANCH  19  26
ENDBRANCH   1  19
TORSDOF 8
ENDMDL
MODEL 5
REMARK VINA RESULT:      -8.4      0.638      1.011
REMARK  Name = 
REMARK  9 active torsions:
REMARK  status: ('A' for Active; 'I' for Inactive)
REMARK    1  A    between atoms: C_1  and  C_2
REMARK    2  A    between atoms: C_2  and  C_3
REMARK    3  A    between atoms: C_3  and  C_4
REMARK    4  A    between atoms: C_4  and  C_5
REMARK    5  A    between atoms: C_8  and  C_9
REMARK    6  A    between atoms: N_13  and  C_14
REMARK    7  A    between atoms: C_14  and  C_15
REMARK    8  A    between atoms: C_18  and  C_19
REMARK    9  A    between atoms: C_24  and  C_25
REMARK                            x       y       z     vdW  Elec       q    Type
REMARK                         _______ _______ _______ _____ _____    ______ ____
ROOT
ATOM      1  C   UNL     1       2.554   7.360  19.378  0.00  0.00    +0.000 A 
ATOM      2  C   UNL     1       1.711   7.870  20.371  0.00  0.00    +0.000 A 
ATOM      3  C   UNL     1       0.730   8.831  20.066  0.00  0.00    +0.000 A 
ATOM      4  C   UNL     1       0.571   9.332  18.762  0.00  0.00    +0.000 A 
ATOM      5  C   UNL     1       1.584   8.991  17.850  0.00  0.00    +0.000 A 
ATOM      6  C   UNL     1       2.525   7.987  18.130  0.00  0.00    +0.000 A 
ENDROOT
BRANCH   4   7
ATOM      7  C   UNL     1      -0.661  10.083  18.351  0.00  0.00    +0.000 A 
ATOM      8  C   UNL     1      -1.365   9.703  17.184  0.00  0.00    +0.000 A 
ATOM      9  C   UNL     1      -2.479  10.417  16.713  0.00  0.00    +0.000 A 
ATOM     10  C   UNL     1      -2.949  11.520  17.410  0.00  0.00    +0.000 A 
ATOM     11  C   UNL     1      -2.293  11.923  18.567  0.00  0.00    +0.000 A 
ATOM     12  C   UNL     1      -1.147  11.240  19.032  0.00  0.00    +0.000 A 
BRANCH  12  13
ATOM     13  C   UNL     1      -0.512  11.814  20.210  0.00  0.00    +0.000 A 
ATOM     14  N   UNL     1       0.691  12.483  20.141  0.00  0.00    +0.000 NA
ATOM     15  N   UNL     1       0.938  12.952  21.354  0.00  0.00    +0.000 NA
ATOM     16  N   UNL     1      -0.102  12.545  22.090  0.00  0.00    +0.000 N 
ATOM     17  N   UNL     1      -1.005  11.782  21.461  0.00  0.00    +0.000 NA
ATOM     18  H   UNL     1      -0.210  12.819  23.061  0.00  0.00    +0.000 HD
ENDBRANCH  12  13
ENDBRANCH   4   7
BRANCH   1  19
ATOM     19  C   UNL     1       3.445   6.155  19.639  0.00  0.00    +0.000 C 
BRANCH  19  26
ATOM     20  C   UNL     1       2.897   4.366  17.924  0.00  0.00    +0.000 A 
ATOM     21  C   UNL     1       3.272   3.591  16.894  0.00  0.00    +0.000 A 
ATOM     22  C   UNL     1       4.493   3.839  16.202  0.00  0.00    +0.000 A 
ATOM     23  C   UNL     1       5.267   4.875  16.552  0.00  0.00    +0.000 A 
ATOM     24  C   UNL     1       4.959   5.687  17.761  0.00  0.00    +0.000 A 
ATOM     25  O   UNL     1       5.722   6.582  18.107  0.00  0.00    +0.000 OA
ATOM     26  N   UNL     1       3.754   5.366  18.424  0.00  0.00    +0.000 N 
BRANCH  23  27
ATOM     27  C   UNL     1       6.533   5.091  15.738  0.00  0.00    +0.000 C 
ATOM     28  N   UNL     1       7.582   5.271  15.063  0.00  0.00    +0.000 NA
ENDBRANCH  23  27
BRANCH  20  29
ATOM     29  C   UNL     1       1.465   4.243  18.372  0.00  0.00    +0.000 C 
BRANCH  29  30
ATOM     30  C   UNL     1       1.351   2.951  19.191  0.00  0.00    +0.000 C 
BRANCH  30  32
ATOM     31  C   UNL     1       2.329   3.000  21.496  0.00  0.00    +0.000 C 
ATOM     32  C   UNL     1       1.079   3.234  20.659  0.00  0.00    +0.000 C 
ENDBRANCH  30  32
ENDBRANCH  29  30
ENDBRANCH  20  29
ENDBRANCH  19  26
ENDBRANCH   1  19
TORSDOF 8
ENDMDL
MODEL 6
REMARK VINA RESULT:      -8.3      2.293      8.510
REMARK  Name = 
REMARK  9 active torsions:
REMARK  status: ('A' for Active; 'I' for Inactive)
REMARK    1  A    between atoms: C_1  and  C_2
REMARK    2  A    between atoms: C_2  and  C_3
REMARK    3  A    between atoms: C_3  and  C_4
REMARK    4  A    between atoms: C_4  and  C_5
REMARK    5  A    between atoms: C_8  and  C_9
REMARK    6  A    between atoms: N_13  and  C_14
REMARK    7  A    between atoms: C_14  and  C_15
REMARK    8  A    between atoms: C_18  and  C_19
REMARK    9  A    between atoms: C_24  and  C_25
REMARK                            x       y       z     vdW  Elec       q    Type
REMARK                         _______ _______ _______ _____ _____    ______ ____
ROOT
ATOM      1  C   UNL     1       1.792   9.274  18.813  0.00  0.00    +0.000 A 
ATOM      2  C   UNL     1       2.497   8.440  17.938  0.00  0.00    +0.000 A 
ATOM      3  C   UNL     1       2.710   7.084  18.242  0.00  0.00    +0.000 A 
ATOM      4  C   UNL     1       2.246   6.517  19.441  0.00  0.00    +0.000 A 
ATOM      5  C   UNL     1       1.767   7.425  20.401  0.00  0.00    +0.000 A 
ATOM      6  C   UNL     1       1.494   8.765  20.080  0.00  0.00    +0.000 A 
ENDROOT
BRANCH   4   7
ATOM      7  C   UNL     1       2.162   5.030  19.630  0.00  0.00    +0.000 A 
ATOM      8  C   UNL     1       0.983   4.449  20.153  0.00  0.00    +0.000 A 
ATOM      9  C   UNL     1       0.878   3.074  20.420  0.00  0.00    +0.000 A 
ATOM     10  C   UNL     1       1.940   2.224  20.144  0.00  0.00    +0.000 A 
ATOM     11  C   UNL     1       3.114   2.752  19.620  0.00  0.00    +0.000 A 
ATOM     12  C   UNL     1       3.249   4.138  19.383  0.00  0.00    +0.000 A 
BRANCH  12  13
ATOM     13  C   UNL     1       4.558   4.566  18.908  0.00  0.00    +0.000 A 
ATOM     14  N   UNL     1       5.510   5.087  19.757  0.00  0.00    +0.000 NA
ATOM     15  N   UNL     1       6.601   5.285  19.032  0.00  0.00    +0.000 NA
ATOM     16  N   UNL     1       6.260   4.892  17.800  0.00  0.00    +0.000 N 
ATOM     17  N   UNL     1       4.992   4.496  17.637  0.00  0.00    +0.000 NA
ATOM     18  H   UNL     1       6.932   4.874  17.039  0.00  0.00    +0.000 HD
ENDBRANCH  12  13
ENDBRANCH   4   7
BRANCH   1  19
ATOM     19  C   UNL     1       1.344  10.665  18.393  0.00  0.00    +0.000 C 
BRANCH  19  26
ATOM     20  C   UNL     1      -1.167  10.955  18.620  0.00  0.00    +0.000 A 
ATOM     21  C   UNL     1      -2.220  11.515  19.236  0.00  0.00    +0.000 A 
ATOM     22  C   UNL     1      -2.057  12.215  20.467  0.00  0.00    +0.000 A 
ATOM     23  C   UNL     1      -0.849  12.294  21.042  0.00  0.00    +0.000 A 
ATOM     24  C   UNL     1       0.366  11.798  20.342  0.00  0.00    +0.000 A 
ATOM     25  O   UNL     1       1.471  11.948  20.852  0.00  0.00    +0.000 OA
ATOM     26  N   UNL     1       0.140  11.147  19.109  0.00  0.00    +0.000 N 
BRANCH  23  27
ATOM     27  C   UNL     1      -0.770  13.027  22.372  0.00  0.00    +0.000 C 
ATOM     28  N   UNL     1      -0.703  13.635  23.474  0.00  0.00    +0.000 NA
ENDBRANCH  23  27
BRANCH  20  29
ATOM     29  C   UNL     1      -1.474   9.970  17.525  0.00  0.00    +0.000 C 
BRANCH  29  30
ATOM     30  C   UNL     1      -2.996   9.779  17.495  0.00  0.00    +0.000 C 
BRANCH  30  32
ATOM     31  C   UNL     1      -2.834  10.130  15.021  0.00  0.00    +0.000 C 
ATOM     32  C   UNL     1      -3.626  10.443  16.281  0.00  0.00    +0.000 C 
ENDBRANCH  30  32
ENDBRANCH  29  30
ENDBRANCH  20  29
ENDBRANCH  19  26
ENDBRANCH   1  19
TORSDOF 8
ENDMDL
MODEL 7
REMARK VINA RESULT:      -8.2      2.198      8.076
REMARK  Name = 
REMARK  9 active torsions:
REMARK  status: ('A' for Active; 'I' for Inactive)
REMARK    1  A    between atoms: C_1  and  C_2
REMARK    2  A    between atoms: C_2  and  C_3
REMARK    3  A    between atoms: C_3  and  C_4
REMARK    4  A    between atoms: C_4  and  C_5
REMARK    5  A    between atoms: C_8  and  C_9
REMARK    6  A    between atoms: N_13  and  C_14
REMARK    7  A    between atoms: C_14  and  C_15
REMARK    8  A    between atoms: C_18  and  C_19
REMARK    9  A    between atoms: C_24  and  C_25
REMARK                            x       y       z     vdW  Elec       q    Type
REMARK                         _______ _______ _______ _____ _____    ______ ____
ROOT
ATOM      1  C   UNL     1       1.195   9.024  20.056  0.00  0.00    +0.000 A 
ATOM      2  C   UNL     1       1.545   9.056  18.702  0.00  0.00    +0.000 A 
ATOM      3  C   UNL     1       2.129   7.940  18.077  0.00  0.00    +0.000 A 
ATOM      4  C   UNL     1       2.404   6.759  18.788  0.00  0.00    +0.000 A 
ATOM      5  C   UNL     1       2.274   6.843  20.185  0.00  0.00    +0.000 A 
ATOM      6  C   UNL     1       1.634   7.929  20.804  0.00  0.00    +0.000 A 
ENDROOT
BRANCH   4   7
ATOM      7  C   UNL     1       2.703   5.467  18.085  0.00  0.00    +0.000 A 
ATOM      8  C   UNL     1       1.720   4.451  18.024  0.00  0.00    +0.000 A 
ATOM      9  C   UNL     1       1.971   3.197  17.445  0.00  0.00    +0.000 A 
ATOM     10  C   UNL     1       3.208   2.922  16.879  0.00  0.00    +0.000 A 
ATOM     11  C   UNL     1       4.200   3.895  16.909  0.00  0.00    +0.000 A 
ATOM     12  C   UNL     1       3.975   5.148  17.522  0.00  0.00    +0.000 A 
BRANCH  12  13
ATOM     13  C   UNL     1       5.124   6.043  17.553  0.00  0.00    +0.000 A 
ATOM     14  N   UNL     1       6.143   5.895  18.468  0.00  0.00    +0.000 NA
ATOM     15  N   UNL     1       7.061   6.801  18.168  0.00  0.00    +0.000 NA
ATOM     16  N   UNL     1       6.559   7.450  17.112  0.00  0.00    +0.000 N 
ATOM     17  N   UNL     1       5.336   7.076  16.717  0.00  0.00    +0.000 NA
ATOM     18  H   UNL     1       7.087   8.167  16.624  0.00  0.00    +0.000 HD
ENDBRANCH  12  13
ENDBRANCH   4   7
BRANCH   1  19
ATOM     19  C   UNL     1       0.347  10.121  20.680  0.00  0.00    +0.000 C 
BRANCH  19  26
ATOM     20  C   UNL     1      -0.647  11.519  18.810  0.00  0.00    +0.000 A 
ATOM     21  C   UNL     1      -0.599  12.602  18.018  0.00  0.00    +0.000 A 
ATOM     22  C   UNL     1       0.303  13.669  18.297  0.00  0.00    +0.000 A 
ATOM     23  C   UNL     1       1.093  13.619  19.378  0.00  0.00    +0.000 A 
ATOM     24  C   UNL     1       1.166  12.391  20.216  0.00  0.00    +0.000 A 
ATOM     25  O   UNL     1       1.951  12.338  21.156  0.00  0.00    +0.000 OA
ATOM     26  N   UNL     1       0.272  11.355  19.865  0.00  0.00    +0.000 N 
BRANCH  23  27
ATOM     27  C   UNL     1       1.999  14.816  19.623  0.00  0.00    +0.000 C 
ATOM     28  N   UNL     1       2.750  15.807  19.827  0.00  0.00    +0.000 NA
ENDBRANCH  23  27
BRANCH  20  29
ATOM     29  C   UNL     1      -1.836  10.613  18.639  0.00  0.00    +0.000 C 
BRANCH  29  30
ATOM     30  C   UNL     1      -1.720   9.962  17.254  0.00  0.00    +0.000 C 
BRANCH  30  32
ATOM     31  C   UNL     1      -2.907  10.339  15.082  0.00  0.00    +0.000 C 
ATOM     32  C   UNL     1      -3.059   9.917  16.536  0.00  0.00    +0.000 C 
ENDBRANCH  30  32
ENDBRANCH  29  30
ENDBRANCH  20  29
ENDBRANCH  19  26
ENDBRANCH   1  19
TORSDOF 8
ENDMDL
MODEL 8
REMARK VINA RESULT:      -8.0      2.377      8.608
REMARK  Name = 
REMARK  9 active torsions:
REMARK  status: ('A' for Active; 'I' for Inactive)
REMARK    1  A    between atoms: C_1  and  C_2
REMARK    2  A    between atoms: C_2  and  C_3
REMARK    3  A    between atoms: C_3  and  C_4
REMARK    4  A    between atoms: C_4  and  C_5
REMARK    5  A    between atoms: C_8  and  C_9
REMARK    6  A    between atoms: N_13  and  C_14
REMARK    7  A    between atoms: C_14  and  C_15
REMARK    8  A    between atoms: C_18  and  C_19
REMARK    9  A    between atoms: C_24  and  C_25
REMARK                            x       y       z     vdW  Elec       q    Type
REMARK                         _______ _______ _______ _____ _____    ______ ____
ROOT
ATOM      1  C   UNL     1       1.286   8.493  19.508  0.00  0.00    +0.000 A 
ATOM      2  C   UNL     1       1.801   8.932  18.283  0.00  0.00    +0.000 A 
ATOM      3  C   UNL     1       2.790   8.194  17.608  0.00  0.00    +0.000 A 
ATOM      4  C   UNL     1       3.315   7.005  18.142  0.00  0.00    +0.000 A 
ATOM      5  C   UNL     1       2.963   6.726  19.474  0.00  0.00    +0.000 A 
ATOM      6  C   UNL     1       1.933   7.421  20.127  0.00  0.00    +0.000 A 
ENDROOT
BRANCH   4   7
ATOM      7  C   UNL     1       4.103   6.043  17.301  0.00  0.00    +0.000 A 
ATOM      8  C   UNL     1       5.144   6.518  16.469  0.00  0.00    +0.000 A 
ATOM      9  C   UNL     1       5.861   5.673  15.607  0.00  0.00    +0.000 A 
ATOM     10  C   UNL     1       5.585   4.314  15.569  0.00  0.00    +0.000 A 
ATOM     11  C   UNL     1       4.576   3.803  16.377  0.00  0.00    +0.000 A 
ATOM     12  C   UNL     1       3.818   4.646  17.220  0.00  0.00    +0.000 A 
BRANCH  12  13
ATOM     13  C   UNL     1       2.742   3.993  17.952  0.00  0.00    +0.000 A 
ATOM     14  N   UNL     1       1.442   3.992  17.495  0.00  0.00    +0.000 NA
ATOM     15  N   UNL     1       0.742   3.245  18.335  0.00  0.00    +0.000 NA
ATOM     16  N   UNL     1       1.632   2.845  19.250  0.00  0.00    +0.000 N 
ATOM     17  N   UNL     1       2.875   3.323  19.110  0.00  0.00    +0.000 NA
ATOM     18  H   UNL     1       1.384   2.199  19.992  0.00  0.00    +0.000 HD
ENDBRANCH  12  13
ENDBRANCH   4   7
BRANCH   1  19
ATOM     19  C   UNL     1       0.056   9.140  20.125  0.00  0.00    +0.000 C 
BRANCH  19  26
ATOM     20  C   UNL     1      -0.742  11.113  18.744  0.00  0.00    +0.000 A 
ATOM     21  C   UNL     1      -0.713  12.427  18.470  0.00  0.00    +0.000 A 
ATOM     22  C   UNL     1      -0.087  13.344  19.364  0.00  0.00    +0.000 A 
ATOM     23  C   UNL     1       0.453  12.906  20.510  0.00  0.00    +0.000 A 
ATOM     24  C   UNL     1       0.554  11.450  20.801  0.00  0.00    +0.000 A 
ATOM     25  O   UNL     1       1.119  11.067  21.819  0.00  0.00    +0.000 OA
ATOM     26  N   UNL     1      -0.054  10.592  19.857  0.00  0.00    +0.000 N 
BRANCH  23  27
ATOM     27  C   UNL     1       1.067  13.954  21.424  0.00  0.00    +0.000 C 
ATOM     28  N   UNL     1       1.576  14.824  22.181  0.00  0.00    +0.000 NA
ENDBRANCH  23  27
BRANCH  20  29
ATOM     29  C   UNL     1      -1.695  10.279  17.931  0.00  0.00    +0.000 C 
BRANCH  29  30
ATOM     30  C   UNL     1      -2.360  11.208  16.908  0.00  0.00    +0.000 C 
BRANCH  30  32
ATOM     31  C   UNL     1      -4.781  11.754  17.241  0.00  0.00    +0.000 C 
ATOM     32  C   UNL     1      -3.790  10.789  16.607  0.00  0.00    +0.000 C 
ENDBRANCH  30  32
ENDBRANCH  29  30
ENDBRANCH  20  29
ENDBRANCH  19  26
ENDBRANCH   1  19
TORSDOF 8
ENDMDL
MODEL 9
REMARK VINA RESULT:      -8.0      2.287      8.550
REMARK  Name = 
REMARK  9 active torsions:
REMARK  status: ('A' for Active; 'I' for Inactive)
REMARK    1  A    between atoms: C_1  and  C_2
REMARK    2  A    between atoms: C_2  and  C_3
REMARK    3  A    between atoms: C_3  and  C_4
REMARK    4  A    between atoms: C_4  and  C_5
REMARK    5  A    between atoms: C_8  and  C_9
REMARK    6  A    between atoms: N_13  and  C_14
REMARK    7  A    between atoms: C_14  and  C_15
REMARK    8  A    between atoms: C_18  and  C_19
REMARK    9  A    between atoms: C_24  and  C_25
REMARK                            x       y       z     vdW  Elec       q    Type
REMARK                         _______ _______ _______ _____ _____    ______ ____
ROOT
ATOM      1  C   UNL     1       1.661   9.173  18.823  0.00  0.00    +0.000 A 
ATOM      2  C   UNL     1       1.525   8.517  20.052  0.00  0.00    +0.000 A 
ATOM      3  C   UNL     1       1.879   7.164  20.194  0.00  0.00    +0.000 A 
ATOM      4  C   UNL     1       2.363   6.412  19.109  0.00  0.00    +0.000 A 
ATOM      5  C   UNL     1       2.253   7.020  17.847  0.00  0.00    +0.000 A 
ATOM      6  C   UNL     1       1.961   8.387  17.708  0.00  0.00    +0.000 A 
ENDROOT
BRANCH   4   7
ATOM      7  C   UNL     1       3.055   5.095  19.309  0.00  0.00    +0.000 A 
ATOM      8  C   UNL     1       2.552   4.167  20.251  0.00  0.00    +0.000 A 
ATOM      9  C   UNL     1       3.202   2.954  20.531  0.00  0.00    +0.000 A 
ATOM     10  C   UNL     1       4.364   2.610  19.855  0.00  0.00    +0.000 A 
ATOM     11  C   UNL     1       4.887   3.489  18.914  0.00  0.00    +0.000 A 
ATOM     12  C   UNL     1       4.267   4.730  18.650  0.00  0.00    +0.000 A 
BRANCH  12  13
ATOM     13  C   UNL     1       4.964   5.587  17.700  0.00  0.00    +0.000 A 
ATOM     14  N   UNL     1       4.795   5.459  16.338  0.00  0.00    +0.000 NA
ATOM     15  N   UNL     1       5.490   6.435  15.774  0.00  0.00    +0.000 NA
ATOM     16  N   UNL     1       6.044   7.089  16.800  0.00  0.00    +0.000 N 
ATOM     17  N   UNL     1       5.813   6.581  18.017  0.00  0.00    +0.000 NA
ATOM     18  H   UNL     1       6.587   7.936  16.664  0.00  0.00    +0.000 HD
ENDBRANCH  12  13
ENDBRANCH   4   7
BRANCH   1  19
ATOM     19  C   UNL     1       1.517  10.683  18.712  0.00  0.00    +0.000 C 
BRANCH  19  26
ATOM     20  C   UNL     1      -0.991  11.072  18.717  0.00  0.00    +0.000 A 
ATOM     21  C   UNL     1      -2.072  11.672  19.241  0.00  0.00    +0.000 A 
ATOM     22  C   UNL     1      -1.992  12.361  20.485  0.00  0.00    +0.000 A 
ATOM     23  C   UNL     1      -0.838  12.390  21.167  0.00  0.00    +0.000 A 
ATOM     24  C   UNL     1       0.415  11.848  20.574  0.00  0.00    +0.000 A 
ATOM     25  O   UNL     1       1.474  11.952  21.182  0.00  0.00    +0.000 OA
ATOM     26  N   UNL     1       0.274  11.210  19.321  0.00  0.00    +0.000 N 
BRANCH  23  27
ATOM     27  C   UNL     1      -0.849  13.115  22.503  0.00  0.00    +0.000 C 
ATOM     28  N   UNL     1      -0.857  13.714  23.612  0.00  0.00    +0.000 NA
ENDBRANCH  23  27
BRANCH  20  29
ATOM     29  C   UNL     1      -1.238  10.104  17.592  0.00  0.00    +0.000 C 
BRANCH  29  30
ATOM     30  C   UNL     1      -2.696  10.279  17.149  0.00  0.00    +0.000 C 
BRANCH  30  32
ATOM     31  C   UNL     1      -3.009  10.011  14.679  0.00  0.00    +0.000 C 
ATOM     32  C   UNL     1      -2.800  11.001  15.816  0.00  0.00    +0.000 C 
ENDBRANCH  30  32
ENDBRANCH  29  30
ENDBRANCH  20  29
ENDBRANCH  19  26
ENDBRANCH   1  19
TORSDOF 8
ENDMDL
