MODEL 1
REMARK VINA RESULT:      -7.9      0.000      0.000
REMARK  Name = 
REMARK  4 active torsions:
REMARK  status: ('A' for Active; 'I' for Inactive)
REMARK    1  A    between atoms: C_1  and  N_2
REMARK    2  A    between atoms: N_2  and  C_3
REMARK    3  A    between atoms: C_11  and  C_12
REMARK    4  A    between atoms: C_13  and  C_14
REMARK                            x       y       z     vdW  Elec       q    Type
REMARK                         _______ _______ _______ _____ _____    ______ ____
ROOT
ATOM      1  C   UNL     1      -7.739  16.036  16.794  0.00  0.00    +0.000 C 
ATOM      2  N   UNL     1      -7.425  15.144  17.905  0.00  0.00    +0.000 N 
ATOM      3  C   UNL     1      -7.181  15.821  19.165  0.00  0.00    +0.000 C 
ATOM      4  C   UNL     1      -7.076  13.851  17.547  0.00  0.00    +0.000 C 
ATOM      5  O   UNL     1      -7.019  13.569  16.341  0.00  0.00    +0.000 OA
ATOM      6  N   UNL     1      -6.817  12.867  18.489  0.00  0.00    +0.000 N 
ATOM      7  C   UNL     1      -6.983  12.898  19.948  0.00  0.00    +0.000 C 
ATOM      8  C   UNL     1      -5.832  12.306  20.772  0.00  0.00    +0.000 C 
ATOM      9  N   UNL     1      -4.505  12.553  20.239  0.00  0.00    +0.000 N 
ATOM     10  C   UNL     1      -3.463  13.147  20.894  0.00  0.00    +0.000 A 
ATOM     11  C   UNL     1      -2.326  12.904  20.151  0.00  0.00    +0.000 A 
ATOM     12  C   UNL     1      -2.692  12.136  19.008  0.00  0.00    +0.000 A 
ATOM     13  C   UNL     1      -1.998  11.548  17.934  0.00  0.00    +0.000 A 
ATOM     14  C   UNL     1      -2.719  10.885  16.933  0.00  0.00    +0.000 A 
ATOM     15  C   UNL     1      -4.115  10.866  16.953  0.00  0.00    +0.000 A 
ATOM     16  C   UNL     1      -4.840  11.482  17.986  0.00  0.00    +0.000 A 
ATOM     17  C   UNL     1      -4.080  12.032  19.034  0.00  0.00    +0.000 A 
ATOM     18  C   UNL     1      -6.351  11.568  17.956  0.00  0.00    +0.000 C 
ENDROOT
BRANCH  11  19
ATOM     19  C   UNL     1      -1.034  13.377  20.483  0.00  0.00    +0.000 C 
ATOM     20  C   UNL     1      -0.014  12.701  21.034  0.00  0.00    +0.000 C 
ATOM     21  C   UNL     1       1.119  13.644  21.155  0.00  0.00    +0.000 C 
ATOM     22  O   UNL     1       2.227  13.399  21.592  0.00  0.00    +0.000 OA
ATOM     23  N   UNL     1       0.699  14.837  20.680  0.00  0.00    +0.000 N 
ATOM     24  C   UNL     1      -0.578  14.759  20.245  0.00  0.00    +0.000 C 
ATOM     25  O   UNL     1      -1.217  15.666  19.741  0.00  0.00    +0.000 OA
ATOM     26  H   UNL     1       1.272  15.661  20.622  0.00  0.00    +0.000 HD
BRANCH  20  27
ATOM     27  C   UNL     1       0.053  11.334  21.406  0.00  0.00    +0.000 A 
ATOM     28  C   UNL     1      -0.420  10.782  22.623  0.00  0.00    +0.000 A 
ATOM     29  C   UNL     1      -0.113   9.437  22.601  0.00  0.00    +0.000 A 
ATOM     30  N   UNL     1       0.518   9.149  21.420  0.00  0.00    +0.000 N 
ATOM     31  N   UNL     1       0.969   7.909  21.083  0.00  0.00    +0.000 NA
ATOM     32  C   UNL     1       1.539   7.882  19.923  0.00  0.00    +0.000 A 
ATOM     33  C   UNL     1       1.712   9.026  18.998  0.00  0.00    +0.000 A 
ATOM     34  C   UNL     1       1.238  10.214  19.394  0.00  0.00    +0.000 A 
ATOM     35  C   UNL     1       0.619  10.309  20.666  0.00  0.00    +0.000 A 
ENDBRANCH  20  27
ENDBRANCH  11  19
TORSDOF 2
ENDMDL
MODEL 2
REMARK VINA RESULT:      -7.7      1.133      1.849
REMARK  Name = 
REMARK  4 active torsions:
REMARK  status: ('A' for Active; 'I' for Inactive)
REMARK    1  A    between atoms: C_1  and  N_2
REMARK    2  A    between atoms: N_2  and  C_3
REMARK    3  A    between atoms: C_11  and  C_12
REMARK    4  A    between atoms: C_13  and  C_14
REMARK                            x       y       z     vdW  Elec       q    Type
REMARK                         _______ _______ _______ _____ _____    ______ ____
ROOT
ATOM      1  C   UNL     1      -7.687  15.560  16.745  0.00  0.00    +0.000 C 
ATOM      2  N   UNL     1      -7.090  14.927  17.916  0.00  0.00    +0.000 N 
ATOM      3  C   UNL     1      -6.515  15.857  18.871  0.00  0.00    +0.000 C 
ATOM      4  C   UNL     1      -6.855  13.566  17.800  0.00  0.00    +0.000 C 
ATOM      5  O   UNL     1      -7.125  13.012  16.724  0.00  0.00    +0.000 OA
ATOM      6  N   UNL     1      -6.357  12.809  18.849  0.00  0.00    +0.000 N 
ATOM      7  C   UNL     1      -6.126  13.185  20.250  0.00  0.00    +0.000 C 
ATOM      8  C   UNL     1      -4.799  12.720  20.865  0.00  0.00    +0.000 C 
ATOM      9  N   UNL     1      -3.663  12.748  19.963  0.00  0.00    +0.000 N 
ATOM     10  C   UNL     1      -2.480  13.404  20.165  0.00  0.00    +0.000 A 
ATOM     11  C   UNL     1      -1.585  12.921  19.232  0.00  0.00    +0.000 A 
ATOM     12  C   UNL     1      -2.247  11.938  18.441  0.00  0.00    +0.000 A 
ATOM     13  C   UNL     1      -1.868  11.073  17.396  0.00  0.00    +0.000 A 
ATOM     14  C   UNL     1      -2.833  10.250  16.805  0.00  0.00    +0.000 A 
ATOM     15  C   UNL     1      -4.173  10.331  17.190  0.00  0.00    +0.000 A 
ATOM     16  C   UNL     1      -4.593  11.214  18.197  0.00  0.00    +0.000 A 
ATOM     17  C   UNL     1      -3.578  11.937  18.850  0.00  0.00    +0.000 A 
ATOM     18  C   UNL     1      -6.056  11.394  18.540  0.00  0.00    +0.000 C 
ENDROOT
BRANCH  11  19
ATOM     19  C   UNL     1      -0.249  13.368  19.095  0.00  0.00    +0.000 C 
ATOM     20  C   UNL     1       0.884  12.654  19.182  0.00  0.00    +0.000 C 
ATOM     21  C   UNL     1       2.006  13.586  18.940  0.00  0.00    +0.000 C 
ATOM     22  O   UNL     1       3.190  13.310  18.919  0.00  0.00    +0.000 OA
ATOM     23  N   UNL     1       1.473  14.811  18.738  0.00  0.00    +0.000 N 
ATOM     24  C   UNL     1       0.124  14.765  18.802  0.00  0.00    +0.000 C 
ATOM     25  O   UNL     1      -0.631  15.706  18.634  0.00  0.00    +0.000 OA
ATOM     26  H   UNL     1       2.006  15.638  18.530  0.00  0.00    +0.000 HD
BRANCH  20  27
ATOM     27  C   UNL     1       1.046  11.263  19.407  0.00  0.00    +0.000 A 
ATOM     28  C   UNL     1       1.588  10.331  18.487  0.00  0.00    +0.000 A 
ATOM     29  C   UNL     1       1.514   9.089  19.082  0.00  0.00    +0.000 A 
ATOM     30  N   UNL     1       0.958   9.228  20.326  0.00  0.00    +0.000 N 
ATOM     31  N   UNL     1       0.730   8.189  21.175  0.00  0.00    +0.000 NA
ATOM     32  C   UNL     1       0.188   8.563  22.289  0.00  0.00    +0.000 A 
ATOM     33  C   UNL     1      -0.163   9.949  22.677  0.00  0.00    +0.000 A 
ATOM     34  C   UNL     1       0.096  10.920  21.793  0.00  0.00    +0.000 A 
ATOM     35  C   UNL     1       0.672  10.568  20.545  0.00  0.00    +0.000 A 
ENDBRANCH  20  27
ENDBRANCH  11  19
TORSDOF 2
ENDMDL
MODEL 3
REMARK VINA RESULT:      -7.5      2.476      4.030
REMARK  Name = 
REMARK  4 active torsions:
REMARK  status: ('A' for Active; 'I' for Inactive)
REMARK    1  A    between atoms: C_1  and  N_2
REMARK    2  A    between atoms: N_2  and  C_3
REMARK    3  A    between atoms: C_11  and  C_12
REMARK    4  A    between atoms: C_13  and  C_14
REMARK                            x       y       z     vdW  Elec       q    Type
REMARK                         _______ _______ _______ _____ _____    ______ ____
ROOT
ATOM      1  C   UNL     1      -6.946  10.280  18.576  0.00  0.00    +0.000 C 
ATOM      2  N   UNL     1      -6.932  11.644  19.093  0.00  0.00    +0.000 N 
ATOM      3  C   UNL     1      -6.315  12.614  18.207  0.00  0.00    +0.000 C 
ATOM      4  C   UNL     1      -7.189  11.766  20.450  0.00  0.00    +0.000 C 
ATOM      5  O   UNL     1      -7.365  10.732  21.111  0.00  0.00    +0.000 OA
ATOM      6  N   UNL     1      -7.279  12.999  21.078  0.00  0.00    +0.000 N 
ATOM      7  C   UNL     1      -7.284  14.348  20.498  0.00  0.00    +0.000 C 
ATOM      8  C   UNL     1      -6.414  15.393  21.211  0.00  0.00    +0.000 C 
ATOM      9  N   UNL     1      -5.160  14.890  21.740  0.00  0.00    +0.000 N 
ATOM     10  C   UNL     1      -3.910  15.370  21.462  0.00  0.00    +0.000 A 
ATOM     11  C   UNL     1      -3.051  14.823  22.393  0.00  0.00    +0.000 A 
ATOM     12  C   UNL     1      -3.806  13.986  23.265  0.00  0.00    +0.000 A 
ATOM     13  C   UNL     1      -3.521  13.219  24.411  0.00  0.00    +0.000 A 
ATOM     14  C   UNL     1      -4.540  12.459  24.996  0.00  0.00    +0.000 A 
ATOM     15  C   UNL     1      -5.809  12.399  24.416  0.00  0.00    +0.000 A 
ATOM     16  C   UNL     1      -6.115  13.116  23.248  0.00  0.00    +0.000 A 
ATOM     17  C   UNL     1      -5.103  13.961  22.758  0.00  0.00    +0.000 A 
ATOM     18  C   UNL     1      -7.447  12.966  22.547  0.00  0.00    +0.000 C 
ENDROOT
BRANCH  11  19
ATOM     19  C   UNL     1      -1.655  15.054  22.430  0.00  0.00    +0.000 C 
ATOM     20  C   UNL     1      -0.659  14.197  22.158  0.00  0.00    +0.000 C 
ATOM     21  C   UNL     1       0.611  14.937  22.321  0.00  0.00    +0.000 C 
ATOM     22  O   UNL     1       1.734  14.505  22.145  0.00  0.00    +0.000 OA
ATOM     23  N   UNL     1       0.295  16.195  22.699  0.00  0.00    +0.000 N 
ATOM     24  C   UNL     1      -1.046  16.353  22.774  0.00  0.00    +0.000 C 
ATOM     25  O   UNL     1      -1.628  17.383  23.063  0.00  0.00    +0.000 OA
ATOM     26  H   UNL     1       0.965  16.927  22.863  0.00  0.00    +0.000 HD
BRANCH  20  27
ATOM     27  C   UNL     1      -0.737  12.844  21.739  0.00  0.00    +0.000 A 
ATOM     28  C   UNL     1      -0.628  11.708  22.579  0.00  0.00    +0.000 A 
ATOM     29  C   UNL     1      -0.706  10.597  21.766  0.00  0.00    +0.000 A 
ATOM     30  N   UNL     1      -0.866  11.010  20.470  0.00  0.00    +0.000 N 
ATOM     31  N   UNL     1      -0.964  10.161  19.409  0.00  0.00    +0.000 NA
ATOM     32  C   UNL     1      -1.100  10.781  18.282  0.00  0.00    +0.000 A 
ATOM     33  C   UNL     1      -1.164  12.249  18.086  0.00  0.00    +0.000 A 
ATOM     34  C   UNL     1      -1.067  13.020  19.176  0.00  0.00    +0.000 A 
ATOM     35  C   UNL     1      -0.897  12.396  20.438  0.00  0.00    +0.000 A 
ENDBRANCH  20  27
ENDBRANCH  11  19
TORSDOF 2
ENDMDL
MODEL 4
REMARK VINA RESULT:      -7.5      2.407      4.117
REMARK  Name = 
REMARK  4 active torsions:
REMARK  status: ('A' for Active; 'I' for Inactive)
REMARK    1  A    between atoms: C_1  and  N_2
REMARK    2  A    between atoms: N_2  and  C_3
REMARK    3  A    between atoms: C_11  and  C_12
REMARK    4  A    between atoms: C_13  and  C_14
REMARK                            x       y       z     vdW  Elec       q    Type
REMARK                         _______ _______ _______ _____ _____    ______ ____
ROOT
ATOM      1  C   UNL     1      -6.775   9.170  18.986  0.00  0.00    +0.000 C 
ATOM      2  N   UNL     1      -6.785  10.608  19.233  0.00  0.00    +0.000 N 
ATOM      3  C   UNL     1      -6.083  11.392  18.233  0.00  0.00    +0.000 C 
ATOM      4  C   UNL     1      -7.150  10.987  20.515  0.00  0.00    +0.000 C 
ATOM      5  O   UNL     1      -7.394  10.097  21.344  0.00  0.00    +0.000 OA
ATOM      6  N   UNL     1      -7.275  12.316  20.887  0.00  0.00    +0.000 N 
ATOM      7  C   UNL     1      -7.213  13.530  20.062  0.00  0.00    +0.000 C 
ATOM      8  C   UNL     1      -6.391  14.694  20.633  0.00  0.00    +0.000 C 
ATOM      9  N   UNL     1      -5.192  14.304  21.351  0.00  0.00    +0.000 N 
ATOM     10  C   UNL     1      -3.917  14.724  21.092  0.00  0.00    +0.000 A 
ATOM     11  C   UNL     1      -3.144  14.367  22.178  0.00  0.00    +0.000 A 
ATOM     12  C   UNL     1      -3.981  13.711  23.128  0.00  0.00    +0.000 A 
ATOM     13  C   UNL     1      -3.802  13.177  24.418  0.00  0.00    +0.000 A 
ATOM     14  C   UNL     1      -4.876  12.541  25.051  0.00  0.00    +0.000 A 
ATOM     15  C   UNL     1      -6.093  12.368  24.389  0.00  0.00    +0.000 A 
ATOM     16  C   UNL     1      -6.292  12.848  23.085  0.00  0.00    +0.000 A 
ATOM     17  C   UNL     1      -5.231  13.587  22.529  0.00  0.00    +0.000 A 
ATOM     18  C   UNL     1      -7.564  12.564  22.317  0.00  0.00    +0.000 C 
ENDROOT
BRANCH  11  19
ATOM     19  C   UNL     1      -1.754  14.604  22.287  0.00  0.00    +0.000 C 
ATOM     20  C   UNL     1      -0.741  13.866  21.807  0.00  0.00    +0.000 C 
ATOM     21  C   UNL     1       0.514  14.558  22.171  0.00  0.00    +0.000 C 
ATOM     22  O   UNL     1       1.646  14.207  21.897  0.00  0.00    +0.000 OA
ATOM     23  N   UNL     1       0.174  15.667  22.864  0.00  0.00    +0.000 N 
ATOM     24  C   UNL     1      -1.170  15.776  22.967  0.00  0.00    +0.000 C 
ATOM     25  O   UNL     1      -1.772  16.683  23.512  0.00  0.00    +0.000 OA
ATOM     26  H   UNL     1       0.829  16.340  23.221  0.00  0.00    +0.000 HD
BRANCH  20  27
ATOM     27  C   UNL     1      -0.792  12.670  21.045  0.00  0.00    +0.000 A 
ATOM     28  C   UNL     1      -1.049  12.583  19.654  0.00  0.00    +0.000 A 
ATOM     29  C   UNL     1      -1.061  11.243  19.330  0.00  0.00    +0.000 A 
ATOM     30  N   UNL     1      -0.815  10.513  20.463  0.00  0.00    +0.000 N 
ATOM     31  N   UNL     1      -0.772   9.153  20.495  0.00  0.00    +0.000 NA
ATOM     32  C   UNL     1      -0.532   8.687  21.678  0.00  0.00    +0.000 A 
ATOM     33  C   UNL     1      -0.307   9.481  22.909  0.00  0.00    +0.000 A 
ATOM     34  C   UNL     1      -0.359  10.814  22.799  0.00  0.00    +0.000 A 
ATOM     35  C   UNL     1      -0.637  11.382  21.530  0.00  0.00    +0.000 A 
ENDBRANCH  20  27
ENDBRANCH  11  19
TORSDOF 2
ENDMDL
MODEL 5
REMARK VINA RESULT:      -7.3      1.780      4.362
REMARK  Name = 
REMARK  4 active torsions:
REMARK  status: ('A' for Active; 'I' for Inactive)
REMARK    1  A    between atoms: C_1  and  N_2
REMARK    2  A    between atoms: N_2  and  C_3
REMARK    3  A    between atoms: C_11  and  C_12
REMARK    4  A    between atoms: C_13  and  C_14
REMARK                            x       y       z     vdW  Elec       q    Type
REMARK                         _______ _______ _______ _____ _____    ______ ____
ROOT
ATOM      1  C   UNL     1      -6.890  17.012  17.388  0.00  0.00    +0.000 C 
ATOM      2  N   UNL     1      -6.771  15.877  18.296  0.00  0.00    +0.000 N 
ATOM      3  C   UNL     1      -6.380  16.230  19.648  0.00  0.00    +0.000 C 
ATOM      4  C   UNL     1      -6.714  14.633  17.686  0.00  0.00    +0.000 C 
ATOM      5  O   UNL     1      -6.726  14.584  16.448  0.00  0.00    +0.000 OA
ATOM      6  N   UNL     1      -6.670  13.454  18.414  0.00  0.00    +0.000 N 
ATOM      7  C   UNL     1      -6.819  13.238  19.859  0.00  0.00    +0.000 C 
ATOM      8  C   UNL     1      -5.820  12.267  20.503  0.00  0.00    +0.000 C 
ATOM      9  N   UNL     1      -4.474  12.324  19.964  0.00  0.00    +0.000 N 
ATOM     10  C   UNL     1      -3.324  12.545  20.670  0.00  0.00    +0.000 A 
ATOM     11  C   UNL     1      -2.270  12.214  19.842  0.00  0.00    +0.000 A 
ATOM     12  C   UNL     1      -2.801  11.777  18.593  0.00  0.00    +0.000 A 
ATOM     13  C   UNL     1      -2.256  11.273  17.397  0.00  0.00    +0.000 A 
ATOM     14  C   UNL     1      -3.109  10.985  16.325  0.00  0.00    +0.000 A 
ATOM     15  C   UNL     1      -4.475  11.260  16.406  0.00  0.00    +0.000 A 
ATOM     16  C   UNL     1      -5.045  11.804  17.568  0.00  0.00    +0.000 A 
ATOM     17  C   UNL     1      -4.178  11.967  18.665  0.00  0.00    +0.000 A 
ATOM     18  C   UNL     1      -6.500  12.213  17.626  0.00  0.00    +0.000 C 
ENDROOT
BRANCH  11  19
ATOM     19  C   UNL     1      -0.905  12.329  20.196  0.00  0.00    +0.000 C 
ATOM     20  C   UNL     1      -0.134  13.427  20.204  0.00  0.00    +0.000 C 
ATOM     21  C   UNL     1       1.207  13.014  20.674  0.00  0.00    +0.000 C 
ATOM     22  O   UNL     1       2.175  13.733  20.832  0.00  0.00    +0.000 OA
ATOM     23  N   UNL     1       1.159  11.684  20.904  0.00  0.00    +0.000 N 
ATOM     24  C   UNL     1      -0.077  11.197  20.654  0.00  0.00    +0.000 C 
ATOM     25  O   UNL     1      -0.430  10.040  20.796  0.00  0.00    +0.000 OA
ATOM     26  H   UNL     1       1.928  11.138  21.251  0.00  0.00    +0.000 HD
BRANCH  20  27
ATOM     27  C   UNL     1      -0.484  14.765  19.887  0.00  0.00    +0.000 A 
ATOM     28  C   UNL     1      -0.183  15.435  18.675  0.00  0.00    +0.000 A 
ATOM     29  C   UNL     1      -0.653  16.725  18.801  0.00  0.00    +0.000 A 
ATOM     30  N   UNL     1      -1.234  16.863  20.034  0.00  0.00    +0.000 N 
ATOM     31  N   UNL     1      -1.789  18.022  20.486  0.00  0.00    +0.000 NA
ATOM     32  C   UNL     1      -2.268  17.914  21.683  0.00  0.00    +0.000 A 
ATOM     33  C   UNL     1      -2.262  16.698  22.528  0.00  0.00    +0.000 A 
ATOM     34  C   UNL     1      -1.705  15.594  22.015  0.00  0.00    +0.000 A 
ATOM     35  C   UNL     1      -1.146  15.657  20.713  0.00  0.00    +0.000 A 
ENDBRANCH  20  27
ENDBRANCH  11  19
TORSDOF 2
ENDMDL
MODEL 6
REMARK VINA RESULT:      -7.2      2.733      7.565
REMARK  Name = 
REMARK  4 active torsions:
REMARK  status: ('A' for Active; 'I' for Inactive)
REMARK    1  A    between atoms: C_1  and  N_2
REMARK    2  A    between atoms: N_2  and  C_3
REMARK    3  A    between atoms: C_11  and  C_12
REMARK    4  A    between atoms: C_13  and  C_14
REMARK                            x       y       z     vdW  Elec       q    Type
REMARK                         _______ _______ _______ _____ _____    ______ ____
ROOT
ATOM      1  C   UNL     1       3.573  15.719  21.045  0.00  0.00    +0.000 C 
ATOM      2  N   UNL     1       2.446  15.177  20.293  0.00  0.00    +0.000 N 
ATOM      3  C   UNL     1       1.536  16.180  19.773  0.00  0.00    +0.000 C 
ATOM      4  C   UNL     1       2.218  13.820  20.463  0.00  0.00    +0.000 C 
ATOM      5  O   UNL     1       2.943  13.195  21.251  0.00  0.00    +0.000 OA
ATOM      6  N   UNL     1       1.229  13.143  19.766  0.00  0.00    +0.000 N 
ATOM      7  C   UNL     1       0.370  13.608  18.669  0.00  0.00    +0.000 C 
ATOM      8  C   UNL     1      -1.114  13.227  18.765  0.00  0.00    +0.000 C 
ATOM      9  N   UNL     1      -1.665  13.241  20.107  0.00  0.00    +0.000 N 
ATOM     10  C   UNL     1      -2.756  13.949  20.530  0.00  0.00    +0.000 A 
ATOM     11  C   UNL     1      -3.112  13.444  21.764  0.00  0.00    +0.000 A 
ATOM     12  C   UNL     1      -2.208  12.394  22.099  0.00  0.00    +0.000 A 
ATOM     13  C   UNL     1      -2.082  11.484  23.165  0.00  0.00    +0.000 A 
ATOM     14  C   UNL     1      -1.002  10.595  23.182  0.00  0.00    +0.000 A 
ATOM     15  C   UNL     1      -0.016  10.651  22.195  0.00  0.00    +0.000 A 
ATOM     16  C   UNL     1      -0.086  11.576  21.141  0.00  0.00    +0.000 A 
ATOM     17  C   UNL     1      -1.247  12.371  21.092  0.00  0.00    +0.000 A 
ATOM     18  C   UNL     1       1.033  11.724  20.135  0.00  0.00    +0.000 C 
ENDROOT
BRANCH  11  19
ATOM     19  C   UNL     1      -4.184  13.930  22.551  0.00  0.00    +0.000 C 
ATOM     20  C   UNL     1      -5.502  13.827  22.320  0.00  0.00    +0.000 C 
ATOM     21  C   UNL     1      -6.195  14.479  23.453  0.00  0.00    +0.000 C 
ATOM     22  O   UNL     1      -7.397  14.574  23.614  0.00  0.00    +0.000 OA
ATOM     23  N   UNL     1      -5.243  14.948  24.288  0.00  0.00    +0.000 N 
ATOM     24  C   UNL     1      -4.008  14.649  23.826  0.00  0.00    +0.000 C 
ATOM     25  O   UNL     1      -2.956  14.918  24.378  0.00  0.00    +0.000 OA
ATOM     26  H   UNL     1      -5.428  15.421  25.155  0.00  0.00    +0.000 HD
BRANCH  20  27
ATOM     27  C   UNL     1      -6.172  13.186  21.246  0.00  0.00    +0.000 A 
ATOM     28  C   UNL     1      -6.585  11.831  21.217  0.00  0.00    +0.000 A 
ATOM     29  C   UNL     1      -7.145  11.607  19.976  0.00  0.00    +0.000 A 
ATOM     30  N   UNL     1      -7.097  12.771  19.255  0.00  0.00    +0.000 N 
ATOM     31  N   UNL     1      -7.557  12.893  17.979  0.00  0.00    +0.000 NA
ATOM     32  C   UNL     1      -7.397  14.084  17.501  0.00  0.00    +0.000 A 
ATOM     33  C   UNL     1      -6.800  15.244  18.205  0.00  0.00    +0.000 A 
ATOM     34  C   UNL     1      -6.376  15.050  19.459  0.00  0.00    +0.000 A 
ATOM     35  C   UNL     1      -6.507  13.759  20.030  0.00  0.00    +0.000 A 
ENDBRANCH  20  27
ENDBRANCH  11  19
TORSDOF 2
ENDMDL
MODEL 7
REMARK VINA RESULT:      -7.1      3.302      7.406
REMARK  Name = 
REMARK  4 active torsions:
REMARK  status: ('A' for Active; 'I' for Inactive)
REMARK    1  A    between atoms: C_1  and  N_2
REMARK    2  A    between atoms: N_2  and  C_3
REMARK    3  A    between atoms: C_11  and  C_12
REMARK    4  A    between atoms: C_13  and  C_14
REMARK                            x       y       z     vdW  Elec       q    Type
REMARK                         _______ _______ _______ _____ _____    ______ ____
ROOT
ATOM      1  C   UNL     1       3.126  15.727  20.280  0.00  0.00    +0.000 C 
ATOM      2  N   UNL     1       2.043  14.981  19.649  0.00  0.00    +0.000 N 
ATOM      3  C   UNL     1       1.055  15.809  18.982  0.00  0.00    +0.000 C 
ATOM      4  C   UNL     1       1.922  13.659  20.048  0.00  0.00    +0.000 C 
ATOM      5  O   UNL     1       2.697  13.234  20.918  0.00  0.00    +0.000 OA
ATOM      6  N   UNL     1       0.988  12.800  19.490  0.00  0.00    +0.000 N 
ATOM      7  C   UNL     1       0.092  13.005  18.345  0.00  0.00    +0.000 C 
ATOM      8  C   UNL     1      -1.357  12.533  18.527  0.00  0.00    +0.000 C 
ATOM      9  N   UNL     1      -1.904  12.731  19.856  0.00  0.00    +0.000 N 
ATOM     10  C   UNL     1      -3.046  13.414  20.172  0.00  0.00    +0.000 A 
ATOM     11  C   UNL     1      -3.358  13.098  21.479  0.00  0.00    +0.000 A 
ATOM     12  C   UNL     1      -2.373  12.193  21.970  0.00  0.00    +0.000 A 
ATOM     13  C   UNL     1      -2.173  11.488  23.172  0.00  0.00    +0.000 A 
ATOM     14  C   UNL     1      -1.026  10.700  23.321  0.00  0.00    +0.000 A 
ATOM     15  C   UNL     1      -0.050  10.665  22.323  0.00  0.00    +0.000 A 
ATOM     16  C   UNL     1      -0.196  11.391  21.130  0.00  0.00    +0.000 A 
ATOM     17  C   UNL     1      -1.415  12.074  20.966  0.00  0.00    +0.000 A 
ATOM     18  C   UNL     1       0.906  11.452  20.095  0.00  0.00    +0.000 C 
ENDROOT
BRANCH  11  19
ATOM     19  C   UNL     1      -4.462  13.625  22.190  0.00  0.00    +0.000 C 
ATOM     20  C   UNL     1      -4.544  14.780  22.868  0.00  0.00    +0.000 C 
ATOM     21  C   UNL     1      -5.918  14.872  23.408  0.00  0.00    +0.000 C 
ATOM     22  O   UNL     1      -6.383  15.784  24.065  0.00  0.00    +0.000 OA
ATOM     23  N   UNL     1      -6.573  13.752  23.031  0.00  0.00    +0.000 N 
ATOM     24  C   UNL     1      -5.773  12.957  22.285  0.00  0.00    +0.000 C 
ATOM     25  O   UNL     1      -6.094  11.895  21.781  0.00  0.00    +0.000 OA
ATOM     26  H   UNL     1      -7.535  13.555  23.243  0.00  0.00    +0.000 HD
BRANCH  20  27
ATOM     27  C   UNL     1      -3.561  15.789  23.033  0.00  0.00    +0.000 A 
ATOM     28  C   UNL     1      -3.301  16.850  22.130  0.00  0.00    +0.000 A 
ATOM     29  C   UNL     1      -2.238  17.564  22.643  0.00  0.00    +0.000 A 
ATOM     30  N   UNL     1      -1.849  16.987  23.823  0.00  0.00    +0.000 N 
ATOM     31  N   UNL     1      -0.814  17.441  24.583  0.00  0.00    +0.000 NA
ATOM     32  C   UNL     1      -0.627  16.731  25.648  0.00  0.00    +0.000 A 
ATOM     33  C   UNL     1      -1.416  15.550  26.070  0.00  0.00    +0.000 A 
ATOM     34  C   UNL     1      -2.423  15.166  25.275  0.00  0.00    +0.000 A 
ATOM     35  C   UNL     1      -2.663  15.895  24.083  0.00  0.00    +0.000 A 
ENDBRANCH  20  27
ENDBRANCH  11  19
TORSDOF 2
ENDMDL
MODEL 8
REMARK VINA RESULT:      -6.7      3.842      7.065
REMARK  Name = 
REMARK  4 active torsions:
REMARK  status: ('A' for Active; 'I' for Inactive)
REMARK    1  A    between atoms: C_1  and  N_2
REMARK    2  A    between atoms: N_2  and  C_3
REMARK    3  A    between atoms: C_11  and  C_12
REMARK    4  A    between atoms: C_13  and  C_14
REMARK                            x       y       z     vdW  Elec       q    Type
REMARK                         _______ _______ _______ _____ _____    ______ ____
ROOT
ATOM      1  C   UNL     1       4.046  14.471  18.368  0.00  0.00    +0.000 C 
ATOM      2  N   UNL     1       3.644  15.271  19.520  0.00  0.00    +0.000 N 
ATOM      3  C   UNL     1       3.923  14.655  20.803  0.00  0.00    +0.000 C 
ATOM      4  C   UNL     1       2.774  16.314  19.242  0.00  0.00    +0.000 C 
ATOM      5  O   UNL     1       2.382  16.459  18.075  0.00  0.00    +0.000 OA
ATOM      6  N   UNL     1       2.355  17.207  20.217  0.00  0.00    +0.000 N 
ATOM      7  C   UNL     1       2.803  17.355  21.608  0.00  0.00    +0.000 C 
ATOM      8  C   UNL     1       1.699  17.549  22.656  0.00  0.00    +0.000 C 
ATOM      9  N   UNL     1       0.484  16.792  22.415  0.00  0.00    +0.000 N 
ATOM     10  C   UNL     1      -0.110  15.912  23.276  0.00  0.00    +0.000 A 
ATOM     11  C   UNL     1      -1.377  15.662  22.789  0.00  0.00    +0.000 A 
ATOM     12  C   UNL     1      -1.556  16.417  21.594  0.00  0.00    +0.000 A 
ATOM     13  C   UNL     1      -2.616  16.624  20.690  0.00  0.00    +0.000 A 
ATOM     14  C   UNL     1      -2.406  17.422  19.560  0.00  0.00    +0.000 A 
ATOM     15  C   UNL     1      -1.143  17.951  19.285  0.00  0.00    +0.000 A 
ATOM     16  C   UNL     1      -0.053  17.728  20.141  0.00  0.00    +0.000 A 
ATOM     17  C   UNL     1      -0.332  17.024  21.327  0.00  0.00    +0.000 A 
ATOM     18  C   UNL     1       1.342  18.199  19.793  0.00  0.00    +0.000 C 
ENDROOT
BRANCH  11  19
ATOM     19  C   UNL     1      -2.306  14.778  23.387  0.00  0.00    +0.000 C 
ATOM     20  C   UNL     1      -2.625  13.528  23.018  0.00  0.00    +0.000 C 
ATOM     21  C   UNL     1      -3.630  13.031  23.982  0.00  0.00    +0.000 C 
ATOM     22  O   UNL     1      -4.150  11.932  23.991  0.00  0.00    +0.000 OA
ATOM     23  N   UNL     1      -3.864  14.026  24.866  0.00  0.00    +0.000 N 
ATOM     24  C   UNL     1      -3.099  15.106  24.587  0.00  0.00    +0.000 C 
ATOM     25  O   UNL     1      -3.071  16.144  25.223  0.00  0.00    +0.000 OA
ATOM     26  H   UNL     1      -4.492  13.959  25.647  0.00  0.00    +0.000 HD
BRANCH  20  27
ATOM     27  C   UNL     1      -2.103  12.752  21.951  0.00  0.00    +0.000 A 
ATOM     28  C   UNL     1      -2.257  13.031  20.570  0.00  0.00    +0.000 A 
ATOM     29  C   UNL     1      -1.644  12.005  19.881  0.00  0.00    +0.000 A 
ATOM     30  N   UNL     1      -1.117  11.121  20.786  0.00  0.00    +0.000 N 
ATOM     31  N   UNL     1      -0.453   9.984  20.437  0.00  0.00    +0.000 NA
ATOM     32  C   UNL     1      -0.054   9.303  21.462  0.00  0.00    +0.000 A 
ATOM     33  C   UNL     1      -0.249   9.659  22.887  0.00  0.00    +0.000 A 
ATOM     34  C   UNL     1      -0.906  10.795  23.153  0.00  0.00    +0.000 A 
ATOM     35  C   UNL     1      -1.384  11.574  22.069  0.00  0.00    +0.000 A 
ENDBRANCH  20  27
ENDBRANCH  11  19
TORSDOF 2
ENDMDL
MODEL 9
REMARK VINA RESULT:      -6.7      1.052      1.211
REMARK  Name = 
REMARK  4 active torsions:
REMARK  status: ('A' for Active; 'I' for Inactive)
REMARK    1  A    between atoms: C_1  and  N_2
REMARK    2  A    between atoms: N_2  and  C_3
REMARK    3  A    between atoms: C_11  and  C_12
REMARK    4  A    between atoms: C_13  and  C_14
REMARK                            x       y       z     vdW  Elec       q    Type
REMARK                         _______ _______ _______ _____ _____    ______ ____
ROOT
ATOM      1  C   UNL     1      -7.917  17.108  18.265  0.00  0.00    +0.000 C 
ATOM      2  N   UNL     1      -7.532  16.240  19.371  0.00  0.00    +0.000 N 
ATOM      3  C   UNL     1      -6.977  16.938  20.516  0.00  0.00    +0.000 C 
ATOM      4  C   UNL     1      -7.431  14.892  19.059  0.00  0.00    +0.000 C 
ATOM      5  O   UNL     1      -7.630  14.543  17.887  0.00  0.00    +0.000 OA
ATOM      6  N   UNL     1      -7.142  13.931  20.016  0.00  0.00    +0.000 N 
ATOM      7  C   UNL     1      -7.039  14.062  21.476  0.00  0.00    +0.000 C 
ATOM      8  C   UNL     1      -5.850  13.351  22.135  0.00  0.00    +0.000 C 
ATOM      9  N   UNL     1      -4.619  13.373  21.367  0.00  0.00    +0.000 N 
ATOM     10  C   UNL     1      -3.406  13.841  21.789  0.00  0.00    +0.000 A 
ATOM     11  C   UNL     1      -2.463  13.396  20.884  0.00  0.00    +0.000 A 
ATOM     12  C   UNL     1      -3.129  12.631  19.882  0.00  0.00    +0.000 A 
ATOM     13  C   UNL     1      -2.724  11.893  18.754  0.00  0.00    +0.000 A 
ATOM     14  C   UNL     1      -3.695  11.292  17.944  0.00  0.00    +0.000 A 
ATOM     15  C   UNL     1      -5.054  11.479  18.202  0.00  0.00    +0.000 A 
ATOM     16  C   UNL     1      -5.494  12.247  19.293  0.00  0.00    +0.000 A 
ATOM     17  C   UNL     1      -4.491  12.733  20.151  0.00  0.00    +0.000 A 
ATOM     18  C   UNL     1      -6.959  12.552  19.513  0.00  0.00    +0.000 C 
ENDROOT
BRANCH  11  19
ATOM     19  C   UNL     1      -1.081  13.691  20.954  0.00  0.00    +0.000 C 
ATOM     20  C   UNL     1      -0.071  12.879  21.303  0.00  0.00    +0.000 C 
ATOM     21  C   UNL     1       1.178  13.664  21.192  0.00  0.00    +0.000 C 
ATOM     22  O   UNL     1       2.307  13.270  21.408  0.00  0.00    +0.000 OA
ATOM     23  N   UNL     1       0.834  14.910  20.798  0.00  0.00    +0.000 N 
ATOM     24  C   UNL     1      -0.503  15.006  20.620  0.00  0.00    +0.000 C 
ATOM     25  O   UNL     1      -1.103  15.996  20.242  0.00  0.00    +0.000 OA
ATOM     26  H   UNL     1       1.487  15.653  20.623  0.00  0.00    +0.000 HD
BRANCH  20  27
ATOM     27  C   UNL     1      -0.113  11.508  21.667  0.00  0.00    +0.000 A 
ATOM     28  C   UNL     1      -0.687  10.983  22.851  0.00  0.00    +0.000 A 
ATOM     29  C   UNL     1      -0.466   9.621  22.835  0.00  0.00    +0.000 A 
ATOM     30  N   UNL     1       0.210   9.298  21.688  0.00  0.00    +0.000 N 
ATOM     31  N   UNL     1       0.597   8.033  21.367  0.00  0.00    +0.000 NA
ATOM     32  C   UNL     1       1.228   7.974  20.239  0.00  0.00    +0.000 A 
ATOM     33  C   UNL     1       1.525   9.109  19.335  0.00  0.00    +0.000 A 
ATOM     34  C   UNL     1       1.107  10.323  19.714  0.00  0.00    +0.000 A 
ATOM     35  C   UNL     1       0.426  10.453  20.951  0.00  0.00    +0.000 A 
ENDBRANCH  20  27
ENDBRANCH  11  19
TORSDOF 2
ENDMDL
