MODEL 1
REMARK VINA RESULT:      -9.9      0.000      0.000
REMARK  Name = 
REMARK  2 active torsions:
REMARK  status: ('A' for Active; 'I' for Inactive)
REMARK    1  A    between atoms: S_2  and  C_4
REMARK    2  A    between atoms: S_2  and  N_12
REMARK                            x       y       z     vdW  Elec       q    Type
REMARK                         _______ _______ _______ _____ _____    ______ ____
ROOT
ATOM      1  N   UNL     1       4.638   5.587  17.339  0.00  0.00    +0.000 N 
ATOM      2  C   UNL     1       4.613   6.734  16.592  0.00  0.00    +0.000 A 
ATOM      3  C   UNL     1       3.820   7.630  17.255  0.00  0.00    +0.000 A 
ATOM      4  C   UNL     1       3.199   6.956  18.356  0.00  0.00    +0.000 A 
ATOM      5  C   UNL     1       2.236   7.380  19.314  0.00  0.00    +0.000 A 
ATOM      6  N   UNL     1       1.599   8.601  19.290  0.00  0.00    +0.000 N 
ATOM      7  C   UNL     1       1.257   9.299  18.055  0.00  0.00    +0.000 C 
ATOM      8  C   UNL     1      -0.192   9.827  18.110  0.00  0.00    +0.000 C 
ATOM      9  N   UNL     1      -0.471  10.651  19.299  0.00  0.00    +0.000 NA
ATOM     10  C   UNL     1      -0.151   9.866  20.512  0.00  0.00    +0.000 C 
ATOM     11  C   UNL     1       1.288   9.303  20.537  0.00  0.00    +0.000 C 
ATOM     12  N   UNL     1       1.895   6.507  20.295  0.00  0.00    +0.000 NA
ATOM     13  C   UNL     1       2.350   5.250  20.320  0.00  0.00    +0.000 A 
ATOM     14  C   UNL     1       1.866   4.421  21.329  0.00  0.00    +0.000 A 
ATOM     15  C   UNL     1       2.252   3.084  21.446  0.00  0.00    +0.000 A 
ATOM     16  C   UNL     1       3.139   2.550  20.530  0.00  0.00    +0.000 A 
ATOM     17  C   UNL     1       3.628   3.351  19.498  0.00  0.00    +0.000 A 
ATOM     18  C   UNL     1       3.262   4.716  19.384  0.00  0.00    +0.000 A 
ATOM     19  C   UNL     1       3.722   5.643  18.390  0.00  0.00    +0.000 A 
ATOM     20  H   UNL     1      -1.464  10.883  19.312  0.00  0.00    +0.000 HD
ENDROOT
BRANCH   1  22
ATOM     21  O   UNL     1       4.651   3.112  16.967  0.00  0.00    +0.000 OA
ATOM     22  S   UNL     1       5.561   4.235  16.866  0.00  0.00    +0.000 S 
ATOM     23  O   UNL     1       6.800   4.316  17.619  0.00  0.00    +0.000 OA
BRANCH  22  24
ATOM     24  C   UNL     1       6.039   4.437  15.171  0.00  0.00    +0.000 A 
ATOM     25  C   UNL     1       7.242   5.099  14.881  0.00  0.00    +0.000 A 
ATOM     26  C   UNL     1       7.730   5.101  13.573  0.00  0.00    +0.000 A 
ATOM     27  C   UNL     1       7.020   4.438  12.575  0.00  0.00    +0.000 A 
ATOM     28  F   UNL     1       7.513   4.410  11.329  0.00  0.00    +0.000 F 
ATOM     29  C   UNL     1       5.823   3.791  12.869  0.00  0.00    +0.000 A 
ATOM     30  F   UNL     1       5.158   3.139  11.906  0.00  0.00    +0.000 F 
ATOM     31  C   UNL     1       5.319   3.785  14.166  0.00  0.00    +0.000 A 
ENDBRANCH  22  24
ENDBRANCH   1  22
TORSDOF 2
ENDMDL
MODEL 2
REMARK VINA RESULT:      -9.1      0.593      1.279
REMARK  Name = 
REMARK  2 active torsions:
REMARK  status: ('A' for Active; 'I' for Inactive)
REMARK    1  A    between atoms: S_2  and  C_4
REMARK    2  A    between atoms: S_2  and  N_12
REMARK                            x       y       z     vdW  Elec       q    Type
REMARK                         _______ _______ _______ _____ _____    ______ ____
ROOT
ATOM      1  N   UNL     1       4.802   5.394  17.354  0.00  0.00    +0.000 N 
ATOM      2  C   UNL     1       4.808   6.495  16.539  0.00  0.00    +0.000 A 
ATOM      3  C   UNL     1       4.003   7.434  17.125  0.00  0.00    +0.000 A 
ATOM      4  C   UNL     1       3.343   6.831  18.244  0.00  0.00    +0.000 A 
ATOM      5  C   UNL     1       2.357   7.317  19.146  0.00  0.00    +0.000 A 
ATOM      6  N   UNL     1       1.730   8.538  19.030  0.00  0.00    +0.000 N 
ATOM      7  C   UNL     1       1.431   9.164  17.746  0.00  0.00    +0.000 C 
ATOM      8  C   UNL     1      -0.015   9.703  17.727  0.00  0.00    +0.000 C 
ATOM      9  N   UNL     1      -0.322  10.598  18.856  0.00  0.00    +0.000 NA
ATOM     10  C   UNL     1      -0.045   9.885  20.122  0.00  0.00    +0.000 C 
ATOM     11  C   UNL     1       1.389   9.315  20.224  0.00  0.00    +0.000 C 
ATOM     12  N   UNL     1       1.979   6.505  20.166  0.00  0.00    +0.000 NA
ATOM     13  C   UNL     1       2.423   5.249  20.279  0.00  0.00    +0.000 A 
ATOM     14  C   UNL     1       1.903   4.485  21.320  0.00  0.00    +0.000 A 
ATOM     15  C   UNL     1       2.273   3.155  21.528  0.00  0.00    +0.000 A 
ATOM     16  C   UNL     1       3.183   2.562  20.672  0.00  0.00    +0.000 A 
ATOM     17  C   UNL     1       3.709   3.296  19.610  0.00  0.00    +0.000 A 
ATOM     18  C   UNL     1       3.358   4.655  19.404  0.00  0.00    +0.000 A 
ATOM     19  C   UNL     1       3.855   5.518  18.371  0.00  0.00    +0.000 A 
ATOM     20  H   UNL     1      -1.314  10.837  18.825  0.00  0.00    +0.000 HD
ENDROOT
BRANCH   1  22
ATOM     21  O   UNL     1       4.796   2.905  17.093  0.00  0.00    +0.000 OA
ATOM     22  S   UNL     1       5.727   4.011  16.989  0.00  0.00    +0.000 S 
ATOM     23  O   UNL     1       6.927   4.109  17.801  0.00  0.00    +0.000 OA
BRANCH  22  24
ATOM     24  C   UNL     1       6.293   4.130  15.314  0.00  0.00    +0.000 A 
ATOM     25  C   UNL     1       5.503   3.584  14.291  0.00  0.00    +0.000 A 
ATOM     26  C   UNL     1       5.832   3.833  12.957  0.00  0.00    +0.000 A 
ATOM     27  C   UNL     1       6.936   4.628  12.660  0.00  0.00    +0.000 A 
ATOM     28  F   UNL     1       7.224   4.896  11.380  0.00  0.00    +0.000 F 
ATOM     29  C   UNL     1       7.721   5.159  13.680  0.00  0.00    +0.000 A 
ATOM     30  F   UNL     1       8.769   5.939  13.384  0.00  0.00    +0.000 F 
ATOM     31  C   UNL     1       7.410   4.916  15.015  0.00  0.00    +0.000 A 
ENDBRANCH  22  24
ENDBRANCH   1  22
TORSDOF 2
ENDMDL
MODEL 3
REMARK VINA RESULT:      -8.2      4.313      7.710
REMARK  Name = 
REMARK  2 active torsions:
REMARK  status: ('A' for Active; 'I' for Inactive)
REMARK    1  A    between atoms: S_2  and  C_4
REMARK    2  A    between atoms: S_2  and  N_12
REMARK                            x       y       z     vdW  Elec       q    Type
REMARK                         _______ _______ _______ _____ _____    ______ ____
ROOT
ATOM      1  N   UNL     1       2.032   7.646  19.521  0.00  0.00    +0.000 N 
ATOM      2  C   UNL     1       2.505   8.550  18.607  0.00  0.00    +0.000 A 
ATOM      3  C   UNL     1       3.234   7.849  17.686  0.00  0.00    +0.000 A 
ATOM      4  C   UNL     1       3.359   6.497  18.142  0.00  0.00    +0.000 A 
ATOM      5  C   UNL     1       4.066   5.377  17.623  0.00  0.00    +0.000 A 
ATOM      6  N   UNL     1       4.916   5.425  16.540  0.00  0.00    +0.000 N 
ATOM      7  C   UNL     1       5.735   6.590  16.219  0.00  0.00    +0.000 C 
ATOM      8  C   UNL     1       7.181   6.164  15.887  0.00  0.00    +0.000 C 
ATOM      9  N   UNL     1       7.262   5.132  14.839  0.00  0.00    +0.000 NA
ATOM     10  C   UNL     1       6.453   3.965  15.251  0.00  0.00    +0.000 C 
ATOM     11  C   UNL     1       4.985   4.306  15.598  0.00  0.00    +0.000 C 
ATOM     12  N   UNL     1       3.924   4.189  18.264  0.00  0.00    +0.000 NA
ATOM     13  C   UNL     1       3.238   4.072  19.406  0.00  0.00    +0.000 A 
ATOM     14  C   UNL     1       3.230   2.821  20.015  0.00  0.00    +0.000 A 
ATOM     15  C   UNL     1       2.566   2.581  21.219  0.00  0.00    +0.000 A 
ATOM     16  C   UNL     1       1.894   3.616  21.843  0.00  0.00    +0.000 A 
ATOM     17  C   UNL     1       1.898   4.885  21.266  0.00  0.00    +0.000 A 
ATOM     18  C   UNL     1       2.549   5.135  20.030  0.00  0.00    +0.000 A 
ATOM     19  C   UNL     1       2.595   6.384  19.326  0.00  0.00    +0.000 A 
ATOM     20  H   UNL     1       8.234   4.838  14.742  0.00  0.00    +0.000 HD
ENDROOT
BRANCH   1  22
ATOM     21  O   UNL     1       1.936   8.288  21.937  0.00  0.00    +0.000 OA
ATOM     22  S   UNL     1       1.034   8.126  20.815  0.00  0.00    +0.000 S 
ATOM     23  O   UNL     1      -0.078   7.193  20.827  0.00  0.00    +0.000 OA
BRANCH  22  24
ATOM     24  C   UNL     1       0.313   9.697  20.426  0.00  0.00    +0.000 A 
ATOM     25  C   UNL     1       0.843  10.852  21.023  0.00  0.00    +0.000 A 
ATOM     26  C   UNL     1       0.419  12.109  20.588  0.00  0.00    +0.000 A 
ATOM     27  C   UNL     1      -0.517  12.200  19.560  0.00  0.00    +0.000 A 
ATOM     28  F   UNL     1      -0.890  13.410  19.120  0.00  0.00    +0.000 F 
ATOM     29  C   UNL     1      -1.044  11.051  18.979  0.00  0.00    +0.000 A 
ATOM     30  F   UNL     1      -1.928  11.149  17.978  0.00  0.00    +0.000 F 
ATOM     31  C   UNL     1      -0.638   9.790  19.405  0.00  0.00    +0.000 A 
ENDBRANCH  22  24
ENDBRANCH   1  22
TORSDOF 2
ENDMDL
MODEL 4
REMARK VINA RESULT:      -8.2      4.721      8.038
REMARK  Name = 
REMARK  2 active torsions:
REMARK  status: ('A' for Active; 'I' for Inactive)
REMARK    1  A    between atoms: S_2  and  C_4
REMARK    2  A    between atoms: S_2  and  N_12
REMARK                            x       y       z     vdW  Elec       q    Type
REMARK                         _______ _______ _______ _____ _____    ______ ____
ROOT
ATOM      1  N   UNL     1       2.035   7.637  19.519  0.00  0.00    +0.000 N 
ATOM      2  C   UNL     1       2.501   8.541  18.602  0.00  0.00    +0.000 A 
ATOM      3  C   UNL     1       3.230   7.842  17.679  0.00  0.00    +0.000 A 
ATOM      4  C   UNL     1       3.362   6.491  18.137  0.00  0.00    +0.000 A 
ATOM      5  C   UNL     1       4.071   5.372  17.618  0.00  0.00    +0.000 A 
ATOM      6  N   UNL     1       4.917   5.423  16.532  0.00  0.00    +0.000 N 
ATOM      7  C   UNL     1       5.731   6.590  16.206  0.00  0.00    +0.000 C 
ATOM      8  C   UNL     1       7.177   6.169  15.869  0.00  0.00    +0.000 C 
ATOM      9  N   UNL     1       7.259   5.136  14.822  0.00  0.00    +0.000 NA
ATOM     10  C   UNL     1       6.455   3.966  15.239  0.00  0.00    +0.000 C 
ATOM     11  C   UNL     1       4.987   4.302  15.591  0.00  0.00    +0.000 C 
ATOM     12  N   UNL     1       3.937   4.185  18.261  0.00  0.00    +0.000 NA
ATOM     13  C   UNL     1       3.255   4.068  19.405  0.00  0.00    +0.000 A 
ATOM     14  C   UNL     1       3.254   2.817  20.016  0.00  0.00    +0.000 A 
ATOM     15  C   UNL     1       2.595   2.576  21.224  0.00  0.00    +0.000 A 
ATOM     16  C   UNL     1       1.922   3.610  21.848  0.00  0.00    +0.000 A 
ATOM     17  C   UNL     1       1.919   4.878  21.269  0.00  0.00    +0.000 A 
ATOM     18  C   UNL     1       2.564   5.128  20.031  0.00  0.00    +0.000 A 
ATOM     19  C   UNL     1       2.603   6.377  19.324  0.00  0.00    +0.000 A 
ATOM     20  H   UNL     1       8.231   4.845  14.723  0.00  0.00    +0.000 HD
ENDROOT
BRANCH   1  22
ATOM     21  O   UNL     1       1.941   8.251  21.943  0.00  0.00    +0.000 OA
ATOM     22  S   UNL     1       1.040   8.115  20.816  0.00  0.00    +0.000 S 
ATOM     23  O   UNL     1      -0.085   7.197  20.814  0.00  0.00    +0.000 OA
BRANCH  22  24
ATOM     24  C   UNL     1       0.342   9.700  20.444  0.00  0.00    +0.000 A 
ATOM     25  C   UNL     1      -0.597   9.800  19.405  0.00  0.00    +0.000 A 
ATOM     26  C   UNL     1      -1.298  10.994  19.222  0.00  0.00    +0.000 A 
ATOM     27  C   UNL     1      -1.062  12.067  20.078  0.00  0.00    +0.000 A 
ATOM     28  F   UNL     1      -1.766  13.195  19.921  0.00  0.00    +0.000 F 
ATOM     29  C   UNL     1      -0.124  11.963  21.100  0.00  0.00    +0.000 A 
ATOM     30  F   UNL     1       0.081  12.993  21.931  0.00  0.00    +0.000 F 
ATOM     31  C   UNL     1       0.588  10.783  21.294  0.00  0.00    +0.000 A 
ENDBRANCH  22  24
ENDBRANCH   1  22
TORSDOF 2
ENDMDL
MODEL 5
REMARK VINA RESULT:      -8.1      6.416      9.626
REMARK  Name = 
REMARK  2 active torsions:
REMARK  status: ('A' for Active; 'I' for Inactive)
REMARK    1  A    between atoms: S_2  and  C_4
REMARK    2  A    between atoms: S_2  and  N_12
REMARK                            x       y       z     vdW  Elec       q    Type
REMARK                         _______ _______ _______ _____ _____    ______ ____
ROOT
ATOM      1  N   UNL     1      -0.888  12.833  20.303  0.00  0.00    +0.000 N 
ATOM      2  C   UNL     1      -0.992  13.539  21.473  0.00  0.00    +0.000 A 
ATOM      3  C   UNL     1      -2.309  13.516  21.841  0.00  0.00    +0.000 A 
ATOM      4  C   UNL     1      -3.067  12.928  20.778  0.00  0.00    +0.000 A 
ATOM      5  C   UNL     1      -4.464  12.729  20.599  0.00  0.00    +0.000 A 
ATOM      6  N   UNL     1      -5.434  13.202  21.455  0.00  0.00    +0.000 N 
ATOM      7  C   UNL     1      -5.307  14.455  22.192  0.00  0.00    +0.000 C 
ATOM      8  C   UNL     1      -6.608  15.279  22.094  0.00  0.00    +0.000 C 
ATOM      9  N   UNL     1      -7.811  14.528  22.495  0.00  0.00    +0.000 NA
ATOM     10  C   UNL     1      -7.904  13.300  21.675  0.00  0.00    +0.000 C 
ATOM     11  C   UNL     1      -6.639  12.412  21.723  0.00  0.00    +0.000 C 
ATOM     12  N   UNL     1      -4.870  12.064  19.488  0.00  0.00    +0.000 NA
ATOM     13  C   UNL     1      -4.016  11.692  18.528  0.00  0.00    +0.000 A 
ATOM     14  C   UNL     1      -4.558  11.089  17.397  0.00  0.00    +0.000 A 
ATOM     15  C   UNL     1      -3.771  10.678  16.319  0.00  0.00    +0.000 A 
ATOM     16  C   UNL     1      -2.404  10.877  16.363  0.00  0.00    +0.000 A 
ATOM     17  C   UNL     1      -1.833  11.494  17.475  0.00  0.00    +0.000 A 
ATOM     18  C   UNL     1      -2.620  11.894  18.585  0.00  0.00    +0.000 A 
ATOM     19  C   UNL     1      -2.145  12.507  19.792  0.00  0.00    +0.000 A 
ATOM     20  H   UNL     1      -8.633  15.104  22.315  0.00  0.00    +0.000 HD
ENDROOT
BRANCH   1  22
ATOM     21  O   UNL     1       1.587  13.171  20.443  0.00  0.00    +0.000 OA
ATOM     22  S   UNL     1       0.615  12.594  19.537  0.00  0.00    +0.000 S 
ATOM     23  O   UNL     1       0.442  13.051  18.170  0.00  0.00    +0.000 OA
BRANCH  22  24
ATOM     24  C   UNL     1       0.915  10.853  19.405  0.00  0.00    +0.000 A 
ATOM     25  C   UNL     1       1.510  10.355  18.235  0.00  0.00    +0.000 A 
ATOM     26  C   UNL     1       1.929   9.023  18.187  0.00  0.00    +0.000 A 
ATOM     27  C   UNL     1       1.759   8.210  19.305  0.00  0.00    +0.000 A 
ATOM     28  F   UNL     1       2.198   6.945  19.266  0.00  0.00    +0.000 F 
ATOM     29  C   UNL     1       1.160   8.708  20.458  0.00  0.00    +0.000 A 
ATOM     30  F   UNL     1       1.019   7.923  21.534  0.00  0.00    +0.000 F 
ATOM     31  C   UNL     1       0.731  10.031  20.521  0.00  0.00    +0.000 A 
ENDBRANCH  22  24
ENDBRANCH   1  22
TORSDOF 2
ENDMDL
MODEL 6
REMARK VINA RESULT:      -8.1      6.340      9.549
REMARK  Name = 
REMARK  2 active torsions:
REMARK  status: ('A' for Active; 'I' for Inactive)
REMARK    1  A    between atoms: S_2  and  C_4
REMARK    2  A    between atoms: S_2  and  N_12
REMARK                            x       y       z     vdW  Elec       q    Type
REMARK                         _______ _______ _______ _____ _____    ______ ____
ROOT
ATOM      1  N   UNL     1      -0.221  12.949  20.742  0.00  0.00    +0.000 N 
ATOM      2  C   UNL     1      -0.057  13.592  21.941  0.00  0.00    +0.000 A 
ATOM      3  C   UNL     1      -1.286  13.650  22.539  0.00  0.00    +0.000 A 
ATOM      4  C   UNL     1      -2.267  13.185  21.604  0.00  0.00    +0.000 A 
ATOM      5  C   UNL     1      -3.685  13.105  21.670  0.00  0.00    +0.000 A 
ATOM      6  N   UNL     1      -4.446  13.602  22.706  0.00  0.00    +0.000 N 
ATOM      7  C   UNL     1      -4.084  14.796  23.462  0.00  0.00    +0.000 C 
ATOM      8  C   UNL     1      -5.305  15.723  23.634  0.00  0.00    +0.000 C 
ATOM      9  N   UNL     1      -6.479  15.046  24.212  0.00  0.00    +0.000 NA
ATOM     10  C   UNL     1      -6.821  13.878  23.370  0.00  0.00    +0.000 C 
ATOM     11  C   UNL     1      -5.648  12.894  23.151  0.00  0.00    +0.000 C 
ATOM     12  N   UNL     1      -4.335  12.539  20.622  0.00  0.00    +0.000 NA
ATOM     13  C   UNL     1      -3.698  12.159  19.509  0.00  0.00    +0.000 A 
ATOM     14  C   UNL     1      -4.481  11.665  18.469  0.00  0.00    +0.000 A 
ATOM     15  C   UNL     1      -3.933  11.257  17.251  0.00  0.00    +0.000 A 
ATOM     16  C   UNL     1      -2.567  11.347  17.057  0.00  0.00    +0.000 A 
ATOM     17  C   UNL     1      -1.759  11.853  18.075  0.00  0.00    +0.000 A 
ATOM     18  C   UNL     1      -2.302  12.248  19.324  0.00  0.00    +0.000 A 
ATOM     19  C   UNL     1      -1.572  12.751  20.452  0.00  0.00    +0.000 A 
ATOM     20  H   UNL     1      -7.267  15.693  24.207  0.00  0.00    +0.000 HD
ENDROOT
BRANCH   1  22
ATOM     21  O   UNL     1       2.262  13.072  20.455  0.00  0.00    +0.000 OA
ATOM     22  S   UNL     1       1.098  12.639  19.709  0.00  0.00    +0.000 S 
ATOM     23  O   UNL     1       0.734  13.199  18.420  0.00  0.00    +0.000 OA
BRANCH  22  24
ATOM     24  C   UNL     1       1.208  10.891  19.437  0.00  0.00    +0.000 A 
ATOM     25  C   UNL     1       1.702  10.427  18.207  0.00  0.00    +0.000 A 
ATOM     26  C   UNL     1       1.976   9.068  18.043  0.00  0.00    +0.000 A 
ATOM     27  C   UNL     1       1.765   8.192  19.106  0.00  0.00    +0.000 A 
ATOM     28  F   UNL     1       2.067   6.896  18.955  0.00  0.00    +0.000 F 
ATOM     29  C   UNL     1       1.267   8.658  20.319  0.00  0.00    +0.000 A 
ATOM     30  F   UNL     1       1.087   7.811  21.341  0.00  0.00    +0.000 F 
ATOM     31  C   UNL     1       0.983  10.009  20.498  0.00  0.00    +0.000 A 
ENDBRANCH  22  24
ENDBRANCH   1  22
TORSDOF 2
ENDMDL
MODEL 7
REMARK VINA RESULT:      -7.8      7.643     11.946
REMARK  Name = 
REMARK  2 active torsions:
REMARK  status: ('A' for Active; 'I' for Inactive)
REMARK    1  A    between atoms: S_2  and  C_4
REMARK    2  A    between atoms: S_2  and  N_12
REMARK                            x       y       z     vdW  Elec       q    Type
REMARK                         _______ _______ _______ _____ _____    ______ ____
ROOT
ATOM      1  N   UNL     1      -2.010  12.291  21.184  0.00  0.00    +0.000 N 
ATOM      2  C   UNL     1      -1.021  12.000  22.086  0.00  0.00    +0.000 A 
ATOM      3  C   UNL     1      -0.089  11.242  21.431  0.00  0.00    +0.000 A 
ATOM      4  C   UNL     1      -0.604  10.910  20.137  0.00  0.00    +0.000 A 
ATOM      5  C   UNL     1      -0.096  10.094  19.088  0.00  0.00    +0.000 A 
ATOM      6  N   UNL     1       1.044   9.326  19.182  0.00  0.00    +0.000 N 
ATOM      7  C   UNL     1       1.479   8.690  20.421  0.00  0.00    +0.000 C 
ATOM      8  C   UNL     1       1.887   7.224  20.167  0.00  0.00    +0.000 C 
ATOM      9  N   UNL     1       2.886   7.070  19.094  0.00  0.00    +0.000 NA
ATOM     10  C   UNL     1       2.360   7.691  17.858  0.00  0.00    +0.000 C 
ATOM     11  C   UNL     1       1.931   9.166  18.027  0.00  0.00    +0.000 C 
ATOM     12  N   UNL     1      -0.804  10.037  17.932  0.00  0.00    +0.000 NA
ATOM     13  C   UNL     1      -1.995  10.630  17.796  0.00  0.00    +0.000 A 
ATOM     14  C   UNL     1      -2.666  10.434  16.592  0.00  0.00    +0.000 A 
ATOM     15  C   UNL     1      -3.924  10.985  16.340  0.00  0.00    +0.000 A 
ATOM     16  C   UNL     1      -4.538  11.749  17.315  0.00  0.00    +0.000 A 
ATOM     17  C   UNL     1      -3.898  11.949  18.538  0.00  0.00    +0.000 A 
ATOM     18  C   UNL     1      -2.610  11.415  18.796  0.00  0.00    +0.000 A 
ATOM     19  C   UNL     1      -1.842  11.578  19.996  0.00  0.00    +0.000 A 
ATOM     20  H   UNL     1       3.033   6.075  18.923  0.00  0.00    +0.000 HD
ENDROOT
BRANCH   1  22
ATOM     21  O   UNL     1      -4.389  12.323  21.960  0.00  0.00    +0.000 OA
ATOM     22  S   UNL     1      -3.344  13.263  21.607  0.00  0.00    +0.000 S 
ATOM     23  O   UNL     1      -3.485  14.233  20.536  0.00  0.00    +0.000 OA
BRANCH  22  24
ATOM     24  C   UNL     1      -2.922  14.217  23.039  0.00  0.00    +0.000 A 
ATOM     25  C   UNL     1      -3.520  13.896  24.267  0.00  0.00    +0.000 A 
ATOM     26  C   UNL     1      -3.062  14.505  25.438  0.00  0.00    +0.000 A 
ATOM     27  C   UNL     1      -2.011  15.417  25.371  0.00  0.00    +0.000 A 
ATOM     28  F   UNL     1      -1.550  15.968  26.501  0.00  0.00    +0.000 F 
ATOM     29  C   UNL     1      -1.429  15.737  24.148  0.00  0.00    +0.000 A 
ATOM     30  F   UNL     1      -0.406  16.600  24.096  0.00  0.00    +0.000 F 
ATOM     31  C   UNL     1      -1.877  15.144  22.971  0.00  0.00    +0.000 A 
ENDBRANCH  22  24
ENDBRANCH   1  22
TORSDOF 2
ENDMDL
MODEL 8
REMARK VINA RESULT:      -7.6      7.821     12.065
REMARK  Name = 
REMARK  2 active torsions:
REMARK  status: ('A' for Active; 'I' for Inactive)
REMARK    1  A    between atoms: S_2  and  C_4
REMARK    2  A    between atoms: S_2  and  N_12
REMARK                            x       y       z     vdW  Elec       q    Type
REMARK                         _______ _______ _______ _____ _____    ______ ____
ROOT
ATOM      1  N   UNL     1      -2.027  12.297  21.054  0.00  0.00    +0.000 N 
ATOM      2  C   UNL     1      -1.023  12.042  21.951  0.00  0.00    +0.000 A 
ATOM      3  C   UNL     1      -0.085  11.287  21.302  0.00  0.00    +0.000 A 
ATOM      4  C   UNL     1      -0.608  10.919  20.020  0.00  0.00    +0.000 A 
ATOM      5  C   UNL     1      -0.097  10.090  18.983  0.00  0.00    +0.000 A 
ATOM      6  N   UNL     1       1.058   9.344  19.080  0.00  0.00    +0.000 N 
ATOM      7  C   UNL     1       1.518   8.743  20.327  0.00  0.00    +0.000 C 
ATOM      8  C   UNL     1       1.950   7.279  20.099  0.00  0.00    +0.000 C 
ATOM      9  N   UNL     1       2.938   7.120  19.018  0.00  0.00    +0.000 NA
ATOM     10  C   UNL     1       2.388   7.705  17.776  0.00  0.00    +0.000 C 
ATOM     11  C   UNL     1       1.934   9.176  17.919  0.00  0.00    +0.000 C 
ATOM     12  N   UNL     1      -0.817   9.995  17.837  0.00  0.00    +0.000 NA
ATOM     13  C   UNL     1      -2.020  10.565  17.702  0.00  0.00    +0.000 A 
ATOM     14  C   UNL     1      -2.700  10.332  16.511  0.00  0.00    +0.000 A 
ATOM     15  C   UNL     1      -3.971  10.855  16.262  0.00  0.00    +0.000 A 
ATOM     16  C   UNL     1      -4.588  11.628  17.228  0.00  0.00    +0.000 A 
ATOM     17  C   UNL     1      -3.938  11.865  18.438  0.00  0.00    +0.000 A 
ATOM     18  C   UNL     1      -2.638  11.359  18.692  0.00  0.00    +0.000 A 
ATOM     19  C   UNL     1      -1.859  11.562  19.880  0.00  0.00    +0.000 A 
ATOM     20  H   UNL     1       3.102   6.125  18.866  0.00  0.00    +0.000 HD
ENDROOT
BRANCH   1  22
ATOM     21  O   UNL     1      -4.357  12.312  21.965  0.00  0.00    +0.000 OA
ATOM     22  S   UNL     1      -3.373  13.254  21.472  0.00  0.00    +0.000 S 
ATOM     23  O   UNL     1      -3.614  14.121  20.333  0.00  0.00    +0.000 OA
BRANCH  22  24
ATOM     24  C   UNL     1      -2.910  14.344  22.790  0.00  0.00    +0.000 A 
ATOM     25  C   UNL     1      -2.614  15.682  22.489  0.00  0.00    +0.000 A 
ATOM     26  C   UNL     1      -2.435  16.599  23.528  0.00  0.00    +0.000 A 
ATOM     27  C   UNL     1      -2.562  16.174  24.848  0.00  0.00    +0.000 A 
ATOM     28  F   UNL     1      -2.428  17.066  25.838  0.00  0.00    +0.000 F 
ATOM     29  C   UNL     1      -2.847  14.843  25.138  0.00  0.00    +0.000 A 
ATOM     30  F   UNL     1      -2.988  14.448  26.411  0.00  0.00    +0.000 F 
ATOM     31  C   UNL     1      -3.023  13.915  24.116  0.00  0.00    +0.000 A 
ENDBRANCH  22  24
ENDBRANCH   1  22
TORSDOF 2
ENDMDL
MODEL 9
REMARK VINA RESULT:      -7.5      6.527      9.730
REMARK  Name = 
REMARK  2 active torsions:
REMARK  status: ('A' for Active; 'I' for Inactive)
REMARK    1  A    between atoms: S_2  and  C_4
REMARK    2  A    between atoms: S_2  and  N_12
REMARK                            x       y       z     vdW  Elec       q    Type
REMARK                         _______ _______ _______ _____ _____    ______ ____
ROOT
ATOM      1  N   UNL     1      -0.861  12.631  20.913  0.00  0.00    +0.000 N 
ATOM      2  C   UNL     1      -1.003  13.239  22.133  0.00  0.00    +0.000 A 
ATOM      3  C   UNL     1      -2.341  13.267  22.416  0.00  0.00    +0.000 A 
ATOM      4  C   UNL     1      -3.058  12.822  21.259  0.00  0.00    +0.000 A 
ATOM      5  C   UNL     1      -4.449  12.728  20.976  0.00  0.00    +0.000 A 
ATOM      6  N   UNL     1      -5.446  13.185  21.810  0.00  0.00    +0.000 N 
ATOM      7  C   UNL     1      -5.297  14.359  22.664  0.00  0.00    +0.000 C 
ATOM      8  C   UNL     1      -6.539  15.269  22.560  0.00  0.00    +0.000 C 
ATOM      9  N   UNL     1      -7.807  14.564  22.817  0.00  0.00    +0.000 NA
ATOM     10  C   UNL     1      -7.915  13.419  21.886  0.00  0.00    +0.000 C 
ATOM     11  C   UNL     1      -6.709  12.453  21.931  0.00  0.00    +0.000 C 
ATOM     12  N   UNL     1      -4.817  12.188  19.787  0.00  0.00    +0.000 NA
ATOM     13  C   UNL     1      -3.923  11.848  18.852  0.00  0.00    +0.000 A 
ATOM     14  C   UNL     1      -4.423  11.379  17.640  0.00  0.00    +0.000 A 
ATOM     15  C   UNL     1      -3.590  11.014  16.581  0.00  0.00    +0.000 A 
ATOM     16  C   UNL     1      -2.219  11.122  16.726  0.00  0.00    +0.000 A 
ATOM     17  C   UNL     1      -1.689  11.604  17.923  0.00  0.00    +0.000 A 
ATOM     18  C   UNL     1      -2.525  11.955  19.013  0.00  0.00    +0.000 A 
ATOM     19  C   UNL     1      -2.098  12.430  20.298  0.00  0.00    +0.000 A 
ATOM     20  H   UNL     1      -8.580  15.204  22.639  0.00  0.00    +0.000 HD
ENDROOT
BRANCH   1  22
ATOM     21  O   UNL     1       1.588  13.125  21.049  0.00  0.00    +0.000 OA
ATOM     22  S   UNL     1       0.673  12.364  20.223  0.00  0.00    +0.000 S 
ATOM     23  O   UNL     1       0.516  12.601  18.799  0.00  0.00    +0.000 OA
BRANCH  22  24
ATOM     24  C   UNL     1       1.069  10.643  20.362  0.00  0.00    +0.000 A 
ATOM     25  C   UNL     1       0.862   9.998  21.592  0.00  0.00    +0.000 A 
ATOM     26  C   UNL     1       0.984   8.609  21.671  0.00  0.00    +0.000 A 
ATOM     27  C   UNL     1       1.300   7.881  20.526  0.00  0.00    +0.000 A 
ATOM     28  F   UNL     1       1.377   6.546  20.600  0.00  0.00    +0.000 F 
ATOM     29  C   UNL     1       1.512   8.529  19.312  0.00  0.00    +0.000 A 
ATOM     30  F   UNL     1       1.796   7.819  18.213  0.00  0.00    +0.000 F 
ATOM     31  C   UNL     1       1.401   9.913  19.217  0.00  0.00    +0.000 A 
ENDBRANCH  22  24
ENDBRANCH   1  22
TORSDOF 2
ENDMDL
