MODEL 1
REMARK VINA RESULT:      -7.6      0.000      0.000
REMARK  Name = 
REMARK  4 active torsions:
REMARK  status: ('A' for Active; 'I' for Inactive)
REMARK    1  A    between atoms: C_2  and  C_14
REMARK    2  A    between atoms: N_3  and  C_4
REMARK    3  A    between atoms: C_7  and  C_8
REMARK    4  A    between atoms: C_14  and  C_15
REMARK                            x       y       z     vdW  Elec       q    Type
REMARK                         _______ _______ _______ _____ _____    ______ ____
ROOT
ATOM      1  O   UNL     1       1.758   4.725  17.684  0.00  0.00    +0.000 OA
ATOM      2  C   UNL     1       2.855   4.960  18.173  0.00  0.00    +0.000 C 
ATOM      3  N   UNL     1       3.294   6.150  18.712  0.00  0.00    +0.000 N 
ATOM      4  H   UNL     1       4.279   6.214  18.930  0.00  0.00    +0.000 HD
ENDROOT
BRANCH   3   5
ATOM      5  C   UNL     1       2.506   7.288  18.936  0.00  0.00    +0.000 A 
ATOM      6  C   UNL     1       1.930   7.584  20.173  0.00  0.00    +0.000 A 
ATOM      7  C   UNL     1       1.140   8.723  20.333  0.00  0.00    +0.000 A 
ATOM      8  C   UNL     1       0.907   9.583  19.254  0.00  0.00    +0.000 A 
ATOM      9  C   UNL     1       1.507   9.296  18.016  0.00  0.00    +0.000 A 
ATOM     10  C   UNL     1       2.314   8.169  17.868  0.00  0.00    +0.000 A 
BRANCH   8  11
ATOM     11  C   UNL     1       0.029  10.797  19.408  0.00  0.00    +0.000 C 
ATOM     12  F   UNL     1       0.087  11.364  20.645  0.00  0.00    +0.000 F 
ATOM     13  F   UNL     1       0.349  11.789  18.532  0.00  0.00    +0.000 F 
ATOM     14  F   UNL     1      -1.287  10.519  19.190  0.00  0.00    +0.000 F 
ENDBRANCH   8  11
ENDBRANCH   3   5
BRANCH   2  15
ATOM     15  C   UNL     1       3.886   3.858  18.237  0.00  0.00    +0.000 C 
ATOM     16  C   UNL     1       4.149   3.261  19.613  0.00  0.00    +0.000 C 
ATOM     17  C   UNL     1       3.438   2.443  18.583  0.00  0.00    +0.000 C 
BRANCH  15  18
ATOM     18  C   UNL     1       5.034   4.072  17.257  0.00  0.00    +0.000 A 
ATOM     19  C   UNL     1       6.313   4.423  17.726  0.00  0.00    +0.000 A 
ATOM     20  C   UNL     1       7.297   4.909  16.864  0.00  0.00    +0.000 A 
ATOM     21  C   UNL     1       7.032   5.027  15.504  0.00  0.00    +0.000 A 
ATOM     22  C   UNL     1       5.801   4.614  15.002  0.00  0.00    +0.000 A 
ATOM     23  C   UNL     1       4.817   4.135  15.868  0.00  0.00    +0.000 A 
ENDBRANCH  15  18
ENDBRANCH   2  15
TORSDOF 4
ENDMDL
MODEL 2
REMARK VINA RESULT:      -7.6      0.434      1.145
REMARK  Name = 
REMARK  4 active torsions:
REMARK  status: ('A' for Active; 'I' for Inactive)
REMARK    1  A    between atoms: C_2  and  C_14
REMARK    2  A    between atoms: N_3  and  C_4
REMARK    3  A    between atoms: C_7  and  C_8
REMARK    4  A    between atoms: C_14  and  C_15
REMARK                            x       y       z     vdW  Elec       q    Type
REMARK                         _______ _______ _______ _____ _____    ______ ____
ROOT
ATOM      1  O   UNL     1       1.709   4.758  17.656  0.00  0.00    +0.000 OA
ATOM      2  C   UNL     1       2.796   4.987  18.171  0.00  0.00    +0.000 C 
ATOM      3  N   UNL     1       3.236   6.180  18.703  0.00  0.00    +0.000 N 
ATOM      4  H   UNL     1       4.215   6.235  18.946  0.00  0.00    +0.000 HD
ENDROOT
BRANCH   3   5
ATOM      5  C   UNL     1       2.456   7.331  18.886  0.00  0.00    +0.000 A 
ATOM      6  C   UNL     1       2.171   8.230  17.856  0.00  0.00    +0.000 A 
ATOM      7  C   UNL     1       1.402   9.369  18.101  0.00  0.00    +0.000 A 
ATOM      8  C   UNL     1       0.912   9.632  19.384  0.00  0.00    +0.000 A 
ATOM      9  C   UNL     1       1.180   8.714  20.415  0.00  0.00    +0.000 A 
ATOM     10  C   UNL     1       1.929   7.566  20.159  0.00  0.00    +0.000 A 
BRANCH   8  11
ATOM     11  C   UNL     1       0.109  10.875  19.667  0.00  0.00    +0.000 C 
ATOM     12  F   UNL     1       0.870  11.959  19.985  0.00  0.00    +0.000 F 
ATOM     13  F   UNL     1      -0.655  11.258  18.608  0.00  0.00    +0.000 F 
ATOM     14  F   UNL     1      -0.754  10.711  20.708  0.00  0.00    +0.000 F 
ENDBRANCH   8  11
ENDBRANCH   3   5
BRANCH   2  15
ATOM     15  C   UNL     1       3.809   3.873  18.282  0.00  0.00    +0.000 C 
ATOM     16  C   UNL     1       4.021   3.291  19.673  0.00  0.00    +0.000 C 
ATOM     17  C   UNL     1       3.332   2.468  18.631  0.00  0.00    +0.000 C 
BRANCH  15  18
ATOM     18  C   UNL     1       4.990   4.060  17.336  0.00  0.00    +0.000 A 
ATOM     19  C   UNL     1       6.267   4.363  17.845  0.00  0.00    +0.000 A 
ATOM     20  C   UNL     1       7.290   4.827  17.016  0.00  0.00    +0.000 A 
ATOM     21  C   UNL     1       7.067   4.968  15.651  0.00  0.00    +0.000 A 
ATOM     22  C   UNL     1       5.838   4.601  15.110  0.00  0.00    +0.000 A 
ATOM     23  C   UNL     1       4.815   4.146  15.944  0.00  0.00    +0.000 A 
ENDBRANCH  15  18
ENDBRANCH   2  15
TORSDOF 4
ENDMDL
MODEL 3
REMARK VINA RESULT:      -7.6      0.278      1.311
REMARK  Name = 
REMARK  4 active torsions:
REMARK  status: ('A' for Active; 'I' for Inactive)
REMARK    1  A    between atoms: C_2  and  C_14
REMARK    2  A    between atoms: N_3  and  C_4
REMARK    3  A    between atoms: C_7  and  C_8
REMARK    4  A    between atoms: C_14  and  C_15
REMARK                            x       y       z     vdW  Elec       q    Type
REMARK                         _______ _______ _______ _____ _____    ______ ____
ROOT
ATOM      1  O   UNL     1       1.582   4.726  17.864  0.00  0.00    +0.000 OA
ATOM      2  C   UNL     1       2.736   5.026  18.139  0.00  0.00    +0.000 C 
ATOM      3  N   UNL     1       3.208   6.253  18.554  0.00  0.00    +0.000 N 
ATOM      4  H   UNL     1       4.211   6.365  18.588  0.00  0.00    +0.000 HD
ENDROOT
BRANCH   3   5
ATOM      5  C   UNL     1       2.419   7.365  18.880  0.00  0.00    +0.000 A 
ATOM      6  C   UNL     1       1.930   7.601  20.166  0.00  0.00    +0.000 A 
ATOM      7  C   UNL     1       1.135   8.718  20.429  0.00  0.00    +0.000 A 
ATOM      8  C   UNL     1       0.810   9.614  19.405  0.00  0.00    +0.000 A 
ATOM      9  C   UNL     1       1.323   9.388  18.116  0.00  0.00    +0.000 A 
ATOM     10  C   UNL     1       2.136   8.284  17.865  0.00  0.00    +0.000 A 
BRANCH   8  11
ATOM     11  C   UNL     1      -0.074  10.805  19.671  0.00  0.00    +0.000 C 
ATOM     12  F   UNL     1       0.274  11.916  18.964  0.00  0.00    +0.000 F 
ATOM     13  F   UNL     1      -1.379  10.567  19.366  0.00  0.00    +0.000 F 
ATOM     14  F   UNL     1      -0.061  11.181  20.980  0.00  0.00    +0.000 F 
ENDBRANCH   8  11
ENDBRANCH   3   5
BRANCH   2  15
ATOM     15  C   UNL     1       3.812   3.969  18.052  0.00  0.00    +0.000 C 
ATOM     16  C   UNL     1       4.063   3.157  19.315  0.00  0.00    +0.000 C 
ATOM     17  C   UNL     1       3.418   2.500  18.136  0.00  0.00    +0.000 C 
BRANCH  15  18
ATOM     18  C   UNL     1       4.977   4.393  17.163  0.00  0.00    +0.000 A 
ATOM     19  C   UNL     1       4.820   4.448  15.766  0.00  0.00    +0.000 A 
ATOM     20  C   UNL     1       5.921   4.540  14.913  0.00  0.00    +0.000 A 
ATOM     21  C   UNL     1       7.205   4.609  15.442  0.00  0.00    +0.000 A 
ATOM     22  C   UNL     1       7.384   4.633  16.822  0.00  0.00    +0.000 A 
ATOM     23  C   UNL     1       6.281   4.534  17.672  0.00  0.00    +0.000 A 
ENDBRANCH  15  18
ENDBRANCH   2  15
TORSDOF 4
ENDMDL
MODEL 4
REMARK VINA RESULT:      -7.5      0.475      1.743
REMARK  Name = 
REMARK  4 active torsions:
REMARK  status: ('A' for Active; 'I' for Inactive)
REMARK    1  A    between atoms: C_2  and  C_14
REMARK    2  A    between atoms: N_3  and  C_4
REMARK    3  A    between atoms: C_7  and  C_8
REMARK    4  A    between atoms: C_14  and  C_15
REMARK                            x       y       z     vdW  Elec       q    Type
REMARK                         _______ _______ _______ _____ _____    ______ ____
ROOT
ATOM      1  O   UNL     1       1.524   4.748  17.739  0.00  0.00    +0.000 OA
ATOM      2  C   UNL     1       2.691   5.020  17.990  0.00  0.00    +0.000 C 
ATOM      3  N   UNL     1       3.202   6.238  18.386  0.00  0.00    +0.000 N 
ATOM      4  H   UNL     1       4.208   6.325  18.400  0.00  0.00    +0.000 HD
ENDROOT
BRANCH   3   5
ATOM      5  C   UNL     1       2.447   7.371  18.721  0.00  0.00    +0.000 A 
ATOM      6  C   UNL     1       2.114   8.364  17.797  0.00  0.00    +0.000 A 
ATOM      7  C   UNL     1       1.373   9.479  18.192  0.00  0.00    +0.000 A 
ATOM      8  C   UNL     1       0.961   9.624  19.520  0.00  0.00    +0.000 A 
ATOM      9  C   UNL     1       1.277   8.612  20.443  0.00  0.00    +0.000 A 
ATOM     10  C   UNL     1       1.996   7.489  20.039  0.00  0.00    +0.000 A 
BRANCH   8  11
ATOM     11  C   UNL     1       0.190  10.840  19.963  0.00  0.00    +0.000 C 
ATOM     12  F   UNL     1       0.068  11.795  19.000  0.00  0.00    +0.000 F 
ATOM     13  F   UNL     1      -1.080  10.543  20.352  0.00  0.00    +0.000 F 
ATOM     14  F   UNL     1       0.768  11.463  21.028  0.00  0.00    +0.000 F 
ENDBRANCH   8  11
ENDBRANCH   3   5
BRANCH   2  15
ATOM     15  C   UNL     1       3.739   3.937  17.888  0.00  0.00    +0.000 C 
ATOM     16  C   UNL     1       3.915   3.052  19.114  0.00  0.00    +0.000 C 
ATOM     17  C   UNL     1       3.299   2.478  17.878  0.00  0.00    +0.000 C 
BRANCH  15  18
ATOM     18  C   UNL     1       4.950   4.370  17.068  0.00  0.00    +0.000 A 
ATOM     19  C   UNL     1       4.868   4.445  15.666  0.00  0.00    +0.000 A 
ATOM     20  C   UNL     1       6.013   4.546  14.873  0.00  0.00    +0.000 A 
ATOM     21  C   UNL     1       7.268   4.604  15.471  0.00  0.00    +0.000 A 
ATOM     22  C   UNL     1       7.372   4.609  16.859  0.00  0.00    +0.000 A 
ATOM     23  C   UNL     1       6.225   4.500  17.647  0.00  0.00    +0.000 A 
ENDBRANCH  15  18
ENDBRANCH   2  15
TORSDOF 4
ENDMDL
MODEL 5
REMARK VINA RESULT:      -7.4      1.369      2.048
REMARK  Name = 
REMARK  4 active torsions:
REMARK  status: ('A' for Active; 'I' for Inactive)
REMARK    1  A    between atoms: C_2  and  C_14
REMARK    2  A    between atoms: N_3  and  C_4
REMARK    3  A    between atoms: C_7  and  C_8
REMARK    4  A    between atoms: C_14  and  C_15
REMARK                            x       y       z     vdW  Elec       q    Type
REMARK                         _______ _______ _______ _____ _____    ______ ____
ROOT
ATOM      1  O   UNL     1       1.961   5.127  18.125  0.00  0.00    +0.000 OA
ATOM      2  C   UNL     1       3.015   5.740  18.013  0.00  0.00    +0.000 C 
ATOM      3  N   UNL     1       3.220   7.092  18.187  0.00  0.00    +0.000 N 
ATOM      4  H   UNL     1       4.120   7.454  17.903  0.00  0.00    +0.000 HD
ENDROOT
BRANCH   3   5
ATOM      5  C   UNL     1       2.276   8.007  18.673  0.00  0.00    +0.000 A 
ATOM      6  C   UNL     1       1.867   8.042  20.007  0.00  0.00    +0.000 A 
ATOM      7  C   UNL     1       0.910   8.966  20.432  0.00  0.00    +0.000 A 
ATOM      8  C   UNL     1       0.342   9.867  19.525  0.00  0.00    +0.000 A 
ATOM      9  C   UNL     1       0.773   9.846  18.187  0.00  0.00    +0.000 A 
ATOM     10  C   UNL     1       1.746   8.937  17.774  0.00  0.00    +0.000 A 
BRANCH   8  11
ATOM     11  C   UNL     1      -0.715  10.846  19.965  0.00  0.00    +0.000 C 
ATOM     12  F   UNL     1      -1.093  10.699  21.266  0.00  0.00    +0.000 F 
ATOM     13  F   UNL     1      -0.314  12.141  19.841  0.00  0.00    +0.000 F 
ATOM     14  F   UNL     1      -1.859  10.740  19.234  0.00  0.00    +0.000 F 
ENDBRANCH   8  11
ENDBRANCH   3   5
BRANCH   2  15
ATOM     15  C   UNL     1       4.274   4.983  17.661  0.00  0.00    +0.000 C 
ATOM     16  C   UNL     1       4.190   3.465  17.734  0.00  0.00    +0.000 C 
ATOM     17  C   UNL     1       4.299   4.130  16.399  0.00  0.00    +0.000 C 
BRANCH  15  18
ATOM     18  C   UNL     1       5.537   5.709  18.111  0.00  0.00    +0.000 A 
ATOM     19  C   UNL     1       6.125   6.688  17.288  0.00  0.00    +0.000 A 
ATOM     20  C   UNL     1       7.420   7.154  17.521  0.00  0.00    +0.000 A 
ATOM     21  C   UNL     1       8.146   6.671  18.605  0.00  0.00    +0.000 A 
ATOM     22  C   UNL     1       7.560   5.761  19.480  0.00  0.00    +0.000 A 
ATOM     23  C   UNL     1       6.268   5.291  19.238  0.00  0.00    +0.000 A 
ENDBRANCH  15  18
ENDBRANCH   2  15
TORSDOF 4
ENDMDL
MODEL 6
REMARK VINA RESULT:      -7.2      2.621      4.327
REMARK  Name = 
REMARK  4 active torsions:
REMARK  status: ('A' for Active; 'I' for Inactive)
REMARK    1  A    between atoms: C_2  and  C_14
REMARK    2  A    between atoms: N_3  and  C_4
REMARK    3  A    between atoms: C_7  and  C_8
REMARK    4  A    between atoms: C_14  and  C_15
REMARK                            x       y       z     vdW  Elec       q    Type
REMARK                         _______ _______ _______ _____ _____    ______ ____
ROOT
ATOM      1  O   UNL     1       2.036   8.198  18.175  0.00  0.00    +0.000 OA
ATOM      2  C   UNL     1       2.229   7.443  19.119  0.00  0.00    +0.000 C 
ATOM      3  N   UNL     1       1.857   7.630  20.432  0.00  0.00    +0.000 N 
ATOM      4  H   UNL     1       2.232   6.980  21.108  0.00  0.00    +0.000 HD
ENDROOT
BRANCH   3   5
ATOM      5  C   UNL     1       1.047   8.669  20.913  0.00  0.00    +0.000 A 
ATOM      6  C   UNL     1       0.956   9.914  20.288  0.00  0.00    +0.000 A 
ATOM      7  C   UNL     1       0.145  10.918  20.821  0.00  0.00    +0.000 A 
ATOM      8  C   UNL     1      -0.583  10.694  21.994  0.00  0.00    +0.000 A 
ATOM      9  C   UNL     1      -0.509   9.431  22.608  0.00  0.00    +0.000 A 
ATOM     10  C   UNL     1       0.284   8.425  22.059  0.00  0.00    +0.000 A 
BRANCH   8  11
ATOM     11  C   UNL     1      -1.436  11.780  22.597  0.00  0.00    +0.000 C 
ATOM     12  F   UNL     1      -2.237  11.351  23.611  0.00  0.00    +0.000 F 
ATOM     13  F   UNL     1      -0.697  12.799  23.116  0.00  0.00    +0.000 F 
ATOM     14  F   UNL     1      -2.269  12.353  21.684  0.00  0.00    +0.000 F 
ENDBRANCH   8  11
ENDBRANCH   3   5
BRANCH   2  15
ATOM     15  C   UNL     1       2.939   6.131  18.880  0.00  0.00    +0.000 C 
ATOM     16  C   UNL     1       3.865   6.076  17.673  0.00  0.00    +0.000 C 
ATOM     17  C   UNL     1       4.452   6.063  19.049  0.00  0.00    +0.000 C 
BRANCH  15  18
ATOM     18  C   UNL     1       2.080   4.926  19.248  0.00  0.00    +0.000 A 
ATOM     19  C   UNL     1       1.941   4.538  20.594  0.00  0.00    +0.000 A 
ATOM     20  C   UNL     1       1.418   3.291  20.942  0.00  0.00    +0.000 A 
ATOM     21  C   UNL     1       0.994   2.415  19.949  0.00  0.00    +0.000 A 
ATOM     22  C   UNL     1       1.049   2.804  18.614  0.00  0.00    +0.000 A 
ATOM     23  C   UNL     1       1.579   4.049  18.270  0.00  0.00    +0.000 A 
ENDBRANCH  15  18
ENDBRANCH   2  15
TORSDOF 4
ENDMDL
MODEL 7
REMARK VINA RESULT:      -7.1      1.399      1.876
REMARK  Name = 
REMARK  4 active torsions:
REMARK  status: ('A' for Active; 'I' for Inactive)
REMARK    1  A    between atoms: C_2  and  C_14
REMARK    2  A    between atoms: N_3  and  C_4
REMARK    3  A    between atoms: C_7  and  C_8
REMARK    4  A    between atoms: C_14  and  C_15
REMARK                            x       y       z     vdW  Elec       q    Type
REMARK                         _______ _______ _______ _____ _____    ______ ____
ROOT
ATOM      1  O   UNL     1       2.749   5.036  19.722  0.00  0.00    +0.000 OA
ATOM      2  C   UNL     1       3.279   5.515  18.728  0.00  0.00    +0.000 C 
ATOM      3  N   UNL     1       3.044   6.751  18.166  0.00  0.00    +0.000 N 
ATOM      4  H   UNL     1       3.456   6.923  17.259  0.00  0.00    +0.000 HD
ENDROOT
BRANCH   3   5
ATOM      5  C   UNL     1       2.247   7.763  18.719  0.00  0.00    +0.000 A 
ATOM      6  C   UNL     1       1.913   7.815  20.074  0.00  0.00    +0.000 A 
ATOM      7  C   UNL     1       1.102   8.839  20.565  0.00  0.00    +0.000 A 
ATOM      8  C   UNL     1       0.604   9.824  19.707  0.00  0.00    +0.000 A 
ATOM      9  C   UNL     1       0.961   9.784  18.348  0.00  0.00    +0.000 A 
ATOM     10  C   UNL     1       1.791   8.773  17.867  0.00  0.00    +0.000 A 
BRANCH   8  11
ATOM     11  C   UNL     1      -0.300  10.915  20.221  0.00  0.00    +0.000 C 
ATOM     12  F   UNL     1       0.251  12.159  20.160  0.00  0.00    +0.000 F 
ATOM     13  F   UNL     1      -1.470  10.994  19.531  0.00  0.00    +0.000 F 
ATOM     14  F   UNL     1      -0.649  10.730  21.525  0.00  0.00    +0.000 F 
ENDBRANCH   8  11
ENDBRANCH   3   5
BRANCH   2  15
ATOM     15  C   UNL     1       4.333   4.716  17.998  0.00  0.00    +0.000 C 
ATOM     16  C   UNL     1       4.238   3.202  18.124  0.00  0.00    +0.000 C 
ATOM     17  C   UNL     1       3.920   3.851  16.814  0.00  0.00    +0.000 C 
BRANCH  15  18
ATOM     18  C   UNL     1       5.693   5.406  17.996  0.00  0.00    +0.000 A 
ATOM     19  C   UNL     1       6.627   5.138  19.014  0.00  0.00    +0.000 A 
ATOM     20  C   UNL     1       7.743   5.953  19.212  0.00  0.00    +0.000 A 
ATOM     21  C   UNL     1       7.966   7.040  18.374  0.00  0.00    +0.000 A 
ATOM     22  C   UNL     1       7.099   7.283  17.311  0.00  0.00    +0.000 A 
ATOM     23  C   UNL     1       5.980   6.469  17.122  0.00  0.00    +0.000 A 
ENDBRANCH  15  18
ENDBRANCH   2  15
TORSDOF 4
ENDMDL
MODEL 8
REMARK VINA RESULT:      -7.1      2.260      4.246
REMARK  Name = 
REMARK  4 active torsions:
REMARK  status: ('A' for Active; 'I' for Inactive)
REMARK    1  A    between atoms: C_2  and  C_14
REMARK    2  A    between atoms: N_3  and  C_4
REMARK    3  A    between atoms: C_7  and  C_8
REMARK    4  A    between atoms: C_14  and  C_15
REMARK                            x       y       z     vdW  Elec       q    Type
REMARK                         _______ _______ _______ _____ _____    ______ ____
ROOT
ATOM      1  O   UNL     1       2.372   8.059  17.798  0.00  0.00    +0.000 OA
ATOM      2  C   UNL     1       2.598   7.296  18.729  0.00  0.00    +0.000 C 
ATOM      3  N   UNL     1       2.224   7.449  20.047  0.00  0.00    +0.000 N 
ATOM      4  H   UNL     1       2.627   6.802  20.711  0.00  0.00    +0.000 HD
ENDROOT
BRANCH   3   5
ATOM      5  C   UNL     1       1.379   8.449  20.547  0.00  0.00    +0.000 A 
ATOM      6  C   UNL     1       0.883   9.491  19.761  0.00  0.00    +0.000 A 
ATOM      7  C   UNL     1       0.058  10.469  20.318  0.00  0.00    +0.000 A 
ATOM      8  C   UNL     1      -0.280  10.425  21.674  0.00  0.00    +0.000 A 
ATOM      9  C   UNL     1       0.200   9.362  22.458  0.00  0.00    +0.000 A 
ATOM     10  C   UNL     1       1.005   8.375  21.892  0.00  0.00    +0.000 A 
BRANCH   8  11
ATOM     11  C   UNL     1      -1.144  11.493  22.292  0.00  0.00    +0.000 C 
ATOM     12  F   UNL     1      -2.167  11.905  21.492  0.00  0.00    +0.000 F 
ATOM     13  F   UNL     1      -1.725  11.090  23.456  0.00  0.00    +0.000 F 
ATOM     14  F   UNL     1      -0.440  12.618  22.599  0.00  0.00    +0.000 F 
ENDBRANCH   8  11
ENDBRANCH   3   5
BRANCH   2  15
ATOM     15  C   UNL     1       3.354   6.016  18.466  0.00  0.00    +0.000 C 
ATOM     16  C   UNL     1       4.167   5.965  17.180  0.00  0.00    +0.000 C 
ATOM     17  C   UNL     1       4.878   6.034  18.494  0.00  0.00    +0.000 C 
BRANCH  15  18
ATOM     18  C   UNL     1       2.602   4.782  18.952  0.00  0.00    +0.000 A 
ATOM     19  C   UNL     1       1.825   4.025  18.055  0.00  0.00    +0.000 A 
ATOM     20  C   UNL     1       0.901   3.082  18.509  0.00  0.00    +0.000 A 
ATOM     21  C   UNL     1       0.756   2.853  19.873  0.00  0.00    +0.000 A 
ATOM     22  C   UNL     1       1.566   3.532  20.778  0.00  0.00    +0.000 A 
ATOM     23  C   UNL     1       2.484   4.480  20.320  0.00  0.00    +0.000 A 
ENDBRANCH  15  18
ENDBRANCH   2  15
TORSDOF 4
ENDMDL
MODEL 9
REMARK VINA RESULT:      -7.0      2.087      2.841
REMARK  Name = 
REMARK  4 active torsions:
REMARK  status: ('A' for Active; 'I' for Inactive)
REMARK    1  A    between atoms: C_2  and  C_14
REMARK    2  A    between atoms: N_3  and  C_4
REMARK    3  A    between atoms: C_7  and  C_8
REMARK    4  A    between atoms: C_14  and  C_15
REMARK                            x       y       z     vdW  Elec       q    Type
REMARK                         _______ _______ _______ _____ _____    ______ ____
ROOT
ATOM      1  O   UNL     1       2.389   7.756  17.758  0.00  0.00    +0.000 OA
ATOM      2  C   UNL     1       2.585   7.020  18.716  0.00  0.00    +0.000 C 
ATOM      3  N   UNL     1       2.242   7.247  20.031  0.00  0.00    +0.000 N 
ATOM      4  H   UNL     1       2.616   6.605  20.716  0.00  0.00    +0.000 HD
ENDROOT
BRANCH   3   5
ATOM      5  C   UNL     1       1.466   8.316  20.502  0.00  0.00    +0.000 A 
ATOM      6  C   UNL     1       1.030   9.359  19.682  0.00  0.00    +0.000 A 
ATOM      7  C   UNL     1       0.272  10.406  20.210  0.00  0.00    +0.000 A 
ATOM      8  C   UNL     1      -0.055  10.431  21.569  0.00  0.00    +0.000 A 
ATOM      9  C   UNL     1       0.365   9.368  22.388  0.00  0.00    +0.000 A 
ATOM     10  C   UNL     1       1.101   8.313  21.851  0.00  0.00    +0.000 A 
BRANCH   8  11
ATOM     11  C   UNL     1      -0.843  11.573  22.156  0.00  0.00    +0.000 C 
ATOM     12  F   UNL     1      -0.113  12.707  22.340  0.00  0.00    +0.000 F 
ATOM     13  F   UNL     1      -1.899  11.935  21.377  0.00  0.00    +0.000 F 
ATOM     14  F   UNL     1      -1.369  11.270  23.376  0.00  0.00    +0.000 F 
ENDBRANCH   8  11
ENDBRANCH   3   5
BRANCH   2  15
ATOM     15  C   UNL     1       3.259   5.686  18.495  0.00  0.00    +0.000 C 
ATOM     16  C   UNL     1       2.697   4.509  19.281  0.00  0.00    +0.000 C 
ATOM     17  C   UNL     1       2.488   4.570  17.801  0.00  0.00    +0.000 C 
BRANCH  15  18
ATOM     18  C   UNL     1       4.762   5.820  18.275  0.00  0.00    +0.000 A 
ATOM     19  C   UNL     1       5.667   5.259  19.195  0.00  0.00    +0.000 A 
ATOM     20  C   UNL     1       7.019   5.607  19.191  0.00  0.00    +0.000 A 
ATOM     21  C   UNL     1       7.502   6.503  18.244  0.00  0.00    +0.000 A 
ATOM     22  C   UNL     1       6.644   7.014  17.274  0.00  0.00    +0.000 A 
ATOM     23  C   UNL     1       5.291   6.669  17.287  0.00  0.00    +0.000 A 
ENDBRANCH  15  18
ENDBRANCH   2  15
TORSDOF 4
ENDMDL
