MODEL 1
REMARK VINA RESULT:      -8.1      0.000      0.000
REMARK  Name = 
REMARK  4 active torsions:
REMARK  status: ('A' for Active; 'I' for Inactive)
REMARK    1  A    between atoms: C_2  and  C_3
REMARK    2  A    between atoms: C_4  and  C_5
REMARK    3  A    between atoms: N_12  and  C_13
REMARK    4  A    between atoms: C_16  and  C_17
REMARK                            x       y       z     vdW  Elec       q    Type
REMARK                         _______ _______ _______ _____ _____    ______ ____
ROOT
ATOM      1  O   UNL     1       8.169   7.070  18.678  0.00  0.00    +0.000 OA
ATOM      2  C   UNL     1       7.698   7.817  17.826  0.00  0.00    +0.000 C 
ATOM      3  N   UNL     1       6.527   7.633  17.121  0.00  0.00    +0.000 N 
ATOM      4  H   UNL     1       6.334   8.262  16.355  0.00  0.00    +0.000 HD
ENDROOT
BRANCH   3   5
ATOM      5  C   UNL     1       5.552   6.643  17.370  0.00  0.00    +0.000 A 
ATOM      6  C   UNL     1       5.848   5.282  17.466  0.00  0.00    +0.000 A 
ATOM      7  C   UNL     1       4.852   4.352  17.783  0.00  0.00    +0.000 A 
ATOM      8  C   UNL     1       3.542   4.775  18.002  0.00  0.00    +0.000 A 
ATOM      9  C   UNL     1       3.229   6.133  17.886  0.00  0.00    +0.000 A 
ATOM     10  C   UNL     1       4.230   7.062  17.576  0.00  0.00    +0.000 A 
BRANCH   8  11
ATOM     11  C   UNL     1       2.508   3.800  18.431  0.00  0.00    +0.000 C 
ATOM     12  N   UNL     1       2.495   2.571  17.972  0.00  0.00    +0.000 NA
ATOM     13  C   UNL     1       1.281   1.959  18.583  0.00  0.00    +0.000 C 
ATOM     14  C   UNL     1       0.837   2.901  19.703  0.00  0.00    +0.000 C 
ATOM     15  N   UNL     1       1.504   4.119  19.314  0.00  0.00    +0.000 N 
ATOM     16  H   UNL     1       1.666   4.828  20.018  0.00  0.00    +0.000 HD
ENDBRANCH   8  11
ENDBRANCH   3   5
BRANCH   2  17
ATOM     17  C   UNL     1       8.412   9.065  17.441  0.00  0.00    +0.000 C 
ATOM     18  C   UNL     1       8.806   9.919  18.400  0.00  0.00    +0.000 C 
BRANCH  18  19
ATOM     19  C   UNL     1       9.498  11.191  18.150  0.00  0.00    +0.000 A 
ATOM     20  C   UNL     1      10.867  11.257  17.868  0.00  0.00    +0.000 A 
ATOM     21  C   UNL     1      11.489  12.484  17.625  0.00  0.00    +0.000 A 
ATOM     22  C   UNL     1      10.745  13.661  17.653  0.00  0.00    +0.000 A 
ATOM     23  C   UNL     1       9.376  13.601  17.902  0.00  0.00    +0.000 A 
ATOM     24 CL   UNL     1       8.449  15.050  17.923  0.00  0.00    +0.000 Cl
ATOM     25  C   UNL     1       8.752  12.375  18.146  0.00  0.00    +0.000 A 
ENDBRANCH  18  19
ENDBRANCH   2  17
TORSDOF 4
ENDMDL
MODEL 2
REMARK VINA RESULT:      -8.0      1.170      1.192
REMARK  Name = 
REMARK  4 active torsions:
REMARK  status: ('A' for Active; 'I' for Inactive)
REMARK    1  A    between atoms: C_2  and  C_3
REMARK    2  A    between atoms: C_4  and  C_5
REMARK    3  A    between atoms: N_12  and  C_13
REMARK    4  A    between atoms: C_16  and  C_17
REMARK                            x       y       z     vdW  Elec       q    Type
REMARK                         _______ _______ _______ _____ _____    ______ ____
ROOT
ATOM      1  O   UNL     1       8.309   7.074  18.796  0.00  0.00    +0.000 OA
ATOM      2  C   UNL     1       7.847   7.893  18.008  0.00  0.00    +0.000 C 
ATOM      3  N   UNL     1       6.715   7.749  17.235  0.00  0.00    +0.000 N 
ATOM      4  H   UNL     1       6.530   8.451  16.532  0.00  0.00    +0.000 HD
ENDROOT
BRANCH   3   5
ATOM      5  C   UNL     1       5.767   6.706  17.330  0.00  0.00    +0.000 A 
ATOM      6  C   UNL     1       6.077   5.366  17.093  0.00  0.00    +0.000 A 
ATOM      7  C   UNL     1       5.116   4.365  17.270  0.00  0.00    +0.000 A 
ATOM      8  C   UNL     1       3.826   4.698  17.682  0.00  0.00    +0.000 A 
ATOM      9  C   UNL     1       3.498   6.040  17.900  0.00  0.00    +0.000 A 
ATOM     10  C   UNL     1       4.466   7.038  17.729  0.00  0.00    +0.000 A 
BRANCH   8  11
ATOM     11  C   UNL     1       2.836   3.628  17.960  0.00  0.00    +0.000 C 
ATOM     12  N   UNL     1       3.202   2.376  18.099  0.00  0.00    +0.000 NA
ATOM     13  C   UNL     1       1.924   1.633  18.290  0.00  0.00    +0.000 C 
ATOM     14  C   UNL     1       0.853   2.683  18.590  0.00  0.00    +0.000 C 
ATOM     15  N   UNL     1       1.488   3.872  18.077  0.00  0.00    +0.000 N 
ATOM     16  H   UNL     1       1.171   4.773  18.414  0.00  0.00    +0.000 HD
ENDBRANCH   8  11
ENDBRANCH   3   5
BRANCH   2  17
ATOM     17  C   UNL     1       8.529   9.199  17.793  0.00  0.00    +0.000 C 
ATOM     18  C   UNL     1       9.117   9.812  18.833  0.00  0.00    +0.000 C 
BRANCH  18  19
ATOM     19  C   UNL     1       9.801  11.110  18.757  0.00  0.00    +0.000 A 
ATOM     20  C   UNL     1      10.437  11.555  17.592  0.00  0.00    +0.000 A 
ATOM     21  C   UNL     1      11.069  12.801  17.553  0.00  0.00    +0.000 A 
ATOM     22  C   UNL     1      11.064  13.621  18.678  0.00  0.00    +0.000 A 
ATOM     23  C   UNL     1      10.407  13.199  19.832  0.00  0.00    +0.000 A 
ATOM     24 CL   UNL     1      10.386  14.214  21.220  0.00  0.00    +0.000 Cl
ATOM     25  C   UNL     1       9.775  11.954  19.874  0.00  0.00    +0.000 A 
ENDBRANCH  18  19
ENDBRANCH   2  17
TORSDOF 4
ENDMDL
MODEL 3
REMARK VINA RESULT:      -7.7      1.433      1.598
REMARK  Name = 
REMARK  4 active torsions:
REMARK  status: ('A' for Active; 'I' for Inactive)
REMARK    1  A    between atoms: C_2  and  C_3
REMARK    2  A    between atoms: C_4  and  C_5
REMARK    3  A    between atoms: N_12  and  C_13
REMARK    4  A    between atoms: C_16  and  C_17
REMARK                            x       y       z     vdW  Elec       q    Type
REMARK                         _______ _______ _______ _____ _____    ______ ____
ROOT
ATOM      1  O   UNL     1       7.727   6.672  16.306  0.00  0.00    +0.000 OA
ATOM      2  C   UNL     1       7.477   7.516  17.161  0.00  0.00    +0.000 C 
ATOM      3  N   UNL     1       6.389   7.538  18.008  0.00  0.00    +0.000 N 
ATOM      4  H   UNL     1       6.244   8.365  18.567  0.00  0.00    +0.000 HD
ENDROOT
BRANCH   3   5
ATOM      5  C   UNL     1       5.446   6.501  18.180  0.00  0.00    +0.000 A 
ATOM      6  C   UNL     1       5.702   5.347  18.922  0.00  0.00    +0.000 A 
ATOM      7  C   UNL     1       4.707   4.384  19.119  0.00  0.00    +0.000 A 
ATOM      8  C   UNL     1       3.439   4.564  18.565  0.00  0.00    +0.000 A 
ATOM      9  C   UNL     1       3.178   5.704  17.800  0.00  0.00    +0.000 A 
ATOM     10  C   UNL     1       4.176   6.671  17.613  0.00  0.00    +0.000 A 
BRANCH   8  11
ATOM     11  C   UNL     1       2.358   3.589  18.853  0.00  0.00    +0.000 C 
ATOM     12  N   UNL     1       1.596   3.110  17.899  0.00  0.00    +0.000 NA
ATOM     13  C   UNL     1       0.614   2.241  18.606  0.00  0.00    +0.000 C 
ATOM     14  C   UNL     1       1.160   2.032  20.020  0.00  0.00    +0.000 C 
ATOM     15  N   UNL     1       2.080   3.138  20.122  0.00  0.00    +0.000 N 
ATOM     16  H   UNL     1       2.823   3.088  20.808  0.00  0.00    +0.000 HD
ENDBRANCH   8  11
ENDBRANCH   3   5
BRANCH   2  17
ATOM     17  C   UNL     1       8.384   8.680  17.358  0.00  0.00    +0.000 C 
ATOM     18  C   UNL     1       8.467   9.251  18.571  0.00  0.00    +0.000 C 
BRANCH  18  19
ATOM     19  C   UNL     1       9.305  10.415  18.888  0.00  0.00    +0.000 A 
ATOM     20  C   UNL     1       9.645  10.759  20.202  0.00  0.00    +0.000 A 
ATOM     21  C   UNL     1      10.454  11.867  20.464  0.00  0.00    +0.000 A 
ATOM     22  C   UNL     1      10.940  12.641  19.414  0.00  0.00    +0.000 A 
ATOM     23  C   UNL     1      10.632  12.288  18.102  0.00  0.00    +0.000 A 
ATOM     24 CL   UNL     1      11.241  13.232  16.799  0.00  0.00    +0.000 Cl
ATOM     25  C   UNL     1       9.823  11.181  17.836  0.00  0.00    +0.000 A 
ENDBRANCH  18  19
ENDBRANCH   2  17
TORSDOF 4
ENDMDL
MODEL 4
REMARK VINA RESULT:      -7.6      1.670      2.187
REMARK  Name = 
REMARK  4 active torsions:
REMARK  status: ('A' for Active; 'I' for Inactive)
REMARK    1  A    between atoms: C_2  and  C_3
REMARK    2  A    between atoms: C_4  and  C_5
REMARK    3  A    between atoms: N_12  and  C_13
REMARK    4  A    between atoms: C_16  and  C_17
REMARK                            x       y       z     vdW  Elec       q    Type
REMARK                         _______ _______ _______ _____ _____    ______ ____
ROOT
ATOM      1  O   UNL     1       8.915   8.895  19.298  0.00  0.00    +0.000 OA
ATOM      2  C   UNL     1       8.504   9.268  18.204  0.00  0.00    +0.000 C 
ATOM      3  N   UNL     1       7.736   8.542  17.319  0.00  0.00    +0.000 N 
ATOM      4  H   UNL     1       7.586   8.929  16.398  0.00  0.00    +0.000 HD
ENDROOT
BRANCH   3   5
ATOM      5  C   UNL     1       7.123   7.296  17.574  0.00  0.00    +0.000 A 
ATOM      6  C   UNL     1       7.646   6.352  18.459  0.00  0.00    +0.000 A 
ATOM      7  C   UNL     1       6.960   5.163  18.727  0.00  0.00    +0.000 A 
ATOM      8  C   UNL     1       5.740   4.901  18.103  0.00  0.00    +0.000 A 
ATOM      9  C   UNL     1       5.219   5.829  17.197  0.00  0.00    +0.000 A 
ATOM     10  C   UNL     1       5.905   7.023  16.937  0.00  0.00    +0.000 A 
BRANCH   8  11
ATOM     11  C   UNL     1       4.969   3.684  18.460  0.00  0.00    +0.000 C 
ATOM     12  N   UNL     1       4.909   3.251  19.696  0.00  0.00    +0.000 NA
ATOM     13  C   UNL     1       4.114   1.992  19.611  0.00  0.00    +0.000 C 
ATOM     14  C   UNL     1       3.456   1.988  18.231  0.00  0.00    +0.000 C 
ATOM     15  N   UNL     1       4.289   2.934  17.530  0.00  0.00    +0.000 N 
ATOM     16  H   UNL     1       3.919   3.383  16.701  0.00  0.00    +0.000 HD
ENDBRANCH   8  11
ENDBRANCH   3   5
BRANCH   2  17
ATOM     17  C   UNL     1       8.838  10.627  17.697  0.00  0.00    +0.000 C 
ATOM     18  C   UNL     1       9.752  11.365  18.348  0.00  0.00    +0.000 C 
BRANCH  18  19
ATOM     19  C   UNL     1      10.153  12.725  17.964  0.00  0.00    +0.000 A 
ATOM     20  C   UNL     1      11.222  12.974  17.095  0.00  0.00    +0.000 A 
ATOM     21  C   UNL     1      11.568  14.282  16.743  0.00  0.00    +0.000 A 
ATOM     22  C   UNL     1      10.840  15.356  17.249  0.00  0.00    +0.000 A 
ATOM     23  C   UNL     1       9.755  15.115  18.088  0.00  0.00    +0.000 A 
ATOM     24 CL   UNL     1       8.844  16.438  18.704  0.00  0.00    +0.000 Cl
ATOM     25  C   UNL     1       9.408  13.809  18.443  0.00  0.00    +0.000 A 
ENDBRANCH  18  19
ENDBRANCH   2  17
TORSDOF 4
ENDMDL
MODEL 5
REMARK VINA RESULT:      -7.6      7.157      9.679
REMARK  Name = 
REMARK  4 active torsions:
REMARK  status: ('A' for Active; 'I' for Inactive)
REMARK    1  A    between atoms: C_2  and  C_3
REMARK    2  A    between atoms: C_4  and  C_5
REMARK    3  A    between atoms: N_12  and  C_13
REMARK    4  A    between atoms: C_16  and  C_17
REMARK                            x       y       z     vdW  Elec       q    Type
REMARK                         _______ _______ _______ _____ _____    ______ ____
ROOT
ATOM      1  O   UNL     1       1.763  10.820  18.315  0.00  0.00    +0.000 OA
ATOM      2  C   UNL     1       1.500   9.681  18.687  0.00  0.00    +0.000 C 
ATOM      3  N   UNL     1       0.754   9.323  19.790  0.00  0.00    +0.000 N 
ATOM      4  H   UNL     1       0.734   8.347  20.048  0.00  0.00    +0.000 HD
ENDROOT
BRANCH   3   5
ATOM      5  C   UNL     1      -0.000  10.194  20.604  0.00  0.00    +0.000 A 
ATOM      6  C   UNL     1      -0.829  11.195  20.094  0.00  0.00    +0.000 A 
ATOM      7  C   UNL     1      -1.608  11.985  20.946  0.00  0.00    +0.000 A 
ATOM      8  C   UNL     1      -1.562  11.785  22.325  0.00  0.00    +0.000 A 
ATOM      9  C   UNL     1      -0.718  10.800  22.849  0.00  0.00    +0.000 A 
ATOM     10  C   UNL     1       0.055  10.006  21.992  0.00  0.00    +0.000 A 
BRANCH   8  11
ATOM     11  C   UNL     1      -2.459  12.558  23.219  0.00  0.00    +0.000 C 
ATOM     12  N   UNL     1      -2.148  13.768  23.620  0.00  0.00    +0.000 NA
ATOM     13  C   UNL     1      -3.257  14.151  24.540  0.00  0.00    +0.000 C 
ATOM     14  C   UNL     1      -4.381  13.140  24.310  0.00  0.00    +0.000 C 
ATOM     15  N   UNL     1      -3.652  12.062  23.688  0.00  0.00    +0.000 N 
ATOM     16  H   UNL     1      -4.165  11.388  23.133  0.00  0.00    +0.000 HD
ENDBRANCH   8  11
ENDBRANCH   3   5
BRANCH   2  17
ATOM     17  C   UNL     1       2.014   8.505  17.933  0.00  0.00    +0.000 C 
ATOM     18  C   UNL     1       2.556   7.477  18.607  0.00  0.00    +0.000 C 
BRANCH  18  19
ATOM     19  C   UNL     1       3.117   6.273  17.980  0.00  0.00    +0.000 A 
ATOM     20  C   UNL     1       2.434   5.052  17.956  0.00  0.00    +0.000 A 
ATOM     21  C   UNL     1       2.995   3.930  17.340  0.00  0.00    +0.000 A 
ATOM     22  C   UNL     1       4.245   4.020  16.733  0.00  0.00    +0.000 A 
ATOM     23  C   UNL     1       4.918   5.239  16.724  0.00  0.00    +0.000 A 
ATOM     24 CL   UNL     1       6.456   5.359  15.963  0.00  0.00    +0.000 Cl
ATOM     25  C   UNL     1       4.360   6.362  17.340  0.00  0.00    +0.000 A 
ENDBRANCH  18  19
ENDBRANCH   2  17
TORSDOF 4
ENDMDL
MODEL 6
REMARK VINA RESULT:      -7.6      5.950      7.603
REMARK  Name = 
REMARK  4 active torsions:
REMARK  status: ('A' for Active; 'I' for Inactive)
REMARK    1  A    between atoms: C_2  and  C_3
REMARK    2  A    between atoms: C_4  and  C_5
REMARK    3  A    between atoms: N_12  and  C_13
REMARK    4  A    between atoms: C_16  and  C_17
REMARK                            x       y       z     vdW  Elec       q    Type
REMARK                         _______ _______ _______ _____ _____    ______ ____
ROOT
ATOM      1  O   UNL     1       5.393   5.518  19.004  0.00  0.00    +0.000 OA
ATOM      2  C   UNL     1       4.777   5.455  17.945  0.00  0.00    +0.000 C 
ATOM      3  N   UNL     1       3.501   5.915  17.702  0.00  0.00    +0.000 N 
ATOM      4  H   UNL     1       3.072   5.674  16.821  0.00  0.00    +0.000 HD
ENDROOT
BRANCH   3   5
ATOM      5  C   UNL     1       2.721   6.708  18.573  0.00  0.00    +0.000 A 
ATOM      6  C   UNL     1       2.325   6.288  19.844  0.00  0.00    +0.000 A 
ATOM      7  C   UNL     1       1.611   7.142  20.691  0.00  0.00    +0.000 A 
ATOM      8  C   UNL     1       1.279   8.429  20.272  0.00  0.00    +0.000 A 
ATOM      9  C   UNL     1       1.651   8.853  18.992  0.00  0.00    +0.000 A 
ATOM     10  C   UNL     1       2.372   7.997  18.149  0.00  0.00    +0.000 A 
BRANCH   8  11
ATOM     11  C   UNL     1       0.606   9.365  21.207  0.00  0.00    +0.000 C 
ATOM     12  N   UNL     1       0.236  10.564  20.826  0.00  0.00    +0.000 NA
ATOM     13  C   UNL     1      -0.322  11.190  22.058  0.00  0.00    +0.000 C 
ATOM     14  C   UNL     1      -0.530  10.058  23.064  0.00  0.00    +0.000 C 
ATOM     15  N   UNL     1       0.341   9.046  22.518  0.00  0.00    +0.000 N 
ATOM     16  H   UNL     1       0.181   8.080  22.773  0.00  0.00    +0.000 HD
ENDBRANCH   8  11
ENDBRANCH   3   5
BRANCH   2  17
ATOM     17  C   UNL     1       5.396   4.815  16.752  0.00  0.00    +0.000 C 
ATOM     18  C   UNL     1       5.577   5.541  15.636  0.00  0.00    +0.000 C 
BRANCH  18  19
ATOM     19  C   UNL     1       6.154   5.022  14.390  0.00  0.00    +0.000 A 
ATOM     20  C   UNL     1       7.394   5.451  13.901  0.00  0.00    +0.000 A 
ATOM     21  C   UNL     1       7.917   4.926  12.716  0.00  0.00    +0.000 A 
ATOM     22  C   UNL     1       7.208   3.958  12.010  0.00  0.00    +0.000 A 
ATOM     23  C   UNL     1       5.989   3.502  12.505  0.00  0.00    +0.000 A 
ATOM     24 CL   UNL     1       5.116   2.296  11.644  0.00  0.00    +0.000 Cl
ATOM     25  C   UNL     1       5.463   4.026  13.689  0.00  0.00    +0.000 A 
ENDBRANCH  18  19
ENDBRANCH   2  17
TORSDOF 4
ENDMDL
MODEL 7
REMARK VINA RESULT:      -7.5      7.380      9.772
REMARK  Name = 
REMARK  4 active torsions:
REMARK  status: ('A' for Active; 'I' for Inactive)
REMARK    1  A    between atoms: C_2  and  C_3
REMARK    2  A    between atoms: C_4  and  C_5
REMARK    3  A    between atoms: N_12  and  C_13
REMARK    4  A    between atoms: C_16  and  C_17
REMARK                            x       y       z     vdW  Elec       q    Type
REMARK                         _______ _______ _______ _____ _____    ______ ____
ROOT
ATOM      1  O   UNL     1       1.656  10.844  18.426  0.00  0.00    +0.000 OA
ATOM      2  C   UNL     1       1.561   9.673  18.778  0.00  0.00    +0.000 C 
ATOM      3  N   UNL     1       0.902   9.195  19.890  0.00  0.00    +0.000 N 
ATOM      4  H   UNL     1       1.022   8.220  20.127  0.00  0.00    +0.000 HD
ENDROOT
BRANCH   3   5
ATOM      5  C   UNL     1       0.058   9.938  20.744  0.00  0.00    +0.000 A 
ATOM      6  C   UNL     1       0.025   9.767  22.129  0.00  0.00    +0.000 A 
ATOM      7  C   UNL     1      -0.780  10.580  22.933  0.00  0.00    +0.000 A 
ATOM      8  C   UNL     1      -1.570  11.574  22.357  0.00  0.00    +0.000 A 
ATOM      9  C   UNL     1      -1.562  11.740  20.969  0.00  0.00    +0.000 A 
ATOM     10  C   UNL     1      -0.748  10.929  20.167  0.00  0.00    +0.000 A 
BRANCH   8  11
ATOM     11  C   UNL     1      -2.349  12.497  23.219  0.00  0.00    +0.000 C 
ATOM     12  N   UNL     1      -1.894  13.685  23.538  0.00  0.00    +0.000 NA
ATOM     13  C   UNL     1      -2.926  14.246  24.455  0.00  0.00    +0.000 C 
ATOM     14  C   UNL     1      -4.162  13.357  24.313  0.00  0.00    +0.000 C 
ATOM     15  N   UNL     1      -3.577  12.167  23.744  0.00  0.00    +0.000 N 
ATOM     16  H   UNL     1      -4.177  11.524  23.243  0.00  0.00    +0.000 HD
ENDBRANCH   8  11
ENDBRANCH   3   5
BRANCH   2  17
ATOM     17  C   UNL     1       2.210   8.594  17.984  0.00  0.00    +0.000 C 
ATOM     18  C   UNL     1       2.502   7.426  18.579  0.00  0.00    +0.000 C 
BRANCH  18  19
ATOM     19  C   UNL     1       3.161   6.294  17.913  0.00  0.00    +0.000 A 
ATOM     20  C   UNL     1       4.364   6.434  17.210  0.00  0.00    +0.000 A 
ATOM     21  C   UNL     1       4.967   5.333  16.598  0.00  0.00    +0.000 A 
ATOM     22  C   UNL     1       4.378   4.074  16.689  0.00  0.00    +0.000 A 
ATOM     23  C   UNL     1       3.198   3.920  17.413  0.00  0.00    +0.000 A 
ATOM     24 CL   UNL     1       2.474   2.365  17.542  0.00  0.00    +0.000 Cl
ATOM     25  C   UNL     1       2.592   5.020  18.025  0.00  0.00    +0.000 A 
ENDBRANCH  18  19
ENDBRANCH   2  17
TORSDOF 4
ENDMDL
MODEL 8
REMARK VINA RESULT:      -7.5      7.398      9.828
REMARK  Name = 
REMARK  4 active torsions:
REMARK  status: ('A' for Active; 'I' for Inactive)
REMARK    1  A    between atoms: C_2  and  C_3
REMARK    2  A    between atoms: C_4  and  C_5
REMARK    3  A    between atoms: N_12  and  C_13
REMARK    4  A    between atoms: C_16  and  C_17
REMARK                            x       y       z     vdW  Elec       q    Type
REMARK                         _______ _______ _______ _____ _____    ______ ____
ROOT
ATOM      1  O   UNL     1       1.617  10.897  18.116  0.00  0.00    +0.000 OA
ATOM      2  C   UNL     1       1.597   9.775  18.611  0.00  0.00    +0.000 C 
ATOM      3  N   UNL     1       1.045   9.415  19.822  0.00  0.00    +0.000 N 
ATOM      4  H   UNL     1       1.222   8.481  20.162  0.00  0.00    +0.000 HD
ENDROOT
BRANCH   3   5
ATOM      5  C   UNL     1       0.239  10.231  20.646  0.00  0.00    +0.000 A 
ATOM      6  C   UNL     1      -0.390  11.392  20.194  0.00  0.00    +0.000 A 
ATOM      7  C   UNL     1      -1.235  12.124  21.035  0.00  0.00    +0.000 A 
ATOM      8  C   UNL     1      -1.455  11.703  22.346  0.00  0.00    +0.000 A 
ATOM      9  C   UNL     1      -0.813  10.554  22.817  0.00  0.00    +0.000 A 
ATOM     10  C   UNL     1       0.026   9.819  21.969  0.00  0.00    +0.000 A 
BRANCH   8  11
ATOM     11  C   UNL     1      -2.424  12.427  23.206  0.00  0.00    +0.000 C 
ATOM     12  N   UNL     1      -3.448  11.814  23.749  0.00  0.00    +0.000 NA
ATOM     13  C   UNL     1      -4.194  12.892  24.459  0.00  0.00    +0.000 C 
ATOM     14  C   UNL     1      -3.256  14.098  24.524  0.00  0.00    +0.000 C 
ATOM     15  N   UNL     1      -2.321  13.772  23.475  0.00  0.00    +0.000 N 
ATOM     16  H   UNL     1      -1.409  14.210  23.487  0.00  0.00    +0.000 HD
ENDBRANCH   8  11
ENDBRANCH   3   5
BRANCH   2  17
ATOM     17  C   UNL     1       2.227   8.628  17.902  0.00  0.00    +0.000 C 
ATOM     18  C   UNL     1       2.379   7.459  18.546  0.00  0.00    +0.000 C 
BRANCH  18  19
ATOM     19  C   UNL     1       3.004   6.263  17.966  0.00  0.00    +0.000 A 
ATOM     20  C   UNL     1       4.230   6.310  17.291  0.00  0.00    +0.000 A 
ATOM     21  C   UNL     1       4.800   5.149  16.762  0.00  0.00    +0.000 A 
ATOM     22  C   UNL     1       4.153   3.925  16.909  0.00  0.00    +0.000 A 
ATOM     23  C   UNL     1       2.948   3.864  17.607  0.00  0.00    +0.000 A 
ATOM     24 CL   UNL     1       2.152   2.352  17.804  0.00  0.00    +0.000 Cl
ATOM     25  C   UNL     1       2.376   5.023  18.136  0.00  0.00    +0.000 A 
ENDBRANCH  18  19
ENDBRANCH   2  17
TORSDOF 4
ENDMDL
MODEL 9
REMARK VINA RESULT:      -7.5      0.488      1.108
REMARK  Name = 
REMARK  4 active torsions:
REMARK  status: ('A' for Active; 'I' for Inactive)
REMARK    1  A    between atoms: C_2  and  C_3
REMARK    2  A    between atoms: C_4  and  C_5
REMARK    3  A    between atoms: N_12  and  C_13
REMARK    4  A    between atoms: C_16  and  C_17
REMARK                            x       y       z     vdW  Elec       q    Type
REMARK                         _______ _______ _______ _____ _____    ______ ____
ROOT
ATOM      1  O   UNL     1       8.282   7.204  18.676  0.00  0.00    +0.000 OA
ATOM      2  C   UNL     1       7.734   7.962  17.882  0.00  0.00    +0.000 C 
ATOM      3  N   UNL     1       6.504   7.786  17.285  0.00  0.00    +0.000 N 
ATOM      4  H   UNL     1       6.241   8.426  16.550  0.00  0.00    +0.000 HD
ENDROOT
BRANCH   3   5
ATOM      5  C   UNL     1       5.557   6.789  17.606  0.00  0.00    +0.000 A 
ATOM      6  C   UNL     1       4.179   7.011  17.599  0.00  0.00    +0.000 A 
ATOM      7  C   UNL     1       3.283   5.968  17.857  0.00  0.00    +0.000 A 
ATOM      8  C   UNL     1       3.759   4.687  18.133  0.00  0.00    +0.000 A 
ATOM      9  C   UNL     1       5.138   4.458  18.166  0.00  0.00    +0.000 A 
ATOM     10  C   UNL     1       6.032   5.504  17.899  0.00  0.00    +0.000 A 
BRANCH   8  11
ATOM     11  C   UNL     1       2.806   3.563  18.313  0.00  0.00    +0.000 C 
ATOM     12  N   UNL     1       3.222   2.354  18.604  0.00  0.00    +0.000 NA
ATOM     13  C   UNL     1       1.981   1.528  18.625  0.00  0.00    +0.000 C 
ATOM     14  C   UNL     1       0.809   2.509  18.657  0.00  0.00    +0.000 C 
ATOM     15  N   UNL     1       1.446   3.711  18.177  0.00  0.00    +0.000 N 
ATOM     16  H   UNL     1       1.018   4.603  18.387  0.00  0.00    +0.000 HD
ENDBRANCH   8  11
ENDBRANCH   3   5
BRANCH   2  17
ATOM     17  C   UNL     1       8.408   9.218  17.454  0.00  0.00    +0.000 C 
ATOM     18  C   UNL     1       8.872  10.066  18.386  0.00  0.00    +0.000 C 
BRANCH  18  19
ATOM     19  C   UNL     1       9.534  11.345  18.093  0.00  0.00    +0.000 A 
ATOM     20  C   UNL     1      10.888  11.426  17.744  0.00  0.00    +0.000 A 
ATOM     21  C   UNL     1      11.481  12.659  17.462  0.00  0.00    +0.000 A 
ATOM     22  C   UNL     1      10.724  13.826  17.517  0.00  0.00    +0.000 A 
ATOM     23  C   UNL     1       9.369  13.751  17.833  0.00  0.00    +0.000 A 
ATOM     24 CL   UNL     1       8.426  15.188  17.890  0.00  0.00    +0.000 Cl
ATOM     25  C   UNL     1       8.774  12.520  18.117  0.00  0.00    +0.000 A 
ENDBRANCH  18  19
ENDBRANCH   2  17
TORSDOF 4
ENDMDL
