MODEL 1
REMARK VINA RESULT:      -6.5      0.000      0.000
REMARK  Name = 
REMARK  6 active torsions:
REMARK  status: ('A' for Active; 'I' for Inactive)
REMARK    1  A    between atoms: C_4  and  C_5
REMARK    2  A    between atoms: C_5  and  C_6
REMARK    3  A    between atoms: C_6  and  C_7
REMARK    4  A    between atoms: C_7  and  C_8
REMARK    5  A    between atoms: C_8  and  C_9
REMARK    6  A    between atoms: C_9  and  N_10
REMARK                            x       y       z     vdW  Elec       q    Type
REMARK                         _______ _______ _______ _____ _____    ______ ____
ROOT
ATOM      1  C   UNL     1       2.527   6.330  18.220  0.00  0.00    +0.000 C 
ENDROOT
BRANCH   1   2
ATOM      2  C   UNL     1       3.649   7.162  17.595  0.00  0.00    +0.000 C 
BRANCH   2   6
ATOM      3  C   UNL     1       7.005   4.708  16.470  0.00  0.00    +0.000 A 
ATOM      4  C   UNL     1       5.714   4.191  16.419  0.00  0.00    +0.000 A 
ATOM      5  C   UNL     1       4.630   4.983  16.784  0.00  0.00    +0.000 A 
ATOM      6  C   UNL     1       4.830   6.312  17.204  0.00  0.00    +0.000 A 
ATOM      7  C   UNL     1       6.133   6.819  17.262  0.00  0.00    +0.000 A 
ATOM      8  C   UNL     1       7.217   6.021  16.892  0.00  0.00    +0.000 A 
ENDBRANCH   2   6
ENDBRANCH   1   2
BRANCH   1   9
ATOM      9  C   UNL     1       2.268   6.694  19.682  0.00  0.00    +0.000 C 
BRANCH   9  10
ATOM     10  C   UNL     1       2.050   5.489  20.616  0.00  0.00    +0.000 C 
BRANCH  10  11
ATOM     11  C   UNL     1       3.068   4.400  20.253  0.00  0.00    +0.000 C 
BRANCH  11  12
ATOM     12  N   UNL     1       2.581   3.009  20.250  0.00  0.00    +0.000 NA
ATOM     13  C   UNL     1       3.139   2.318  19.066  0.00  0.00    +0.000 C 
ATOM     14  C   UNL     1       2.115   2.558  17.972  0.00  0.00    +0.000 C 
ATOM     15  C   UNL     1       0.820   2.347  18.723  0.00  0.00    +0.000 C 
ATOM     16  C   UNL     1       1.116   2.877  20.126  0.00  0.00    +0.000 C 
ENDBRANCH  11  12
ENDBRANCH  10  11
ENDBRANCH   9  10
ENDBRANCH   1   9
TORSDOF 6
ENDMDL
MODEL 2
REMARK VINA RESULT:      -6.5      4.947      6.977
REMARK  Name = 
REMARK  6 active torsions:
REMARK  status: ('A' for Active; 'I' for Inactive)
REMARK    1  A    between atoms: C_4  and  C_5
REMARK    2  A    between atoms: C_5  and  C_6
REMARK    3  A    between atoms: C_6  and  C_7
REMARK    4  A    between atoms: C_7  and  C_8
REMARK    5  A    between atoms: C_8  and  C_9
REMARK    6  A    between atoms: C_9  and  N_10
REMARK                            x       y       z     vdW  Elec       q    Type
REMARK                         _______ _______ _______ _____ _____    ______ ____
ROOT
ATOM      1  C   UNL     1       8.550   9.022  18.524  0.00  0.00    +0.000 C 
ENDROOT
BRANCH   1   2
ATOM      2  C   UNL     1       8.720  10.437  17.967  0.00  0.00    +0.000 C 
BRANCH   2   6
ATOM      3  C   UNL     1      12.064  12.469  19.764  0.00  0.00    +0.000 A 
ATOM      4  C   UNL     1      11.050  11.951  20.564  0.00  0.00    +0.000 A 
ATOM      5  C   UNL     1       9.968  11.296  19.983  0.00  0.00    +0.000 A 
ATOM      6  C   UNL     1       9.894  11.150  18.585  0.00  0.00    +0.000 A 
ATOM      7  C   UNL     1      10.913  11.684  17.788  0.00  0.00    +0.000 A 
ATOM      8  C   UNL     1      11.997  12.338  18.377  0.00  0.00    +0.000 A 
ENDBRANCH   2   6
ENDBRANCH   1   2
BRANCH   1   9
ATOM      9  C   UNL     1       7.766   8.107  17.584  0.00  0.00    +0.000 C 
BRANCH   9  10
ATOM     10  C   UNL     1       7.576   6.668  18.097  0.00  0.00    +0.000 C 
BRANCH  10  11
ATOM     11  C   UNL     1       6.171   6.191  17.705  0.00  0.00    +0.000 C 
BRANCH  11  12
ATOM     12  N   UNL     1       6.043   4.794  17.255  0.00  0.00    +0.000 NA
ATOM     13  C   UNL     1       7.258   4.433  16.490  0.00  0.00    +0.000 C 
ATOM     14  C   UNL     1       6.925   4.805  15.057  0.00  0.00    +0.000 C 
ATOM     15  C   UNL     1       5.501   4.312  14.943  0.00  0.00    +0.000 C 
ATOM     16  C   UNL     1       4.915   4.551  16.335  0.00  0.00    +0.000 C 
ENDBRANCH  11  12
ENDBRANCH  10  11
ENDBRANCH   9  10
ENDBRANCH   1   9
TORSDOF 6
ENDMDL
MODEL 3
REMARK VINA RESULT:      -6.5      2.180      5.496
REMARK  Name = 
REMARK  6 active torsions:
REMARK  status: ('A' for Active; 'I' for Inactive)
REMARK    1  A    between atoms: C_4  and  C_5
REMARK    2  A    between atoms: C_5  and  C_6
REMARK    3  A    between atoms: C_6  and  C_7
REMARK    4  A    between atoms: C_7  and  C_8
REMARK    5  A    between atoms: C_8  and  C_9
REMARK    6  A    between atoms: C_9  and  N_10
REMARK                            x       y       z     vdW  Elec       q    Type
REMARK                         _______ _______ _______ _____ _____    ______ ____
ROOT
ATOM      1  C   UNL     1       5.498   4.653  19.054  0.00  0.00    +0.000 C 
ENDROOT
BRANCH   1   2
ATOM      2  C   UNL     1       4.218   5.361  19.505  0.00  0.00    +0.000 C 
BRANCH   2   6
ATOM      3  C   UNL     1       0.813   2.729  19.357  0.00  0.00    +0.000 A 
ATOM      4  C   UNL     1       1.888   2.529  18.496  0.00  0.00    +0.000 A 
ATOM      5  C   UNL     1       2.987   3.381  18.543  0.00  0.00    +0.000 A 
ATOM      6  C   UNL     1       3.022   4.447  19.461  0.00  0.00    +0.000 A 
ATOM      7  C   UNL     1       1.931   4.646  20.315  0.00  0.00    +0.000 A 
ATOM      8  C   UNL     1       0.832   3.788  20.266  0.00  0.00    +0.000 A 
ENDBRANCH   2   6
ENDBRANCH   1   2
BRANCH   1   9
ATOM      9  C   UNL     1       6.762   5.425  19.427  0.00  0.00    +0.000 C 
BRANCH   9  10
ATOM     10  C   UNL     1       7.625   5.864  18.229  0.00  0.00    +0.000 C 
BRANCH  10  11
ATOM     11  C   UNL     1       6.726   6.589  17.219  0.00  0.00    +0.000 C 
BRANCH  11  12
ATOM     12  N   UNL     1       6.734   6.081  15.836  0.00  0.00    +0.000 NA
ATOM     13  C   UNL     1       5.341   6.062  15.334  0.00  0.00    +0.000 C 
ATOM     14  C   UNL     1       4.821   4.689  15.714  0.00  0.00    +0.000 C 
ATOM     15  C   UNL     1       6.008   3.815  15.376  0.00  0.00    +0.000 C 
ATOM     16  C   UNL     1       7.217   4.692  15.700  0.00  0.00    +0.000 C 
ENDBRANCH  11  12
ENDBRANCH  10  11
ENDBRANCH   9  10
ENDBRANCH   1   9
TORSDOF 6
ENDMDL
MODEL 4
REMARK VINA RESULT:      -6.4      2.427      5.642
REMARK  Name = 
REMARK  6 active torsions:
REMARK  status: ('A' for Active; 'I' for Inactive)
REMARK    1  A    between atoms: C_4  and  C_5
REMARK    2  A    between atoms: C_5  and  C_6
REMARK    3  A    between atoms: C_6  and  C_7
REMARK    4  A    between atoms: C_7  and  C_8
REMARK    5  A    between atoms: C_8  and  C_9
REMARK    6  A    between atoms: C_9  and  N_10
REMARK                            x       y       z     vdW  Elec       q    Type
REMARK                         _______ _______ _______ _____ _____    ______ ____
ROOT
ATOM      1  C   UNL     1       5.250   5.179  19.203  0.00  0.00    +0.000 C 
ENDROOT
BRANCH   1   2
ATOM      2  C   UNL     1       4.900   3.690  19.249  0.00  0.00    +0.000 C 
BRANCH   2   6
ATOM      3  C   UNL     1       0.673   3.040  19.753  0.00  0.00    +0.000 A 
ATOM      4  C   UNL     1       1.515   3.050  20.861  0.00  0.00    +0.000 A 
ATOM      5  C   UNL     1       2.881   3.258  20.698  0.00  0.00    +0.000 A 
ATOM      6  C   UNL     1       3.421   3.463  19.414  0.00  0.00    +0.000 A 
ATOM      7  C   UNL     1       2.567   3.440  18.305  0.00  0.00    +0.000 A 
ATOM      8  C   UNL     1       1.197   3.233  18.474  0.00  0.00    +0.000 A 
ENDBRANCH   2   6
ENDBRANCH   1   2
BRANCH   1   9
ATOM      9  C   UNL     1       6.731   5.446  19.472  0.00  0.00    +0.000 C 
BRANCH   9  10
ATOM     10  C   UNL     1       7.575   5.724  18.215  0.00  0.00    +0.000 C 
BRANCH  10  11
ATOM     11  C   UNL     1       6.729   6.544  17.231  0.00  0.00    +0.000 C 
BRANCH  11  12
ATOM     12  N   UNL     1       6.712   6.091  15.829  0.00  0.00    +0.000 NA
ATOM     13  C   UNL     1       5.306   6.026  15.373  0.00  0.00    +0.000 C 
ATOM     14  C   UNL     1       4.862   4.617  15.715  0.00  0.00    +0.000 C 
ATOM     15  C   UNL     1       6.074   3.813  15.302  0.00  0.00    +0.000 C 
ATOM     16  C   UNL     1       7.253   4.732  15.622  0.00  0.00    +0.000 C 
ENDBRANCH  11  12
ENDBRANCH  10  11
ENDBRANCH   9  10
ENDBRANCH   1   9
TORSDOF 6
ENDMDL
MODEL 5
REMARK VINA RESULT:      -6.4      0.853      1.306
REMARK  Name = 
REMARK  6 active torsions:
REMARK  status: ('A' for Active; 'I' for Inactive)
REMARK    1  A    between atoms: C_4  and  C_5
REMARK    2  A    between atoms: C_5  and  C_6
REMARK    3  A    between atoms: C_6  and  C_7
REMARK    4  A    between atoms: C_7  and  C_8
REMARK    5  A    between atoms: C_8  and  C_9
REMARK    6  A    between atoms: C_9  and  N_10
REMARK                            x       y       z     vdW  Elec       q    Type
REMARK                         _______ _______ _______ _____ _____    ______ ____
ROOT
ATOM      1  C   UNL     1       2.642   6.190  18.183  0.00  0.00    +0.000 C 
ENDROOT
BRANCH   1   2
ATOM      2  C   UNL     1       3.813   6.981  17.597  0.00  0.00    +0.000 C 
BRANCH   2   6
ATOM      3  C   UNL     1       7.203   4.453  16.782  0.00  0.00    +0.000 A 
ATOM      4  C   UNL     1       6.041   4.328  16.026  0.00  0.00    +0.000 A 
ATOM      5  C   UNL     1       4.945   5.144  16.291  0.00  0.00    +0.000 A 
ATOM      6  C   UNL     1       5.005   6.102  17.321  0.00  0.00    +0.000 A 
ATOM      7  C   UNL     1       6.174   6.212  18.083  0.00  0.00    +0.000 A 
ATOM      8  C   UNL     1       7.271   5.393  17.811  0.00  0.00    +0.000 A 
ENDBRANCH   2   6
ENDBRANCH   1   2
BRANCH   1   9
ATOM      9  C   UNL     1       2.429   6.466  19.671  0.00  0.00    +0.000 C 
BRANCH   9  10
ATOM     10  C   UNL     1       1.983   5.244  20.496  0.00  0.00    +0.000 C 
BRANCH  10  11
ATOM     11  C   UNL     1       1.417   4.188  19.537  0.00  0.00    +0.000 C 
BRANCH  11  12
ATOM     12  N   UNL     1       1.892   2.805  19.715  0.00  0.00    +0.000 NA
ATOM     13  C   UNL     1       3.248   2.846  20.308  0.00  0.00    +0.000 C 
ATOM     14  C   UNL     1       4.182   2.892  19.114  0.00  0.00    +0.000 C 
ATOM     15  C   UNL     1       3.536   1.885  18.190  0.00  0.00    +0.000 C 
ATOM     16  C   UNL     1       2.039   2.045  18.457  0.00  0.00    +0.000 C 
ENDBRANCH  11  12
ENDBRANCH  10  11
ENDBRANCH   9  10
ENDBRANCH   1   9
TORSDOF 6
ENDMDL
MODEL 6
REMARK VINA RESULT:      -6.4      1.560      3.006
REMARK  Name = 
REMARK  6 active torsions:
REMARK  status: ('A' for Active; 'I' for Inactive)
REMARK    1  A    between atoms: C_4  and  C_5
REMARK    2  A    between atoms: C_5  and  C_6
REMARK    3  A    between atoms: C_6  and  C_7
REMARK    4  A    between atoms: C_7  and  C_8
REMARK    5  A    between atoms: C_8  and  C_9
REMARK    6  A    between atoms: C_9  and  N_10
REMARK                            x       y       z     vdW  Elec       q    Type
REMARK                         _______ _______ _______ _____ _____    ______ ____
ROOT
ATOM      1  C   UNL     1       4.191   3.783  18.140  0.00  0.00    +0.000 C 
ENDROOT
BRANCH   1   2
ATOM      2  C   UNL     1       4.841   4.550  16.987  0.00  0.00    +0.000 C 
BRANCH   2   6
ATOM      3  C   UNL     1       7.993   7.135  18.375  0.00  0.00    +0.000 A 
ATOM      4  C   UNL     1       7.844   5.863  18.918  0.00  0.00    +0.000 A 
ATOM      5  C   UNL     1       6.824   5.028  18.471  0.00  0.00    +0.000 A 
ATOM      6  C   UNL     1       5.940   5.462  17.465  0.00  0.00    +0.000 A 
ATOM      7  C   UNL     1       6.092   6.748  16.933  0.00  0.00    +0.000 A 
ATOM      8  C   UNL     1       7.118   7.580  17.383  0.00  0.00    +0.000 A 
ENDBRANCH   2   6
ENDBRANCH   1   2
BRANCH   1   9
ATOM      9  C   UNL     1       3.635   2.427  17.707  0.00  0.00    +0.000 C 
BRANCH   9  10
ATOM     10  C   UNL     1       2.120   2.254  17.922  0.00  0.00    +0.000 C 
BRANCH  10  11
ATOM     11  C   UNL     1       1.539   3.591  18.402  0.00  0.00    +0.000 C 
BRANCH  11  12
ATOM     12  N   UNL     1       0.864   3.592  19.712  0.00  0.00    +0.000 NA
ATOM     13  C   UNL     1       1.181   4.861  20.404  0.00  0.00    +0.000 C 
ATOM     14  C   UNL     1       2.446   4.558  21.185  0.00  0.00    +0.000 C 
ATOM     15  C   UNL     1       2.140   3.182  21.731  0.00  0.00    +0.000 C 
ATOM     16  C   UNL     1       1.311   2.523  20.628  0.00  0.00    +0.000 C 
ENDBRANCH  11  12
ENDBRANCH  10  11
ENDBRANCH   9  10
ENDBRANCH   1   9
TORSDOF 6
ENDMDL
MODEL 7
REMARK VINA RESULT:      -6.4      1.710      3.183
REMARK  Name = 
REMARK  6 active torsions:
REMARK  status: ('A' for Active; 'I' for Inactive)
REMARK    1  A    between atoms: C_4  and  C_5
REMARK    2  A    between atoms: C_5  and  C_6
REMARK    3  A    between atoms: C_6  and  C_7
REMARK    4  A    between atoms: C_7  and  C_8
REMARK    5  A    between atoms: C_8  and  C_9
REMARK    6  A    between atoms: C_9  and  N_10
REMARK                            x       y       z     vdW  Elec       q    Type
REMARK                         _______ _______ _______ _____ _____    ______ ____
ROOT
ATOM      1  C   UNL     1       4.770   4.064  16.154  0.00  0.00    +0.000 C 
ENDROOT
BRANCH   1   2
ATOM      2  C   UNL     1       6.296   4.087  16.042  0.00  0.00    +0.000 C 
BRANCH   2   6
ATOM      3  C   UNL     1       8.054   7.026  18.652  0.00  0.00    +0.000 A 
ATOM      4  C   UNL     1       7.477   7.418  17.448  0.00  0.00    +0.000 A 
ATOM      5  C   UNL     1       6.911   6.468  16.603  0.00  0.00    +0.000 A 
ATOM      6  C   UNL     1       6.914   5.107  16.962  0.00  0.00    +0.000 A 
ATOM      7  C   UNL     1       7.506   4.721  18.170  0.00  0.00    +0.000 A 
ATOM      8  C   UNL     1       8.071   5.679  19.015  0.00  0.00    +0.000 A 
ENDBRANCH   2   6
ENDBRANCH   1   2
BRANCH   1   9
ATOM      9  C   UNL     1       4.287   3.809  17.581  0.00  0.00    +0.000 C 
BRANCH   9  10
ATOM     10  C   UNL     1       3.026   2.932  17.688  0.00  0.00    +0.000 C 
BRANCH  10  11
ATOM     11  C   UNL     1       1.857   3.811  18.152  0.00  0.00    +0.000 C 
BRANCH  11  12
ATOM     12  N   UNL     1       1.118   3.361  19.345  0.00  0.00    +0.000 NA
ATOM     13  C   UNL     1       0.987   4.504  20.276  0.00  0.00    +0.000 C 
ATOM     14  C   UNL     1       2.223   4.421  21.152  0.00  0.00    +0.000 C 
ATOM     15  C   UNL     1       2.306   2.935  21.414  0.00  0.00    +0.000 C 
ATOM     16  C   UNL     1       1.798   2.302  20.118  0.00  0.00    +0.000 C 
ENDBRANCH  11  12
ENDBRANCH  10  11
ENDBRANCH   9  10
ENDBRANCH   1   9
TORSDOF 6
ENDMDL
MODEL 8
REMARK VINA RESULT:      -6.4      2.065      5.839
REMARK  Name = 
REMARK  6 active torsions:
REMARK  status: ('A' for Active; 'I' for Inactive)
REMARK    1  A    between atoms: C_4  and  C_5
REMARK    2  A    between atoms: C_5  and  C_6
REMARK    3  A    between atoms: C_6  and  C_7
REMARK    4  A    between atoms: C_7  and  C_8
REMARK    5  A    between atoms: C_8  and  C_9
REMARK    6  A    between atoms: C_9  and  N_10
REMARK                            x       y       z     vdW  Elec       q    Type
REMARK                         _______ _______ _______ _____ _____    ______ ____
ROOT
ATOM      1  C   UNL     1       3.078   5.974  17.681  0.00  0.00    +0.000 C 
ENDROOT
BRANCH   1   2
ATOM      2  C   UNL     1       2.370   6.205  19.018  0.00  0.00    +0.000 C 
BRANCH   2   6
ATOM      3  C   UNL     1       1.365   2.512  20.991  0.00  0.00    +0.000 A 
ATOM      4  C   UNL     1       2.078   3.495  21.670  0.00  0.00    +0.000 A 
ATOM      5  C   UNL     1       2.404   4.687  21.032  0.00  0.00    +0.000 A 
ATOM      6  C   UNL     1       2.013   4.910  19.698  0.00  0.00    +0.000 A 
ATOM      7  C   UNL     1       1.306   3.911  19.020  0.00  0.00    +0.000 A 
ATOM      8  C   UNL     1       0.978   2.717  19.666  0.00  0.00    +0.000 A 
ENDBRANCH   2   6
ENDBRANCH   1   2
BRANCH   1   9
ATOM      9  C   UNL     1       4.245   6.936  17.457  0.00  0.00    +0.000 C 
BRANCH   9  10
ATOM     10  C   UNL     1       4.929   6.809  16.083  0.00  0.00    +0.000 C 
BRANCH  10  11
ATOM     11  C   UNL     1       5.805   5.549  16.088  0.00  0.00    +0.000 C 
BRANCH  11  12
ATOM     12  N   UNL     1       7.228   5.730  16.423  0.00  0.00    +0.000 NA
ATOM     13  C   UNL     1       7.611   4.702  17.418  0.00  0.00    +0.000 C 
ATOM     14  C   UNL     1       7.330   5.352  18.759  0.00  0.00    +0.000 C 
ATOM     15  C   UNL     1       7.855   6.751  18.530  0.00  0.00    +0.000 C 
ATOM     16  C   UNL     1       7.545   7.025  17.058  0.00  0.00    +0.000 C 
ENDBRANCH  11  12
ENDBRANCH  10  11
ENDBRANCH   9  10
ENDBRANCH   1   9
TORSDOF 6
ENDMDL
MODEL 9
REMARK VINA RESULT:      -6.3      1.714      4.317
REMARK  Name = 
REMARK  6 active torsions:
REMARK  status: ('A' for Active; 'I' for Inactive)
REMARK    1  A    between atoms: C_4  and  C_5
REMARK    2  A    between atoms: C_5  and  C_6
REMARK    3  A    between atoms: C_6  and  C_7
REMARK    4  A    between atoms: C_7  and  C_8
REMARK    5  A    between atoms: C_8  and  C_9
REMARK    6  A    between atoms: C_9  and  N_10
REMARK                            x       y       z     vdW  Elec       q    Type
REMARK                         _______ _______ _______ _____ _____    ______ ____
ROOT
ATOM      1  C   UNL     1       4.118   6.136  17.519  0.00  0.00    +0.000 C 
ENDROOT
BRANCH   1   2
ATOM      2  C   UNL     1       3.366   6.194  18.851  0.00  0.00    +0.000 C 
BRANCH   2   6
ATOM      3  C   UNL     1       0.856   9.679  19.166  0.00  0.00    +0.000 A 
ATOM      4  C   UNL     1       1.078   8.876  20.280  0.00  0.00    +0.000 A 
ATOM      5  C   UNL     1       1.888   7.749  20.178  0.00  0.00    +0.000 A 
ATOM      6  C   UNL     1       2.490   7.415  18.950  0.00  0.00    +0.000 A 
ATOM      7  C   UNL     1       2.252   8.224  17.832  0.00  0.00    +0.000 A 
ATOM      8  C   UNL     1       1.441   9.355  17.941  0.00  0.00    +0.000 A 
ENDBRANCH   2   6
ENDBRANCH   1   2
BRANCH   1   9
ATOM      9  C   UNL     1       4.199   4.720  16.949  0.00  0.00    +0.000 C 
BRANCH   9  10
ATOM     10  C   UNL     1       4.148   3.598  18.002  0.00  0.00    +0.000 C 
BRANCH  10  11
ATOM     11  C   UNL     1       2.788   2.893  17.900  0.00  0.00    +0.000 C 
BRANCH  11  12
ATOM     12  N   UNL     1       2.279   2.249  19.123  0.00  0.00    +0.000 NA
ATOM     13  C   UNL     1       0.856   2.621  19.293  0.00  0.00    +0.000 C 
ATOM     14  C   UNL     1       0.895   3.894  20.118  0.00  0.00    +0.000 C 
ATOM     15  C   UNL     1       1.959   3.558  21.138  0.00  0.00    +0.000 C 
ATOM     16  C   UNL     1       2.948   2.684  20.365  0.00  0.00    +0.000 C 
ENDBRANCH  11  12
ENDBRANCH  10  11
ENDBRANCH   9  10
ENDBRANCH   1   9
TORSDOF 6
ENDMDL
