MODEL 1
REMARK VINA RESULT:      -9.4      0.000      0.000
REMARK  Name = 
REMARK  12 active torsions:
REMARK  status: ('A' for Active; 'I' for Inactive)
REMARK    1  A    between atoms: C_1  and  C_2
REMARK    2  A    between atoms: C_2  and  C_3
REMARK    3  A    between atoms: C_2  and  C_4
REMARK    4  A    between atoms: C_4  and  N_5
REMARK    5  A    between atoms: N_5  and  C_6
REMARK    6  A    between atoms: C_6  and  C_7
REMARK    7  A    between atoms: C_18  and  C_20
REMARK    8  A    between atoms: C_20  and  C_21
REMARK    9  A    between atoms: C_20  and  C_22
REMARK   10  A    between atoms: C_22  and  N_23
REMARK   11  A    between atoms: N_23  and  C_24
REMARK   12  A    between atoms: C_24  and  C_25
REMARK                            x       y       z     vdW  Elec       q    Type
REMARK                         _______ _______ _______ _____ _____    ______ ____
ROOT
ATOM      1  N   UNL     1       6.089   5.046  16.181  0.00  0.00    +0.000 N 
ATOM      2  C   UNL     1       7.181   5.156  17.047  0.00  0.00    +0.000 C 
ATOM      3  O   UNL     1       8.126   4.362  16.981  0.00  0.00    +0.000 OA
ENDROOT
BRANCH   2   4
ATOM      4  C   UNL     1       7.211   6.248  18.120  0.00  0.00    +0.000 C 
ATOM      5  C   UNL     1       7.996   5.740  19.329  0.00  0.00    +0.000 C 
BRANCH   4   6
ATOM      6  C   UNL     1       7.884   7.532  17.573  0.00  0.00    +0.000 C 
BRANCH   6   7
ATOM      7  N   UNL     1       8.485   8.428  18.566  0.00  0.00    +0.000 NA
ATOM      8  H   UNL     1       9.477   8.190  18.685  0.00  0.00    +0.000 HD
BRANCH   7   9
ATOM      9  C   UNL     1       8.352   9.840  18.241  0.00  0.00    +0.000 C 
BRANCH   9  10
ATOM     10  C   UNL     1       9.485  10.662  18.799  0.00  0.00    +0.000 A 
ATOM     11  C   UNL     1       9.509  10.973  20.159  0.00  0.00    +0.000 A 
ATOM     12  C   UNL     1      10.540  11.732  20.717  0.00  0.00    +0.000 A 
ATOM     13  C   UNL     1      11.580  12.174  19.916  0.00  0.00    +0.000 A 
ATOM     14  C   UNL     1      11.578  11.856  18.563  0.00  0.00    +0.000 A 
ATOM     15  C   UNL     1      10.542  11.104  18.004  0.00  0.00    +0.000 A 
ENDBRANCH   9  10
ENDBRANCH   7   9
ENDBRANCH   6   7
ENDBRANCH   4   6
ENDBRANCH   2   4
BRANCH   1  16
ATOM     16  C   UNL     1       6.168   3.997  15.151  0.00  0.00    +0.000 C 
BRANCH  16  18
ATOM     17  C   UNL     1       7.705   5.086  13.369  0.00  0.00    +0.000 C 
ATOM     18  C   UNL     1       6.356   4.440  13.682  0.00  0.00    +0.000 C 
ATOM     19  C   UNL     1       6.057   3.328  12.677  0.00  0.00    +0.000 C 
ENDBRANCH  16  18
ENDBRANCH   1  16
BRANCH   1  20
ATOM     20  C   UNL     1       4.876   5.882  16.219  0.00  0.00    +0.000 C 
BRANCH  20  21
ATOM     21  C   UNL     1       3.896   5.678  17.368  0.00  0.00    +0.000 A 
ATOM     22  C   UNL     1       3.459   6.684  18.235  0.00  0.00    +0.000 A 
ATOM     23  C   UNL     1       2.599   6.381  19.308  0.00  0.00    +0.000 A 
ATOM     24 CL   UNL     1       1.876   7.677  20.196  0.00  0.00    +0.000 Cl
ATOM     25  C   UNL     1       2.254   5.062  19.604  0.00  0.00    +0.000 A 
ATOM     26  C   UNL     1       2.614   4.064  18.707  0.00  0.00    +0.000 A 
ATOM     27  C   UNL     1       3.392   4.379  17.585  0.00  0.00    +0.000 A 
ATOM     28  O   UNL     1       2.222   2.757  18.842  0.00  0.00    +0.000 OA
ATOM     29  C   UNL     1       1.861   2.447  20.190  0.00  0.00    +0.000 C 
ATOM     30  C   UNL     1       0.988   3.521  20.815  0.00  0.00    +0.000 C 
ATOM     31  O   UNL     1       1.608   4.806  20.786  0.00  0.00    +0.000 OA
ENDBRANCH  20  21
ENDBRANCH   1  20
TORSDOF 9
ENDMDL
MODEL 2
REMARK VINA RESULT:      -8.7      0.697      1.169
REMARK  Name = 
REMARK  12 active torsions:
REMARK  status: ('A' for Active; 'I' for Inactive)
REMARK    1  A    between atoms: C_1  and  C_2
REMARK    2  A    between atoms: C_2  and  C_3
REMARK    3  A    between atoms: C_2  and  C_4
REMARK    4  A    between atoms: C_4  and  N_5
REMARK    5  A    between atoms: N_5  and  C_6
REMARK    6  A    between atoms: C_6  and  C_7
REMARK    7  A    between atoms: C_18  and  C_20
REMARK    8  A    between atoms: C_20  and  C_21
REMARK    9  A    between atoms: C_20  and  C_22
REMARK   10  A    between atoms: C_22  and  N_23
REMARK   11  A    between atoms: N_23  and  C_24
REMARK   12  A    between atoms: C_24  and  C_25
REMARK                            x       y       z     vdW  Elec       q    Type
REMARK                         _______ _______ _______ _____ _____    ______ ____
ROOT
ATOM      1  N   UNL     1       6.114   4.788  16.358  0.00  0.00    +0.000 N 
ATOM      2  C   UNL     1       7.213   5.011  17.193  0.00  0.00    +0.000 C 
ATOM      3  O   UNL     1       8.181   4.242  17.187  0.00  0.00    +0.000 OA
ENDROOT
BRANCH   2   4
ATOM      4  C   UNL     1       7.222   6.198  18.160  0.00  0.00    +0.000 C 
ATOM      5  C   UNL     1       8.147   5.879  19.334  0.00  0.00    +0.000 C 
BRANCH   4   6
ATOM      6  C   UNL     1       7.722   7.479  17.446  0.00  0.00    +0.000 C 
BRANCH   6   7
ATOM      7  N   UNL     1       8.311   8.515  18.300  0.00  0.00    +0.000 NA
ATOM      8  H   UNL     1       9.236   8.207  18.623  0.00  0.00    +0.000 HD
BRANCH   7   9
ATOM      9  C   UNL     1       8.421   9.816  17.656  0.00  0.00    +0.000 C 
BRANCH   9  10
ATOM     10  C   UNL     1       9.054  10.844  18.557  0.00  0.00    +0.000 A 
ATOM     11  C   UNL     1       9.140  12.173  18.136  0.00  0.00    +0.000 A 
ATOM     12  C   UNL     1       9.719  13.158  18.939  0.00  0.00    +0.000 A 
ATOM     13  C   UNL     1      10.205  12.825  20.193  0.00  0.00    +0.000 A 
ATOM     14  C   UNL     1      10.109  11.510  20.632  0.00  0.00    +0.000 A 
ATOM     15  C   UNL     1       9.538  10.523  19.824  0.00  0.00    +0.000 A 
ENDBRANCH   9  10
ENDBRANCH   7   9
ENDBRANCH   6   7
ENDBRANCH   4   6
ENDBRANCH   2   4
BRANCH   1  16
ATOM     16  C   UNL     1       6.213   3.651  15.428  0.00  0.00    +0.000 C 
BRANCH  16  18
ATOM     17  C   UNL     1       5.365   3.982  13.000  0.00  0.00    +0.000 C 
ATOM     18  C   UNL     1       6.560   3.953  13.951  0.00  0.00    +0.000 C 
ATOM     19  C   UNL     1       7.404   5.215  13.780  0.00  0.00    +0.000 C 
ENDBRANCH  16  18
ENDBRANCH   1  16
BRANCH   1  20
ATOM     20  C   UNL     1       4.876   5.588  16.336  0.00  0.00    +0.000 C 
BRANCH  20  21
ATOM     21  C   UNL     1       3.899   5.433  17.495  0.00  0.00    +0.000 A 
ATOM     22  C   UNL     1       3.433   6.480  18.294  0.00  0.00    +0.000 A 
ATOM     23  C   UNL     1       2.577   6.225  19.383  0.00  0.00    +0.000 A 
ATOM     24 CL   UNL     1       1.820   7.556  20.186  0.00  0.00    +0.000 Cl
ATOM     25  C   UNL     1       2.266   4.919  19.763  0.00  0.00    +0.000 A 
ATOM     26  C   UNL     1       2.654   3.875  18.931  0.00  0.00    +0.000 A 
ATOM     27  C   UNL     1       3.427   4.138  17.793  0.00  0.00    +0.000 A 
ATOM     28  O   UNL     1       2.294   2.570  19.149  0.00  0.00    +0.000 OA
ATOM     29  C   UNL     1       1.936   2.337  20.513  0.00  0.00    +0.000 C 
ATOM     30  C   UNL     1       1.035   3.427  21.067  0.00  0.00    +0.000 C 
ATOM     31  O   UNL     1       1.622   4.722  20.957  0.00  0.00    +0.000 OA
ENDBRANCH  20  21
ENDBRANCH   1  20
TORSDOF 9
ENDMDL
MODEL 3
REMARK VINA RESULT:      -8.5      1.425      2.450
REMARK  Name = 
REMARK  12 active torsions:
REMARK  status: ('A' for Active; 'I' for Inactive)
REMARK    1  A    between atoms: C_1  and  C_2
REMARK    2  A    between atoms: C_2  and  C_3
REMARK    3  A    between atoms: C_2  and  C_4
REMARK    4  A    between atoms: C_4  and  N_5
REMARK    5  A    between atoms: N_5  and  C_6
REMARK    6  A    between atoms: C_6  and  C_7
REMARK    7  A    between atoms: C_18  and  C_20
REMARK    8  A    between atoms: C_20  and  C_21
REMARK    9  A    between atoms: C_20  and  C_22
REMARK   10  A    between atoms: C_22  and  N_23
REMARK   11  A    between atoms: N_23  and  C_24
REMARK   12  A    between atoms: C_24  and  C_25
REMARK                            x       y       z     vdW  Elec       q    Type
REMARK                         _______ _______ _______ _____ _____    ______ ____
ROOT
ATOM      1  N   UNL     1       5.978   4.743  16.344  0.00  0.00    +0.000 N 
ATOM      2  C   UNL     1       7.052   4.993  17.204  0.00  0.00    +0.000 C 
ATOM      3  O   UNL     1       8.021   4.227  17.249  0.00  0.00    +0.000 OA
ENDROOT
BRANCH   2   4
ATOM      4  C   UNL     1       7.033   6.210  18.134  0.00  0.00    +0.000 C 
ATOM      5  C   UNL     1       7.784   5.868  19.419  0.00  0.00    +0.000 C 
BRANCH   4   6
ATOM      6  C   UNL     1       7.707   7.428  17.453  0.00  0.00    +0.000 C 
BRANCH   6   7
ATOM      7  N   UNL     1       8.516   8.293  18.316  0.00  0.00    +0.000 NA
ATOM      8  H   UNL     1       9.511   8.090  18.167  0.00  0.00    +0.000 HD
BRANCH   7   9
ATOM      9  C   UNL     1       8.269   9.714  18.123  0.00  0.00    +0.000 C 
BRANCH   9  10
ATOM     10  C   UNL     1       9.373  10.566  18.693  0.00  0.00    +0.000 A 
ATOM     11  C   UNL     1      10.350  11.091  17.845  0.00  0.00    +0.000 A 
ATOM     12  C   UNL     1      11.391  11.885  18.332  0.00  0.00    +0.000 A 
ATOM     13  C   UNL     1      11.454  12.183  19.683  0.00  0.00    +0.000 A 
ATOM     14  C   UNL     1      10.477  11.683  20.536  0.00  0.00    +0.000 A 
ATOM     15  C   UNL     1       9.441  10.881  20.049  0.00  0.00    +0.000 A 
ENDBRANCH   9  10
ENDBRANCH   7   9
ENDBRANCH   6   7
ENDBRANCH   4   6
ENDBRANCH   2   4
BRANCH   1  16
ATOM     16  C   UNL     1       6.105   3.578  15.453  0.00  0.00    +0.000 C 
BRANCH  16  18
ATOM     17  C   UNL     1       5.235   3.842  13.025  0.00  0.00    +0.000 C 
ATOM     18  C   UNL     1       6.438   3.839  13.966  0.00  0.00    +0.000 C 
ATOM     19  C   UNL     1       7.280   5.097  13.752  0.00  0.00    +0.000 C 
ENDBRANCH  16  18
ENDBRANCH   1  16
BRANCH   1  20
ATOM     20  C   UNL     1       4.740   5.540  16.264  0.00  0.00    +0.000 C 
BRANCH  20  21
ATOM     21  C   UNL     1       3.969   5.803  17.550  0.00  0.00    +0.000 A 
ATOM     22  C   UNL     1       3.651   4.832  18.505  0.00  0.00    +0.000 A 
ATOM     23  C   UNL     1       2.878   5.163  19.635  0.00  0.00    +0.000 A 
ATOM     24 CL   UNL     1       2.724   4.010  20.914  0.00  0.00    +0.000 Cl
ATOM     25  C   UNL     1       2.313   6.431  19.773  0.00  0.00    +0.000 A 
ATOM     26  C   UNL     1       2.686   7.426  18.877  0.00  0.00    +0.000 A 
ATOM     27  C   UNL     1       3.533   7.120  17.804  0.00  0.00    +0.000 A 
ATOM     28  O   UNL     1       2.285   8.732  18.997  0.00  0.00    +0.000 OA
ATOM     29  C   UNL     1       1.101   8.854  19.790  0.00  0.00    +0.000 C 
ATOM     30  C   UNL     1       1.163   8.009  21.050  0.00  0.00    +0.000 C 
ATOM     31  O   UNL     1       1.388   6.629  20.766  0.00  0.00    +0.000 OA
ENDBRANCH  20  21
ENDBRANCH   1  20
TORSDOF 9
ENDMDL
MODEL 4
REMARK VINA RESULT:      -7.9      0.954      1.193
REMARK  Name = 
REMARK  12 active torsions:
REMARK  status: ('A' for Active; 'I' for Inactive)
REMARK    1  A    between atoms: C_1  and  C_2
REMARK    2  A    between atoms: C_2  and  C_3
REMARK    3  A    between atoms: C_2  and  C_4
REMARK    4  A    between atoms: C_4  and  N_5
REMARK    5  A    between atoms: N_5  and  C_6
REMARK    6  A    between atoms: C_6  and  C_7
REMARK    7  A    between atoms: C_18  and  C_20
REMARK    8  A    between atoms: C_20  and  C_21
REMARK    9  A    between atoms: C_20  and  C_22
REMARK   10  A    between atoms: C_22  and  N_23
REMARK   11  A    between atoms: N_23  and  C_24
REMARK   12  A    between atoms: C_24  and  C_25
REMARK                            x       y       z     vdW  Elec       q    Type
REMARK                         _______ _______ _______ _____ _____    ______ ____
ROOT
ATOM      1  N   UNL     1       6.101   4.915  16.304  0.00  0.00    +0.000 N 
ATOM      2  C   UNL     1       7.207   5.191  17.114  0.00  0.00    +0.000 C 
ATOM      3  O   UNL     1       8.178   4.427  17.147  0.00  0.00    +0.000 OA
ENDROOT
BRANCH   2   4
ATOM      4  C   UNL     1       7.221   6.436  18.006  0.00  0.00    +0.000 C 
ATOM      5  C   UNL     1       8.100   6.167  19.226  0.00  0.00    +0.000 C 
BRANCH   4   6
ATOM      6  C   UNL     1       7.778   7.657  17.230  0.00  0.00    +0.000 C 
BRANCH   6   7
ATOM      7  N   UNL     1       7.816   8.930  17.956  0.00  0.00    +0.000 NA
ATOM      8  H   UNL     1       7.369   8.814  18.873  0.00  0.00    +0.000 HD
BRANCH   7   9
ATOM      9  C   UNL     1       9.157   9.469  18.126  0.00  0.00    +0.000 C 
BRANCH   9  10
ATOM     10  C   UNL     1       9.155  10.765  18.896  0.00  0.00    +0.000 A 
ATOM     11  C   UNL     1       9.392  10.753  20.272  0.00  0.00    +0.000 A 
ATOM     12  C   UNL     1       9.399  11.930  21.023  0.00  0.00    +0.000 A 
ATOM     13  C   UNL     1       9.186  13.147  20.396  0.00  0.00    +0.000 A 
ATOM     14  C   UNL     1       8.967  13.175  19.024  0.00  0.00    +0.000 A 
ATOM     15  C   UNL     1       8.952  11.996  18.274  0.00  0.00    +0.000 A 
ENDBRANCH   9  10
ENDBRANCH   7   9
ENDBRANCH   6   7
ENDBRANCH   4   6
ENDBRANCH   2   4
BRANCH   1  16
ATOM     16  C   UNL     1       6.196   3.722  15.445  0.00  0.00    +0.000 C 
BRANCH  16  18
ATOM     17  C   UNL     1       5.292   3.906  13.023  0.00  0.00    +0.000 C 
ATOM     18  C   UNL     1       6.508   3.935  13.946  0.00  0.00    +0.000 C 
ATOM     19  C   UNL     1       7.346   5.185  13.679  0.00  0.00    +0.000 C 
ENDBRANCH  16  18
ENDBRANCH   1  16
BRANCH   1  20
ATOM     20  C   UNL     1       4.861   5.709  16.244  0.00  0.00    +0.000 C 
BRANCH  20  21
ATOM     21  C   UNL     1       3.788   5.447  17.294  0.00  0.00    +0.000 A 
ATOM     22  C   UNL     1       3.446   6.326  18.325  0.00  0.00    +0.000 A 
ATOM     23  C   UNL     1       2.482   5.965  19.285  0.00  0.00    +0.000 A 
ATOM     24 CL   UNL     1       1.901   7.167  20.385  0.00  0.00    +0.000 Cl
ATOM     25  C   UNL     1       1.928   4.685  19.303  0.00  0.00    +0.000 A 
ATOM     26  C   UNL     1       2.196   3.831  18.240  0.00  0.00    +0.000 A 
ATOM     27  C   UNL     1       3.085   4.226  17.232  0.00  0.00    +0.000 A 
ATOM     28  O   UNL     1       1.608   2.600  18.100  0.00  0.00    +0.000 OA
ATOM     29  C   UNL     1       1.116   2.101  19.346  0.00  0.00    +0.000 C 
ATOM     30  C   UNL     1       0.372   3.161  20.138  0.00  0.00    +0.000 C 
ATOM     31  O   UNL     1       1.174   4.314  20.386  0.00  0.00    +0.000 OA
ENDBRANCH  20  21
ENDBRANCH   1  20
TORSDOF 9
ENDMDL
MODEL 5
REMARK VINA RESULT:      -7.5      3.856      6.694
REMARK  Name = 
REMARK  12 active torsions:
REMARK  status: ('A' for Active; 'I' for Inactive)
REMARK    1  A    between atoms: C_1  and  C_2
REMARK    2  A    between atoms: C_2  and  C_3
REMARK    3  A    between atoms: C_2  and  C_4
REMARK    4  A    between atoms: C_4  and  N_5
REMARK    5  A    between atoms: N_5  and  C_6
REMARK    6  A    between atoms: C_6  and  C_7
REMARK    7  A    between atoms: C_18  and  C_20
REMARK    8  A    between atoms: C_20  and  C_21
REMARK    9  A    between atoms: C_20  and  C_22
REMARK   10  A    between atoms: C_22  and  N_23
REMARK   11  A    between atoms: N_23  and  C_24
REMARK   12  A    between atoms: C_24  and  C_25
REMARK                            x       y       z     vdW  Elec       q    Type
REMARK                         _______ _______ _______ _____ _____    ______ ____
ROOT
ATOM      1  N   UNL     1       3.301   5.814  18.136  0.00  0.00    +0.000 N 
ATOM      2  C   UNL     1       4.492   5.153  18.449  0.00  0.00    +0.000 C 
ATOM      3  O   UNL     1       4.490   3.960  18.773  0.00  0.00    +0.000 OA
ENDROOT
BRANCH   2   4
ATOM      4  C   UNL     1       5.825   5.907  18.427  0.00  0.00    +0.000 C 
ATOM      5  C   UNL     1       6.720   5.372  19.545  0.00  0.00    +0.000 C 
BRANCH   4   6
ATOM      6  C   UNL     1       6.536   5.718  17.064  0.00  0.00    +0.000 C 
BRANCH   6   7
ATOM      7  N   UNL     1       6.826   4.337  16.665  0.00  0.00    +0.000 NA
ATOM      8  H   UNL     1       6.815   3.732  17.494  0.00  0.00    +0.000 HD
BRANCH   7   9
ATOM      9  C   UNL     1       5.912   3.812  15.660  0.00  0.00    +0.000 C 
BRANCH   9  10
ATOM     10  C   UNL     1       6.412   4.051  14.259  0.00  0.00    +0.000 A 
ATOM     11  C   UNL     1       5.862   3.331  13.196  0.00  0.00    +0.000 A 
ATOM     12  C   UNL     1       6.296   3.520  11.883  0.00  0.00    +0.000 A 
ATOM     13  C   UNL     1       7.281   4.455  11.612  0.00  0.00    +0.000 A 
ATOM     14  C   UNL     1       7.825   5.192  12.658  0.00  0.00    +0.000 A 
ATOM     15  C   UNL     1       7.396   4.996  13.973  0.00  0.00    +0.000 A 
ENDBRANCH   9  10
ENDBRANCH   7   9
ENDBRANCH   6   7
ENDBRANCH   4   6
ENDBRANCH   2   4
BRANCH   1  16
ATOM     16  C   UNL     1       2.075   4.998  18.136  0.00  0.00    +0.000 C 
BRANCH  16  18
ATOM     17  C   UNL     1       1.349   4.675  20.604  0.00  0.00    +0.000 C 
ATOM     18  C   UNL     1       1.854   4.025  19.318  0.00  0.00    +0.000 C 
ATOM     19  C   UNL     1       0.980   2.826  18.951  0.00  0.00    +0.000 C 
ENDBRANCH  16  18
ENDBRANCH   1  16
BRANCH   1  20
ATOM     20  C   UNL     1       3.173   7.247  17.815  0.00  0.00    +0.000 C 
BRANCH  20  21
ATOM     21  C   UNL     1       2.127   8.063  18.564  0.00  0.00    +0.000 A 
ATOM     22  C   UNL     1       1.271   8.998  17.977  0.00  0.00    +0.000 A 
ATOM     23  C   UNL     1       0.379   9.749  18.767  0.00  0.00    +0.000 A 
ATOM     24 CL   UNL     1      -0.835  10.702  17.987  0.00  0.00    +0.000 Cl
ATOM     25  C   UNL     1       0.405   9.664  20.159  0.00  0.00    +0.000 A 
ATOM     26  C   UNL     1       1.191   8.682  20.751  0.00  0.00    +0.000 A 
ATOM     27  C   UNL     1       2.010   7.869  19.956  0.00  0.00    +0.000 A 
ATOM     28  O   UNL     1       1.194   8.436  22.099  0.00  0.00    +0.000 OA
ATOM     29  C   UNL     1       0.728   9.562  22.847  0.00  0.00    +0.000 C 
ATOM     30  C   UNL     1      -0.518  10.182  22.238  0.00  0.00    +0.000 C 
ATOM     31  O   UNL     1      -0.318  10.577  20.883  0.00  0.00    +0.000 OA
ENDBRANCH  20  21
ENDBRANCH   1  20
TORSDOF 9
ENDMDL
MODEL 6
REMARK VINA RESULT:      -7.5      3.587      6.891
REMARK  Name = 
REMARK  12 active torsions:
REMARK  status: ('A' for Active; 'I' for Inactive)
REMARK    1  A    between atoms: C_1  and  C_2
REMARK    2  A    between atoms: C_2  and  C_3
REMARK    3  A    between atoms: C_2  and  C_4
REMARK    4  A    between atoms: C_4  and  N_5
REMARK    5  A    between atoms: N_5  and  C_6
REMARK    6  A    between atoms: C_6  and  C_7
REMARK    7  A    between atoms: C_18  and  C_20
REMARK    8  A    between atoms: C_20  and  C_21
REMARK    9  A    between atoms: C_20  and  C_22
REMARK   10  A    between atoms: C_22  and  N_23
REMARK   11  A    between atoms: N_23  and  C_24
REMARK   12  A    between atoms: C_24  and  C_25
REMARK                            x       y       z     vdW  Elec       q    Type
REMARK                         _______ _______ _______ _____ _____    ______ ____
ROOT
ATOM      1  N   UNL     1       3.813   5.250  18.737  0.00  0.00    +0.000 N 
ATOM      2  C   UNL     1       5.131   4.821  18.927  0.00  0.00    +0.000 C 
ATOM      3  O   UNL     1       5.384   3.843  19.638  0.00  0.00    +0.000 OA
ENDROOT
BRANCH   2   4
ATOM      4  C   UNL     1       6.293   5.581  18.280  0.00  0.00    +0.000 C 
ATOM      5  C   UNL     1       7.379   5.819  19.328  0.00  0.00    +0.000 C 
BRANCH   4   6
ATOM      6  C   UNL     1       6.885   4.769  17.100  0.00  0.00    +0.000 C 
BRANCH   6   7
ATOM      7  N   UNL     1       5.922   4.092  16.226  0.00  0.00    +0.000 NA
ATOM      8  H   UNL     1       5.120   3.773  16.782  0.00  0.00    +0.000 HD
BRANCH   7   9
ATOM      9  C   UNL     1       5.458   4.912  15.116  0.00  0.00    +0.000 C 
BRANCH   9  10
ATOM     10  C   UNL     1       5.810   4.312  13.780  0.00  0.00    +0.000 A 
ATOM     11  C   UNL     1       7.031   4.625  13.181  0.00  0.00    +0.000 A 
ATOM     12  C   UNL     1       7.396   4.092  11.943  0.00  0.00    +0.000 A 
ATOM     13  C   UNL     1       6.545   3.214  11.294  0.00  0.00    +0.000 A 
ATOM     14  C   UNL     1       5.333   2.878  11.888  0.00  0.00    +0.000 A 
ATOM     15  C   UNL     1       4.964   3.420  13.122  0.00  0.00    +0.000 A 
ENDBRANCH   9  10
ENDBRANCH   7   9
ENDBRANCH   6   7
ENDBRANCH   4   6
ENDBRANCH   2   4
BRANCH   1  16
ATOM     16  C   UNL     1       2.758   4.432  19.357  0.00  0.00    +0.000 C 
BRANCH  16  18
ATOM     17  C   UNL     1       2.281   3.083  17.195  0.00  0.00    +0.000 C 
ATOM     18  C   UNL     1       1.708   3.780  18.427  0.00  0.00    +0.000 C 
ATOM     19  C   UNL     1       0.750   2.847  19.167  0.00  0.00    +0.000 C 
ENDBRANCH  16  18
ENDBRANCH   1  16
BRANCH   1  20
ATOM     20  C   UNL     1       3.401   6.445  17.978  0.00  0.00    +0.000 C 
BRANCH  20  21
ATOM     21  C   UNL     1       2.515   7.470  18.675  0.00  0.00    +0.000 A 
ATOM     22  C   UNL     1       2.286   7.522  20.053  0.00  0.00    +0.000 A 
ATOM     23  C   UNL     1       1.399   8.472  20.596  0.00  0.00    +0.000 A 
ATOM     24 CL   UNL     1       1.337   8.677  22.312  0.00  0.00    +0.000 Cl
ATOM     25  C   UNL     1       0.643   9.305  19.771  0.00  0.00    +0.000 A 
ATOM     26  C   UNL     1       0.919   9.320  18.409  0.00  0.00    +0.000 A 
ATOM     27  C   UNL     1       1.872   8.439  17.879  0.00  0.00    +0.000 A 
ATOM     28  O   UNL     1       0.320  10.186  17.532  0.00  0.00    +0.000 OA
ATOM     29  C   UNL     1      -0.918  10.688  18.042  0.00  0.00    +0.000 C 
ATOM     30  C   UNL     1      -0.813  11.107  19.498  0.00  0.00    +0.000 C 
ATOM     31  O   UNL     1      -0.365  10.044  20.336  0.00  0.00    +0.000 OA
ENDBRANCH  20  21
ENDBRANCH   1  20
TORSDOF 9
ENDMDL
MODEL 7
REMARK VINA RESULT:      -7.5      2.536      4.264
REMARK  Name = 
REMARK  12 active torsions:
REMARK  status: ('A' for Active; 'I' for Inactive)
REMARK    1  A    between atoms: C_1  and  C_2
REMARK    2  A    between atoms: C_2  and  C_3
REMARK    3  A    between atoms: C_2  and  C_4
REMARK    4  A    between atoms: C_4  and  N_5
REMARK    5  A    between atoms: N_5  and  C_6
REMARK    6  A    between atoms: C_6  and  C_7
REMARK    7  A    between atoms: C_18  and  C_20
REMARK    8  A    between atoms: C_20  and  C_21
REMARK    9  A    between atoms: C_20  and  C_22
REMARK   10  A    between atoms: C_22  and  N_23
REMARK   11  A    between atoms: N_23  and  C_24
REMARK   12  A    between atoms: C_24  and  C_25
REMARK                            x       y       z     vdW  Elec       q    Type
REMARK                         _______ _______ _______ _____ _____    ______ ____
ROOT
ATOM      1  N   UNL     1       3.665   4.867  18.042  0.00  0.00    +0.000 N 
ATOM      2  C   UNL     1       4.843   4.877  17.289  0.00  0.00    +0.000 C 
ATOM      3  O   UNL     1       4.905   4.296  16.200  0.00  0.00    +0.000 OA
ENDROOT
BRANCH   2   4
ATOM      4  C   UNL     1       6.095   5.583  17.818  0.00  0.00    +0.000 C 
ATOM      5  C   UNL     1       7.330   4.781  17.411  0.00  0.00    +0.000 C 
BRANCH   4   6
ATOM      6  C   UNL     1       6.199   7.016  17.238  0.00  0.00    +0.000 C 
BRANCH   6   7
ATOM      7  N   UNL     1       7.550   7.569  17.102  0.00  0.00    +0.000 NA
ATOM      8  H   UNL     1       7.521   8.398  16.498  0.00  0.00    +0.000 HD
BRANCH   7   9
ATOM      9  C   UNL     1       8.178   7.905  18.372  0.00  0.00    +0.000 C 
BRANCH   9  10
ATOM     10  C   UNL     1       8.555   9.362  18.451  0.00  0.00    +0.000 A 
ATOM     11  C   UNL     1       8.025  10.265  17.527  0.00  0.00    +0.000 A 
ATOM     12  C   UNL     1       8.349  11.623  17.564  0.00  0.00    +0.000 A 
ATOM     13  C   UNL     1       9.199  12.101  18.548  0.00  0.00    +0.000 A 
ATOM     14  C   UNL     1       9.719  11.216  19.485  0.00  0.00    +0.000 A 
ATOM     15  C   UNL     1       9.402   9.856  19.442  0.00  0.00    +0.000 A 
ENDBRANCH   9  10
ENDBRANCH   7   9
ENDBRANCH   6   7
ENDBRANCH   4   6
ENDBRANCH   2   4
BRANCH   1  16
ATOM     16  C   UNL     1       2.499   4.206  17.434  0.00  0.00    +0.000 C 
BRANCH  16  18
ATOM     17  C   UNL     1       3.282   1.922  18.378  0.00  0.00    +0.000 C 
ATOM     18  C   UNL     1       2.109   2.805  17.957  0.00  0.00    +0.000 C 
ATOM     19  C   UNL     1       1.056   2.851  19.065  0.00  0.00    +0.000 C 
ENDBRANCH  16  18
ENDBRANCH   1  16
BRANCH   1  20
ATOM     20  C   UNL     1       3.500   5.456  19.384  0.00  0.00    +0.000 C 
BRANCH  20  21
ATOM     21  C   UNL     1       2.647   6.711  19.519  0.00  0.00    +0.000 A 
ATOM     22  C   UNL     1       2.575   7.734  18.570  0.00  0.00    +0.000 A 
ATOM     23  C   UNL     1       1.803   8.887  18.815  0.00  0.00    +0.000 A 
ATOM     24 CL   UNL     1       1.530  10.005  17.525  0.00  0.00    +0.000 Cl
ATOM     25  C   UNL     1       1.188   9.090  20.050  0.00  0.00    +0.000 A 
ATOM     26  C   UNL     1       1.183   8.049  20.970  0.00  0.00    +0.000 A 
ATOM     27  C   UNL     1       1.873   6.862  20.687  0.00  0.00    +0.000 A 
ATOM     28  O   UNL     1       0.505   8.102  22.160  0.00  0.00    +0.000 OA
ATOM     29  C   UNL     1       0.245   9.449  22.565  0.00  0.00    +0.000 C 
ATOM     30  C   UNL     1      -0.259  10.308  21.418  0.00  0.00    +0.000 C 
ATOM     31  O   UNL     1       0.646  10.322  20.315  0.00  0.00    +0.000 OA
ENDBRANCH  20  21
ENDBRANCH   1  20
TORSDOF 9
ENDMDL
MODEL 8
REMARK VINA RESULT:      -7.5      1.028      1.505
REMARK  Name = 
REMARK  12 active torsions:
REMARK  status: ('A' for Active; 'I' for Inactive)
REMARK    1  A    between atoms: C_1  and  C_2
REMARK    2  A    between atoms: C_2  and  C_3
REMARK    3  A    between atoms: C_2  and  C_4
REMARK    4  A    between atoms: C_4  and  N_5
REMARK    5  A    between atoms: N_5  and  C_6
REMARK    6  A    between atoms: C_6  and  C_7
REMARK    7  A    between atoms: C_18  and  C_20
REMARK    8  A    between atoms: C_20  and  C_21
REMARK    9  A    between atoms: C_20  and  C_22
REMARK   10  A    between atoms: C_22  and  N_23
REMARK   11  A    between atoms: N_23  and  C_24
REMARK   12  A    between atoms: C_24  and  C_25
REMARK                            x       y       z     vdW  Elec       q    Type
REMARK                         _______ _______ _______ _____ _____    ______ ____
ROOT
ATOM      1  N   UNL     1       5.583   6.339  16.167  0.00  0.00    +0.000 N 
ATOM      2  C   UNL     1       6.831   6.234  16.787  0.00  0.00    +0.000 C 
ATOM      3  O   UNL     1       7.731   5.547  16.290  0.00  0.00    +0.000 OA
ENDROOT
BRANCH   2   4
ATOM      4  C   UNL     1       7.098   6.944  18.118  0.00  0.00    +0.000 C 
ATOM      5  C   UNL     1       7.245   5.897  19.221  0.00  0.00    +0.000 C 
BRANCH   4   6
ATOM      6  C   UNL     1       8.393   7.789  18.035  0.00  0.00    +0.000 C 
BRANCH   6   7
ATOM      7  N   UNL     1       8.235   9.241  18.169  0.00  0.00    +0.000 NA
ATOM      8  H   UNL     1       7.238   9.482  18.124  0.00  0.00    +0.000 HD
BRANCH   7   9
ATOM      9  C   UNL     1       8.818   9.785  19.387  0.00  0.00    +0.000 C 
BRANCH   9  10
ATOM     10  C   UNL     1       9.870  10.824  19.098  0.00  0.00    +0.000 A 
ATOM     11  C   UNL     1      10.011  11.325  17.802  0.00  0.00    +0.000 A 
ATOM     12  C   UNL     1      10.973  12.287  17.490  0.00  0.00    +0.000 A 
ATOM     13  C   UNL     1      11.800  12.780  18.485  0.00  0.00    +0.000 A 
ATOM     14  C   UNL     1      11.660  12.304  19.784  0.00  0.00    +0.000 A 
ATOM     15  C   UNL     1      10.702  11.334  20.093  0.00  0.00    +0.000 A 
ENDBRANCH   9  10
ENDBRANCH   7   9
ENDBRANCH   6   7
ENDBRANCH   4   6
ENDBRANCH   2   4
BRANCH   1  16
ATOM     16  C   UNL     1       5.433   5.663  14.868  0.00  0.00    +0.000 C 
BRANCH  16  18
ATOM     17  C   UNL     1       5.284   3.207  15.686  0.00  0.00    +0.000 C 
ATOM     18  C   UNL     1       5.949   4.211  14.745  0.00  0.00    +0.000 C 
ATOM     19  C   UNL     1       5.926   3.686  13.310  0.00  0.00    +0.000 C 
ENDBRANCH  16  18
ENDBRANCH   1  16
BRANCH   1  20
ATOM     20  C   UNL     1       4.416   7.062  16.706  0.00  0.00    +0.000 C 
BRANCH  20  21
ATOM     21  C   UNL     1       3.679   6.454  17.893  0.00  0.00    +0.000 A 
ATOM     22  C   UNL     1       2.966   7.183  18.849  0.00  0.00    +0.000 A 
ATOM     23  C   UNL     1       2.370   6.533  19.947  0.00  0.00    +0.000 A 
ATOM     24 CL   UNL     1       1.287   7.421  20.962  0.00  0.00    +0.000 Cl
ATOM     25  C   UNL     1       2.570   5.171  20.172  0.00  0.00    +0.000 A 
ATOM     26  C   UNL     1       3.205   4.421  19.190  0.00  0.00    +0.000 A 
ATOM     27  C   UNL     1       3.717   5.053  18.049  0.00  0.00    +0.000 A 
ATOM     28  O   UNL     1       3.343   3.059  19.258  0.00  0.00    +0.000 OA
ATOM     29  C   UNL     1       3.232   2.579  20.600  0.00  0.00    +0.000 C 
ATOM     30  C   UNL     1       2.073   3.217  21.346  0.00  0.00    +0.000 C 
ATOM     31  O   UNL     1       2.162   4.640  21.369  0.00  0.00    +0.000 OA
ENDBRANCH  20  21
ENDBRANCH   1  20
TORSDOF 9
ENDMDL
MODEL 9
REMARK VINA RESULT:      -7.5      6.593     10.283
REMARK  Name = 
REMARK  12 active torsions:
REMARK  status: ('A' for Active; 'I' for Inactive)
REMARK    1  A    between atoms: C_1  and  C_2
REMARK    2  A    between atoms: C_2  and  C_3
REMARK    3  A    between atoms: C_2  and  C_4
REMARK    4  A    between atoms: C_4  and  N_5
REMARK    5  A    between atoms: N_5  and  C_6
REMARK    6  A    between atoms: C_6  and  C_7
REMARK    7  A    between atoms: C_18  and  C_20
REMARK    8  A    between atoms: C_20  and  C_21
REMARK    9  A    between atoms: C_20  and  C_22
REMARK   10  A    between atoms: C_22  and  N_23
REMARK   11  A    between atoms: N_23  and  C_24
REMARK   12  A    between atoms: C_24  and  C_25
REMARK                            x       y       z     vdW  Elec       q    Type
REMARK                         _______ _______ _______ _____ _____    ______ ____
ROOT
ATOM      1  N   UNL     1      -0.093  10.316  19.824  0.00  0.00    +0.000 N 
ATOM      2  C   UNL     1       0.952   9.489  19.399  0.00  0.00    +0.000 C 
ATOM      3  O   UNL     1       1.330   8.536  20.090  0.00  0.00    +0.000 OA
ENDROOT
BRANCH   2   4
ATOM      4  C   UNL     1       1.673   9.770  18.077  0.00  0.00    +0.000 C 
ATOM      5  C   UNL     1       2.383  11.120  18.173  0.00  0.00    +0.000 C 
BRANCH   4   6
ATOM      6  C   UNL     1       2.713   8.662  17.776  0.00  0.00    +0.000 C 
BRANCH   6   7
ATOM      7  N   UNL     1       2.191   7.299  17.634  0.00  0.00    +0.000 NA
ATOM      8  H   UNL     1       1.977   7.116  16.647  0.00  0.00    +0.000 HD
BRANCH   7   9
ATOM      9  C   UNL     1       3.087   6.271  18.143  0.00  0.00    +0.000 C 
BRANCH   9  10
ATOM     10  C   UNL     1       2.340   5.148  18.815  0.00  0.00    +0.000 A 
ATOM     11  C   UNL     1       2.288   5.088  20.209  0.00  0.00    +0.000 A 
ATOM     12  C   UNL     1       1.607   4.065  20.872  0.00  0.00    +0.000 A 
ATOM     13  C   UNL     1       0.946   3.092  20.141  0.00  0.00    +0.000 A 
ATOM     14  C   UNL     1       0.974   3.150  18.752  0.00  0.00    +0.000 A 
ATOM     15  C   UNL     1       1.663   4.169  18.089  0.00  0.00    +0.000 A 
ENDBRANCH   9  10
ENDBRANCH   7   9
ENDBRANCH   6   7
ENDBRANCH   4   6
ENDBRANCH   2   4
BRANCH   1  16
ATOM     16  C   UNL     1      -0.759   9.941  21.082  0.00  0.00    +0.000 C 
BRANCH  16  18
ATOM     17  C   UNL     1      -1.169  11.745  22.899  0.00  0.00    +0.000 C 
ATOM     18  C   UNL     1      -0.275  10.618  22.385  0.00  0.00    +0.000 C 
ATOM     19  C   UNL     1       0.016   9.621  23.507  0.00  0.00    +0.000 C 
ENDBRANCH  16  18
ENDBRANCH   1  16
BRANCH   1  20
ATOM     20  C   UNL     1      -0.572  11.521  19.124  0.00  0.00    +0.000 C 
BRANCH  20  21
ATOM     21  C   UNL     1      -1.965  11.488  18.506  0.00  0.00    +0.000 A 
ATOM     22  C   UNL     1      -2.252  11.067  17.205  0.00  0.00    +0.000 A 
ATOM     23  C   UNL     1      -3.567  11.133  16.703  0.00  0.00    +0.000 A 
ATOM     24 CL   UNL     1      -3.929  10.371  15.194  0.00  0.00    +0.000 Cl
ATOM     25  C   UNL     1      -4.590  11.723  17.445  0.00  0.00    +0.000 A 
ATOM     26  C   UNL     1      -4.338  12.069  18.768  0.00  0.00    +0.000 A 
ATOM     27  C   UNL     1      -3.050  11.916  19.297  0.00  0.00    +0.000 A 
ATOM     28  O   UNL     1      -5.306  12.541  19.616  0.00  0.00    +0.000 OA
ATOM     29  C   UNL     1      -6.415  13.095  18.904  0.00  0.00    +0.000 C 
ATOM     30  C   UNL     1      -6.851  12.216  17.745  0.00  0.00    +0.000 C 
ATOM     31  O   UNL     1      -5.789  11.967  16.826  0.00  0.00    +0.000 OA
ENDBRANCH  20  21
ENDBRANCH   1  20
TORSDOF 9
ENDMDL
