MODEL 1
REMARK VINA RESULT:      -9.4      0.000      0.000
REMARK  Name = 
REMARK  5 active torsions:
REMARK  status: ('A' for Active; 'I' for Inactive)
REMARK    1  A    between atoms: C_2  and  C_3
REMARK    2  A    between atoms: N_5  and  C_6
REMARK    3  A    between atoms: C_9  and  O_10
REMARK    4  A    between atoms: C_18  and  C_19
REMARK    5  A    between atoms: C_19  and  C_20
REMARK                            x       y       z     vdW  Elec       q    Type
REMARK                         _______ _______ _______ _____ _____    ______ ____
ROOT
ATOM      1  C   UNL     1       4.461   2.269  20.041  0.00  0.00    +0.000 A 
ATOM      2  N   UNL     1       5.424   3.126  19.684  0.00  0.00    +0.000 NA
ATOM      3  N   UNL     1       4.787   4.283  19.344  0.00  0.00    +0.000 N 
ATOM      4  C   UNL     1       3.440   4.220  19.676  0.00  0.00    +0.000 A 
ATOM      5  C   UNL     1       3.204   2.908  20.059  0.00  0.00    +0.000 A 
ATOM      6  C   UNL     1       1.874   2.370  20.454  0.00  0.00    +0.000 C 
ATOM      7  C   UNL     1       0.748   3.312  20.012  0.00  0.00    +0.000 C 
ATOM      8  C   UNL     1       1.088   4.768  20.349  0.00  0.00    +0.000 C 
ATOM      9  C   UNL     1       2.372   5.291  19.635  0.00  0.00    +0.000 C 
ENDROOT
BRANCH   3  10
ATOM     10  C   UNL     1       5.555   5.306  18.715  0.00  0.00    +0.000 A 
ATOM     11  C   UNL     1       5.064   6.039  17.631  0.00  0.00    +0.000 A 
ATOM     12  C   UNL     1       5.846   7.029  17.033  0.00  0.00    +0.000 A 
ATOM     13  C   UNL     1       7.142   7.245  17.486  0.00  0.00    +0.000 A 
ATOM     14  C   UNL     1       7.645   6.542  18.572  0.00  0.00    +0.000 A 
ATOM     15  C   UNL     1       6.855   5.568  19.186  0.00  0.00    +0.000 A 
BRANCH  13  16
ATOM     16  O   UNL     1       7.964   8.127  16.853  0.00  0.00    +0.000 OA
ATOM     17  H   UNL     1       8.794   7.665  16.646  0.00  0.00    +0.000 HD
ENDBRANCH  13  16
ENDBRANCH   3  10
BRANCH   1  19
ATOM     18  O   UNL     1       5.689   0.542  21.121  0.00  0.00    +0.000 OA
ATOM     19  C   UNL     1       4.781   0.885  20.367  0.00  0.00    +0.000 C 
ENDBRANCH   1  19
BRANCH   9  20
ATOM     20  C   UNL     1       2.748   6.688  20.186  0.00  0.00    +0.000 C 
BRANCH  20  21
ATOM     21  C   UNL     1       2.010   7.890  19.635  0.00  0.00    +0.000 A 
ATOM     22  C   UNL     1       2.055   8.119  18.247  0.00  0.00    +0.000 A 
ATOM     23  C   UNL     1       1.374   9.180  17.666  0.00  0.00    +0.000 A 
ATOM     24  C   UNL     1       0.591  10.005  18.460  0.00  0.00    +0.000 A 
ATOM     25  C   UNL     1       0.481   9.777  19.843  0.00  0.00    +0.000 A 
ATOM     26  C   UNL     1      -0.377  10.578  20.618  0.00  0.00    +0.000 A 
ATOM     27  C   UNL     1      -0.509  10.366  21.989  0.00  0.00    +0.000 A 
ATOM     28  C   UNL     1       0.234   9.381  22.614  0.00  0.00    +0.000 A 
ATOM     29  C   UNL     1       1.089   8.577  21.855  0.00  0.00    +0.000 A 
ATOM     30  C   UNL     1       1.211   8.735  20.455  0.00  0.00    +0.000 A 
ENDBRANCH  20  21
ENDBRANCH   9  20
TORSDOF 5
ENDMDL
MODEL 2
REMARK VINA RESULT:      -8.4      1.178      1.225
REMARK  Name = 
REMARK  5 active torsions:
REMARK  status: ('A' for Active; 'I' for Inactive)
REMARK    1  A    between atoms: C_2  and  C_3
REMARK    2  A    between atoms: N_5  and  C_6
REMARK    3  A    between atoms: C_9  and  O_10
REMARK    4  A    between atoms: C_18  and  C_19
REMARK    5  A    between atoms: C_19  and  C_20
REMARK                            x       y       z     vdW  Elec       q    Type
REMARK                         _______ _______ _______ _____ _____    ______ ____
ROOT
ATOM      1  C   UNL     1       4.379   2.262  20.597  0.00  0.00    +0.000 A 
ATOM      2  N   UNL     1       5.302   2.746  19.757  0.00  0.00    +0.000 NA
ATOM      3  N   UNL     1       4.706   3.785  19.106  0.00  0.00    +0.000 N 
ATOM      4  C   UNL     1       3.475   4.083  19.675  0.00  0.00    +0.000 A 
ATOM      5  C   UNL     1       3.223   3.069  20.586  0.00  0.00    +0.000 A 
ATOM      6  C   UNL     1       1.981   2.953  21.399  0.00  0.00    +0.000 C 
ATOM      7  C   UNL     1       0.869   3.843  20.832  0.00  0.00    +0.000 C 
ATOM      8  C   UNL     1       1.404   5.238  20.489  0.00  0.00    +0.000 C 
ATOM      9  C   UNL     1       2.525   5.229  19.405  0.00  0.00    +0.000 C 
ENDROOT
BRANCH   3  10
ATOM     10  C   UNL     1       5.391   4.353  17.992  0.00  0.00    +0.000 A 
ATOM     11  C   UNL     1       4.946   4.170  16.679  0.00  0.00    +0.000 A 
ATOM     12  C   UNL     1       5.646   4.733  15.610  0.00  0.00    +0.000 A 
ATOM     13  C   UNL     1       6.821   5.433  15.853  0.00  0.00    +0.000 A 
ATOM     14  C   UNL     1       7.272   5.643  17.149  0.00  0.00    +0.000 A 
ATOM     15  C   UNL     1       6.561   5.100  18.221  0.00  0.00    +0.000 A 
BRANCH  13  16
ATOM     16  O   UNL     1       7.581   5.900  14.823  0.00  0.00    +0.000 OA
ATOM     17  H   UNL     1       7.894   6.789  15.062  0.00  0.00    +0.000 HD
ENDBRANCH  13  16
ENDBRANCH   3  10
BRANCH   1  19
ATOM     18  O   UNL     1       5.702   0.842  21.971  0.00  0.00    +0.000 OA
ATOM     19  C   UNL     1       4.645   1.066  21.385  0.00  0.00    +0.000 C 
ENDBRANCH   1  19
BRANCH   9  20
ATOM     20  C   UNL     1       3.139   6.643  19.272  0.00  0.00    +0.000 C 
BRANCH  20  21
ATOM     21  C   UNL     1       2.201   7.804  19.014  0.00  0.00    +0.000 A 
ATOM     22  C   UNL     1       1.894   8.125  17.678  0.00  0.00    +0.000 A 
ATOM     23  C   UNL     1       1.015   9.153  17.365  0.00  0.00    +0.000 A 
ATOM     24  C   UNL     1       0.385   9.848  18.387  0.00  0.00    +0.000 A 
ATOM     25  C   UNL     1       0.629   9.522  19.733  0.00  0.00    +0.000 A 
ATOM     26  C   UNL     1      -0.076  10.186  20.753  0.00  0.00    +0.000 A 
ATOM     27  C   UNL     1       0.141   9.875  22.093  0.00  0.00    +0.000 A 
ATOM     28  C   UNL     1       1.086   8.926  22.441  0.00  0.00    +0.000 A 
ATOM     29  C   UNL     1       1.792   8.257  21.438  0.00  0.00    +0.000 A 
ATOM     30  C   UNL     1       1.562   8.516  20.067  0.00  0.00    +0.000 A 
ENDBRANCH  20  21
ENDBRANCH   9  20
TORSDOF 5
ENDMDL
MODEL 3
REMARK VINA RESULT:      -7.7      2.943      5.267
REMARK  Name = 
REMARK  5 active torsions:
REMARK  status: ('A' for Active; 'I' for Inactive)
REMARK    1  A    between atoms: C_2  and  C_3
REMARK    2  A    between atoms: N_5  and  C_6
REMARK    3  A    between atoms: C_9  and  O_10
REMARK    4  A    between atoms: C_18  and  C_19
REMARK    5  A    between atoms: C_19  and  C_20
REMARK                            x       y       z     vdW  Elec       q    Type
REMARK                         _______ _______ _______ _____ _____    ______ ____
ROOT
ATOM      1  C   UNL     1       2.617   5.006  20.128  0.00  0.00    +0.000 A 
ATOM      2  N   UNL     1       1.758   5.728  20.856  0.00  0.00    +0.000 NA
ATOM      3  N   UNL     1       1.796   6.988  20.337  0.00  0.00    +0.000 N 
ATOM      4  C   UNL     1       2.527   7.014  19.157  0.00  0.00    +0.000 A 
ATOM      5  C   UNL     1       3.118   5.764  19.050  0.00  0.00    +0.000 A 
ATOM      6  C   UNL     1       4.040   5.356  17.953  0.00  0.00    +0.000 C 
ATOM      7  C   UNL     1       4.564   6.580  17.194  0.00  0.00    +0.000 C 
ATOM      8  C   UNL     1       3.426   7.559  16.880  0.00  0.00    +0.000 C 
ATOM      9  C   UNL     1       2.723   8.127  18.151  0.00  0.00    +0.000 C 
ENDROOT
BRANCH   3  10
ATOM     10  C   UNL     1       1.136   8.026  21.058  0.00  0.00    +0.000 A 
ATOM     11  C   UNL     1       1.797   9.199  21.436  0.00  0.00    +0.000 A 
ATOM     12  C   UNL     1       1.124  10.192  22.150  0.00  0.00    +0.000 A 
ATOM     13  C   UNL     1      -0.196   9.985  22.533  0.00  0.00    +0.000 A 
ATOM     14  C   UNL     1      -0.877   8.836  22.156  0.00  0.00    +0.000 A 
ATOM     15  C   UNL     1      -0.212   7.852  21.421  0.00  0.00    +0.000 A 
BRANCH  13  16
ATOM     16  O   UNL     1      -0.843  10.887  23.322  0.00  0.00    +0.000 OA
ATOM     17  H   UNL     1      -1.717  10.522  23.538  0.00  0.00    +0.000 HD
ENDBRANCH  13  16
ENDBRANCH   3  10
BRANCH   1  19
ATOM     18  O   UNL     1       2.496   2.647  19.855  0.00  0.00    +0.000 OA
ATOM     19  C   UNL     1       2.909   3.622  20.479  0.00  0.00    +0.000 C 
ENDBRANCH   1  19
BRANCH   9  20
ATOM     20  C   UNL     1       1.471   8.939  17.741  0.00  0.00    +0.000 C 
BRANCH  20  21
ATOM     21  C   UNL     1       1.403  10.396  18.150  0.00  0.00    +0.000 A 
ATOM     22  C   UNL     1       2.552  11.189  17.973  0.00  0.00    +0.000 A 
ATOM     23  C   UNL     1       2.554  12.541  18.292  0.00  0.00    +0.000 A 
ATOM     24  C   UNL     1       1.387  13.137  18.747  0.00  0.00    +0.000 A 
ATOM     25  C   UNL     1       0.206  12.386  18.888  0.00  0.00    +0.000 A 
ATOM     26  C   UNL     1      -0.986  13.023  19.278  0.00  0.00    +0.000 A 
ATOM     27  C   UNL     1      -2.171  12.303  19.417  0.00  0.00    +0.000 A 
ATOM     28  C   UNL     1      -2.181  10.936  19.205  0.00  0.00    +0.000 A 
ATOM     29  C   UNL     1      -1.004  10.290  18.815  0.00  0.00    +0.000 A 
ATOM     30  C   UNL     1       0.204  11.000  18.620  0.00  0.00    +0.000 A 
ENDBRANCH  20  21
ENDBRANCH   9  20
TORSDOF 5
ENDMDL
MODEL 4
REMARK VINA RESULT:      -7.7      1.374      2.319
REMARK  Name = 
REMARK  5 active torsions:
REMARK  status: ('A' for Active; 'I' for Inactive)
REMARK    1  A    between atoms: C_2  and  C_3
REMARK    2  A    between atoms: N_5  and  C_6
REMARK    3  A    between atoms: C_9  and  O_10
REMARK    4  A    between atoms: C_18  and  C_19
REMARK    5  A    between atoms: C_19  and  C_20
REMARK                            x       y       z     vdW  Elec       q    Type
REMARK                         _______ _______ _______ _____ _____    ______ ____
ROOT
ATOM      1  C   UNL     1       4.394   2.154  20.584  0.00  0.00    +0.000 A 
ATOM      2  N   UNL     1       5.298   2.706  19.766  0.00  0.00    +0.000 NA
ATOM      3  N   UNL     1       4.606   3.580  18.981  0.00  0.00    +0.000 N 
ATOM      4  C   UNL     1       3.302   3.726  19.436  0.00  0.00    +0.000 A 
ATOM      5  C   UNL     1       3.133   2.764  20.420  0.00  0.00    +0.000 A 
ATOM      6  C   UNL     1       1.862   2.523  21.156  0.00  0.00    +0.000 C 
ATOM      7  C   UNL     1       0.678   3.175  20.433  0.00  0.00    +0.000 C 
ATOM      8  C   UNL     1       1.021   4.604  19.997  0.00  0.00    +0.000 C 
ATOM      9  C   UNL     1       2.215   4.682  18.996  0.00  0.00    +0.000 C 
ENDROOT
BRANCH   3  10
ATOM     10  C   UNL     1       5.284   4.155  17.866  0.00  0.00    +0.000 A 
ATOM     11  C   UNL     1       4.750   4.114  16.575  0.00  0.00    +0.000 A 
ATOM     12  C   UNL     1       5.445   4.679  15.504  0.00  0.00    +0.000 A 
ATOM     13  C   UNL     1       6.701   5.234  15.718  0.00  0.00    +0.000 A 
ATOM     14  C   UNL     1       7.244   5.301  16.994  0.00  0.00    +0.000 A 
ATOM     15  C   UNL     1       6.539   4.757  18.070  0.00  0.00    +0.000 A 
BRANCH  13  16
ATOM     16  O   UNL     1       7.448   5.694  14.676  0.00  0.00    +0.000 OA
ATOM     17  H   UNL     1       7.601   4.951  14.068  0.00  0.00    +0.000 HD
ENDBRANCH  13  16
ENDBRANCH   3  10
BRANCH   1  19
ATOM     18  O   UNL     1       5.874   0.990  22.035  0.00  0.00    +0.000 OA
ATOM     19  C   UNL     1       4.773   1.085  21.498  0.00  0.00    +0.000 C 
ENDBRANCH   1  19
BRANCH   9  20
ATOM     20  C   UNL     1       2.617   6.159  18.771  0.00  0.00    +0.000 C 
BRANCH  20  21
ATOM     21  C   UNL     1       1.938   7.217  19.617  0.00  0.00    +0.000 A 
ATOM     22  C   UNL     1       1.547   6.871  20.924  0.00  0.00    +0.000 A 
ATOM     23  C   UNL     1       0.952   7.798  21.770  0.00  0.00    +0.000 A 
ATOM     24  C   UNL     1       0.784   9.106  21.339  0.00  0.00    +0.000 A 
ATOM     25  C   UNL     1       1.209   9.500  20.058  0.00  0.00    +0.000 A 
ATOM     26  C   UNL     1       1.100  10.847  19.668  0.00  0.00    +0.000 A 
ATOM     27  C   UNL     1       1.522  11.264  18.407  0.00  0.00    +0.000 A 
ATOM     28  C   UNL     1       2.025  10.344  17.504  0.00  0.00    +0.000 A 
ATOM     29  C   UNL     1       2.141   9.003  17.880  0.00  0.00    +0.000 A 
ATOM     30  C   UNL     1       1.766   8.555  19.168  0.00  0.00    +0.000 A 
ENDBRANCH  20  21
ENDBRANCH   9  20
TORSDOF 5
ENDMDL
MODEL 5
REMARK VINA RESULT:      -7.6      0.668      1.901
REMARK  Name = 
REMARK  5 active torsions:
REMARK  status: ('A' for Active; 'I' for Inactive)
REMARK    1  A    between atoms: C_2  and  C_3
REMARK    2  A    between atoms: N_5  and  C_6
REMARK    3  A    between atoms: C_9  and  O_10
REMARK    4  A    between atoms: C_18  and  C_19
REMARK    5  A    between atoms: C_19  and  C_20
REMARK                            x       y       z     vdW  Elec       q    Type
REMARK                         _______ _______ _______ _____ _____    ______ ____
ROOT
ATOM      1  C   UNL     1       4.450   2.353  20.093  0.00  0.00    +0.000 A 
ATOM      2  N   UNL     1       5.413   3.205  19.722  0.00  0.00    +0.000 NA
ATOM      3  N   UNL     1       4.775   4.355  19.362  0.00  0.00    +0.000 N 
ATOM      4  C   UNL     1       3.428   4.297  19.694  0.00  0.00    +0.000 A 
ATOM      5  C   UNL     1       3.193   2.991  20.099  0.00  0.00    +0.000 A 
ATOM      6  C   UNL     1       1.863   2.459  20.502  0.00  0.00    +0.000 C 
ATOM      7  C   UNL     1       0.736   3.392  20.044  0.00  0.00    +0.000 C 
ATOM      8  C   UNL     1       1.074   4.854  20.356  0.00  0.00    +0.000 C 
ATOM      9  C   UNL     1       2.359   5.366  19.634  0.00  0.00    +0.000 C 
ENDROOT
BRANCH   3  10
ATOM     10  C   UNL     1       5.543   5.368  18.717  0.00  0.00    +0.000 A 
ATOM     11  C   UNL     1       5.039   6.105  17.640  0.00  0.00    +0.000 A 
ATOM     12  C   UNL     1       5.821   7.084  17.025  0.00  0.00    +0.000 A 
ATOM     13  C   UNL     1       7.127   7.286  17.453  0.00  0.00    +0.000 A 
ATOM     14  C   UNL     1       7.643   6.580  18.531  0.00  0.00    +0.000 A 
ATOM     15  C   UNL     1       6.854   5.616  19.162  0.00  0.00    +0.000 A 
BRANCH  13  16
ATOM     16  O   UNL     1       7.948   8.157  16.802  0.00  0.00    +0.000 OA
ATOM     17  H   UNL     1       8.421   7.663  16.113  0.00  0.00    +0.000 HD
ENDBRANCH  13  16
ENDBRANCH   3  10
BRANCH   1  19
ATOM     18  O   UNL     1       5.665   0.648  21.220  0.00  0.00    +0.000 OA
ATOM     19  C   UNL     1       4.771   0.975  20.444  0.00  0.00    +0.000 C 
ENDBRANCH   1  19
BRANCH   9  20
ATOM     20  C   UNL     1       2.733   6.772  20.161  0.00  0.00    +0.000 C 
BRANCH  20  21
ATOM     21  C   UNL     1       1.611   7.759  20.411  0.00  0.00    +0.000 A 
ATOM     22  C   UNL     1       0.785   7.555  21.532  0.00  0.00    +0.000 A 
ATOM     23  C   UNL     1      -0.241   8.437  21.845  0.00  0.00    +0.000 A 
ATOM     24  C   UNL     1      -0.427   9.571  21.067  0.00  0.00    +0.000 A 
ATOM     25  C   UNL     1       0.411   9.833  19.969  0.00  0.00    +0.000 A 
ATOM     26  C   UNL     1       0.255  11.025  19.238  0.00  0.00    +0.000 A 
ATOM     27  C   UNL     1       1.078  11.313  18.152  0.00  0.00    +0.000 A 
ATOM     28  C   UNL     1       2.043  10.405  17.753  0.00  0.00    +0.000 A 
ATOM     29  C   UNL     1       2.210   9.217  18.471  0.00  0.00    +0.000 A 
ATOM     30  C   UNL     1       1.423   8.917  19.607  0.00  0.00    +0.000 A 
ENDBRANCH  20  21
ENDBRANCH   9  20
TORSDOF 5
ENDMDL
MODEL 6
REMARK VINA RESULT:      -7.3      1.142      2.281
REMARK  Name = 
REMARK  5 active torsions:
REMARK  status: ('A' for Active; 'I' for Inactive)
REMARK    1  A    between atoms: C_2  and  C_3
REMARK    2  A    between atoms: N_5  and  C_6
REMARK    3  A    between atoms: C_9  and  O_10
REMARK    4  A    between atoms: C_18  and  C_19
REMARK    5  A    between atoms: C_19  and  C_20
REMARK                            x       y       z     vdW  Elec       q    Type
REMARK                         _______ _______ _______ _____ _____    ______ ____
ROOT
ATOM      1  C   UNL     1       4.386   2.395  20.324  0.00  0.00    +0.000 A 
ATOM      2  N   UNL     1       5.382   3.253  20.071  0.00  0.00    +0.000 NA
ATOM      3  N   UNL     1       4.947   4.037  19.044  0.00  0.00    +0.000 N 
ATOM      4  C   UNL     1       3.602   3.807  18.783  0.00  0.00    +0.000 A 
ATOM      5  C   UNL     1       3.250   2.706  19.550  0.00  0.00    +0.000 A 
ATOM      6  C   UNL     1       1.903   2.072  19.547  0.00  0.00    +0.000 C 
ATOM      7  C   UNL     1       1.088   2.518  18.328  0.00  0.00    +0.000 C 
ATOM      8  C   UNL     1       1.193   4.034  18.124  0.00  0.00    +0.000 C 
ATOM      9  C   UNL     1       2.648   4.529  17.857  0.00  0.00    +0.000 C 
ENDROOT
BRANCH   3  10
ATOM     10  C   UNL     1       5.892   4.904  18.421  0.00  0.00    +0.000 A 
ATOM     11  C   UNL     1       6.776   5.691  19.164  0.00  0.00    +0.000 A 
ATOM     12  C   UNL     1       7.683   6.536  18.522  0.00  0.00    +0.000 A 
ATOM     13  C   UNL     1       7.665   6.633  17.135  0.00  0.00    +0.000 A 
ATOM     14  C   UNL     1       6.808   5.849  16.376  0.00  0.00    +0.000 A 
ATOM     15  C   UNL     1       5.916   4.986  17.016  0.00  0.00    +0.000 A 
BRANCH  13  16
ATOM     16  O   UNL     1       8.462   7.528  16.488  0.00  0.00    +0.000 OA
ATOM     17  H   UNL     1       8.980   8.005  17.158  0.00  0.00    +0.000 HD
ENDBRANCH  13  16
ENDBRANCH   3  10
BRANCH   1  19
ATOM     18  O   UNL     1       5.620   1.045  21.844  0.00  0.00    +0.000 OA
ATOM     19  C   UNL     1       4.553   1.330  21.305  0.00  0.00    +0.000 C 
ENDBRANCH   1  19
BRANCH   9  20
ATOM     20  C   UNL     1       2.687   6.076  17.865  0.00  0.00    +0.000 C 
BRANCH  20  21
ATOM     21  C   UNL     1       2.063   6.796  19.042  0.00  0.00    +0.000 A 
ATOM     22  C   UNL     1       1.904   6.086  20.247  0.00  0.00    +0.000 A 
ATOM     23  C   UNL     1       1.372   6.691  21.378  0.00  0.00    +0.000 A 
ATOM     24  C   UNL     1       1.037   8.036  21.340  0.00  0.00    +0.000 A 
ATOM     25  C   UNL     1       1.230   8.790  20.169  0.00  0.00    +0.000 A 
ATOM     26  C   UNL     1       0.955  10.170  20.171  0.00  0.00    +0.000 A 
ATOM     27  C   UNL     1       1.146  10.941  19.027  0.00  0.00    +0.000 A 
ATOM     28  C   UNL     1       1.577  10.347  17.854  0.00  0.00    +0.000 A 
ATOM     29  C   UNL     1       1.856   8.977  17.837  0.00  0.00    +0.000 A 
ATOM     30  C   UNL     1       1.718   8.176  18.995  0.00  0.00    +0.000 A 
ENDBRANCH  20  21
ENDBRANCH   9  20
TORSDOF 5
ENDMDL
MODEL 7
REMARK VINA RESULT:      -7.3      7.237     11.019
REMARK  Name = 
REMARK  5 active torsions:
REMARK  status: ('A' for Active; 'I' for Inactive)
REMARK    1  A    between atoms: C_2  and  C_3
REMARK    2  A    between atoms: N_5  and  C_6
REMARK    3  A    between atoms: C_9  and  O_10
REMARK    4  A    between atoms: C_18  and  C_19
REMARK    5  A    between atoms: C_19  and  C_20
REMARK                            x       y       z     vdW  Elec       q    Type
REMARK                         _______ _______ _______ _____ _____    ______ ____
ROOT
ATOM      1  C   UNL     1      -6.317  14.013  22.932  0.00  0.00    +0.000 A 
ATOM      2  N   UNL     1      -5.035  14.393  22.993  0.00  0.00    +0.000 NA
ATOM      3  N   UNL     1      -4.372  13.614  22.091  0.00  0.00    +0.000 N 
ATOM      4  C   UNL     1      -5.266  12.882  21.320  0.00  0.00    +0.000 A 
ATOM      5  C   UNL     1      -6.512  13.077  21.897  0.00  0.00    +0.000 A 
ATOM      6  C   UNL     1      -7.771  12.436  21.424  0.00  0.00    +0.000 C 
ATOM      7  C   UNL     1      -7.469  11.252  20.499  0.00  0.00    +0.000 C 
ATOM      8  C   UNL     1      -6.393  11.620  19.470  0.00  0.00    +0.000 C 
ATOM      9  C   UNL     1      -5.025  12.008  20.109  0.00  0.00    +0.000 C 
ENDROOT
BRANCH   3  10
ATOM     10  C   UNL     1      -2.947  13.653  22.098  0.00  0.00    +0.000 A 
ATOM     11  C   UNL     1      -2.188  12.810  22.916  0.00  0.00    +0.000 A 
ATOM     12  C   UNL     1      -0.794  12.880  22.904  0.00  0.00    +0.000 A 
ATOM     13  C   UNL     1      -0.163  13.834  22.115  0.00  0.00    +0.000 A 
ATOM     14  C   UNL     1      -0.894  14.670  21.283  0.00  0.00    +0.000 A 
ATOM     15  C   UNL     1      -2.288  14.585  21.276  0.00  0.00    +0.000 A 
BRANCH  13  16
ATOM     16  O   UNL     1       1.189  13.998  22.166  0.00  0.00    +0.000 OA
ATOM     17  H   UNL     1       1.415  14.778  21.632  0.00  0.00    +0.000 HD
ENDBRANCH  13  16
ENDBRANCH   3  10
BRANCH   1  19
ATOM     18  O   UNL     1      -7.914  13.920  24.691  0.00  0.00    +0.000 OA
ATOM     19  C   UNL     1      -7.302  14.573  23.849  0.00  0.00    +0.000 C 
ENDBRANCH   1  19
BRANCH   9  20
ATOM     20  C   UNL     1      -4.072  12.554  19.019  0.00  0.00    +0.000 C 
BRANCH  20  21
ATOM     21  C   UNL     1      -3.372  11.554  18.122  0.00  0.00    +0.000 A 
ATOM     22  C   UNL     1      -3.981  11.222  16.897  0.00  0.00    +0.000 A 
ATOM     23  C   UNL     1      -3.381  10.340  16.007  0.00  0.00    +0.000 A 
ATOM     24  C   UNL     1      -2.132   9.814  16.305  0.00  0.00    +0.000 A 
ATOM     25  C   UNL     1      -1.471  10.163  17.495  0.00  0.00    +0.000 A 
ATOM     26  C   UNL     1      -0.174   9.679  17.744  0.00  0.00    +0.000 A 
ATOM     27  C   UNL     1       0.505  10.018  18.913  0.00  0.00    +0.000 A 
ATOM     28  C   UNL     1      -0.107  10.812  19.866  0.00  0.00    +0.000 A 
ATOM     29  C   UNL     1      -1.395  11.301  19.631  0.00  0.00    +0.000 A 
ATOM     30  C   UNL     1      -2.093  11.015  18.435  0.00  0.00    +0.000 A 
ENDBRANCH  20  21
ENDBRANCH   9  20
TORSDOF 5
ENDMDL
MODEL 8
REMARK VINA RESULT:      -7.2      6.767     11.081
REMARK  Name = 
REMARK  5 active torsions:
REMARK  status: ('A' for Active; 'I' for Inactive)
REMARK    1  A    between atoms: C_2  and  C_3
REMARK    2  A    between atoms: N_5  and  C_6
REMARK    3  A    between atoms: C_9  and  O_10
REMARK    4  A    between atoms: C_18  and  C_19
REMARK    5  A    between atoms: C_19  and  C_20
REMARK                            x       y       z     vdW  Elec       q    Type
REMARK                         _______ _______ _______ _____ _____    ______ ____
ROOT
ATOM      1  C   UNL     1      -5.997  13.243  18.144  0.00  0.00    +0.000 A 
ATOM      2  N   UNL     1      -5.789  13.794  19.346  0.00  0.00    +0.000 NA
ATOM      3  N   UNL     1      -4.782  13.074  19.918  0.00  0.00    +0.000 N 
ATOM      4  C   UNL     1      -4.220  12.197  19.000  0.00  0.00    +0.000 A 
ATOM      5  C   UNL     1      -5.036  12.246  17.879  0.00  0.00    +0.000 A 
ATOM      6  C   UNL     1      -4.839  11.422  16.655  0.00  0.00    +0.000 C 
ATOM      7  C   UNL     1      -3.888  10.251  16.928  0.00  0.00    +0.000 C 
ATOM      8  C   UNL     1      -2.657  10.717  17.713  0.00  0.00    +0.000 C 
ATOM      9  C   UNL     1      -2.997  11.313  19.114  0.00  0.00    +0.000 C 
ENDROOT
BRANCH   3  10
ATOM     10  C   UNL     1      -4.497  13.305  21.295  0.00  0.00    +0.000 A 
ATOM     11  C   UNL     1      -5.101  12.557  22.311  0.00  0.00    +0.000 A 
ATOM     12  C   UNL     1      -4.806  12.815  23.651  0.00  0.00    +0.000 A 
ATOM     13  C   UNL     1      -3.948  13.860  23.974  0.00  0.00    +0.000 A 
ATOM     14  C   UNL     1      -3.324  14.604  22.983  0.00  0.00    +0.000 A 
ATOM     15  C   UNL     1      -3.600  14.332  21.642  0.00  0.00    +0.000 A 
BRANCH  13  16
ATOM     16  O   UNL     1      -3.727  14.204  25.274  0.00  0.00    +0.000 OA
ATOM     17  H   UNL     1      -2.999  13.655  25.608  0.00  0.00    +0.000 HD
ENDBRANCH  13  16
ENDBRANCH   3  10
BRANCH   1  19
ATOM     18  O   UNL     1      -6.977  14.577  16.437  0.00  0.00    +0.000 OA
ATOM     19  C   UNL     1      -7.087  13.703  17.294  0.00  0.00    +0.000 C 
ENDBRANCH   1  19
BRANCH   9  20
ATOM     20  C   UNL     1      -1.728  11.935  19.743  0.00  0.00    +0.000 C 
BRANCH  20  21
ATOM     21  C   UNL     1      -1.036  11.171  20.852  0.00  0.00    +0.000 A 
ATOM     22  C   UNL     1      -1.465  11.387  22.175  0.00  0.00    +0.000 A 
ATOM     23  C   UNL     1      -0.903  10.696  23.240  0.00  0.00    +0.000 A 
ATOM     24  C   UNL     1       0.067   9.735  22.995  0.00  0.00    +0.000 A 
ATOM     25  C   UNL     1       0.485   9.456  21.681  0.00  0.00    +0.000 A 
ATOM     26  C   UNL     1       1.414   8.427  21.446  0.00  0.00    +0.000 A 
ATOM     27  C   UNL     1       1.836   8.125  20.153  0.00  0.00    +0.000 A 
ATOM     28  C   UNL     1       1.370   8.864  19.080  0.00  0.00    +0.000 A 
ATOM     29  C   UNL     1       0.445   9.889  19.300  0.00  0.00    +0.000 A 
ATOM     30  C   UNL     1      -0.039  10.189  20.594  0.00  0.00    +0.000 A 
ENDBRANCH  20  21
ENDBRANCH   9  20
TORSDOF 5
ENDMDL
MODEL 9
REMARK VINA RESULT:      -7.2      2.009      4.628
REMARK  Name = 
REMARK  5 active torsions:
REMARK  status: ('A' for Active; 'I' for Inactive)
REMARK    1  A    between atoms: C_2  and  C_3
REMARK    2  A    between atoms: N_5  and  C_6
REMARK    3  A    between atoms: C_9  and  O_10
REMARK    4  A    between atoms: C_18  and  C_19
REMARK    5  A    between atoms: C_19  and  C_20
REMARK                            x       y       z     vdW  Elec       q    Type
REMARK                         _______ _______ _______ _____ _____    ______ ____
ROOT
ATOM      1  C   UNL     1       5.032   3.899  16.386  0.00  0.00    +0.000 A 
ATOM      2  N   UNL     1       4.155   3.230  17.144  0.00  0.00    +0.000 NA
ATOM      3  N   UNL     1       3.709   4.122  18.074  0.00  0.00    +0.000 N 
ATOM      4  C   UNL     1       4.153   5.405  17.780  0.00  0.00    +0.000 A 
ATOM      5  C   UNL     1       5.060   5.263  16.740  0.00  0.00    +0.000 A 
ATOM      6  C   UNL     1       5.829   6.384  16.131  0.00  0.00    +0.000 C 
ATOM      7  C   UNL     1       5.801   7.622  17.034  0.00  0.00    +0.000 C 
ATOM      8  C   UNL     1       4.383   7.892  17.552  0.00  0.00    +0.000 C 
ATOM      9  C   UNL     1       3.804   6.731  18.418  0.00  0.00    +0.000 C 
ENDROOT
BRANCH   3  10
ATOM     10  C   UNL     1       2.922   3.623  19.152  0.00  0.00    +0.000 A 
ATOM     11  C   UNL     1       1.525   3.671  19.133  0.00  0.00    +0.000 A 
ATOM     12  C   UNL     1       0.784   3.181  20.210  0.00  0.00    +0.000 A 
ATOM     13  C   UNL     1       1.446   2.695  21.331  0.00  0.00    +0.000 A 
ATOM     14  C   UNL     1       2.832   2.622  21.367  0.00  0.00    +0.000 A 
ATOM     15  C   UNL     1       3.573   3.090  20.280  0.00  0.00    +0.000 A 
BRANCH  13  16
ATOM     16  O   UNL     1       0.753   2.312  22.439  0.00  0.00    +0.000 OA
ATOM     17  H   UNL     1       0.013   1.751  22.150  0.00  0.00    +0.000 HD
ENDBRANCH  13  16
ENDBRANCH   3  10
BRANCH   1  19
ATOM     18  O   UNL     1       5.964   3.655  14.212  0.00  0.00    +0.000 OA
ATOM     19  C   UNL     1       5.789   3.215  15.346  0.00  0.00    +0.000 C 
ENDBRANCH   1  19
BRANCH   9  20
ATOM     20  C   UNL     1       2.311   6.999  18.725  0.00  0.00    +0.000 C 
BRANCH  20  21
ATOM     21  C   UNL     1       1.865   8.438  18.884  0.00  0.00    +0.000 A 
ATOM     22  C   UNL     1       1.996   9.299  17.778  0.00  0.00    +0.000 A 
ATOM     23  C   UNL     1       1.576  10.622  17.838  0.00  0.00    +0.000 A 
ATOM     24  C   UNL     1       0.967  11.093  18.992  0.00  0.00    +0.000 A 
ATOM     25  C   UNL     1       0.774  10.247  20.098  0.00  0.00    +0.000 A 
ATOM     26  C   UNL     1       0.088  10.721  21.231  0.00  0.00    +0.000 A 
ATOM     27  C   UNL     1      -0.125   9.900  22.336  0.00  0.00    +0.000 A 
ATOM     28  C   UNL     1       0.372   8.609  22.347  0.00  0.00    +0.000 A 
ATOM     29  C   UNL     1       1.054   8.124  21.227  0.00  0.00    +0.000 A 
ATOM     30  C   UNL     1       1.245   8.916  20.071  0.00  0.00    +0.000 A 
ENDBRANCH  20  21
ENDBRANCH   9  20
TORSDOF 5
ENDMDL
