MODEL 1
REMARK VINA RESULT:      -6.6      0.000      0.000
REMARK  Name = 
REMARK  8 active torsions:
REMARK  status: ('A' for Active; 'I' for Inactive)
REMARK    1  A    between atoms: C_1  and  O_2
REMARK    2  A    between atoms: O_2  and  C_3
REMARK    3  A    between atoms: C_3  and  C_5
REMARK    4  A    between atoms: C_5  and  C_6
REMARK    5  A    between atoms: C_13  and  C_14
REMARK    6  A    between atoms: C_14  and  N_15
REMARK    7  A    between atoms: N_15  and  C_16
REMARK    8  A    between atoms: N_15  and  C_17
REMARK                            x       y       z     vdW  Elec       q    Type
REMARK                         _______ _______ _______ _____ _____    ______ ____
ROOT
ATOM      1  C   UNL     1       3.126   5.821  18.218  0.00  0.00    +0.000 C 
ATOM      2  C   UNL     1       4.033   5.526  17.024  0.00  0.00    +0.000 C 
ATOM      3  C   UNL     1       4.661   5.743  18.396  0.00  0.00    +0.000 C 
ENDROOT
BRANCH   1   4
ATOM      4  C   UNL     1       2.208   4.746  18.756  0.00  0.00    +0.000 A 
ATOM      5  C   UNL     1       1.918   4.736  20.128  0.00  0.00    +0.000 A 
ATOM      6  C   UNL     1       1.209   3.673  20.693  0.00  0.00    +0.000 A 
ATOM      7  C   UNL     1       0.781   2.613  19.889  0.00  0.00    +0.000 A 
ATOM      8  C   UNL     1       1.054   2.624  18.518  0.00  0.00    +0.000 A 
ATOM      9  C   UNL     1       1.765   3.685  17.950  0.00  0.00    +0.000 A 
ENDBRANCH   1   4
BRANCH   1  10
ATOM     10  C   UNL     1       2.709   7.199  18.615  0.00  0.00    +0.000 C 
ATOM     11  O   UNL     1       2.490   7.452  19.789  0.00  0.00    +0.000 OA
BRANCH  10  13
ATOM     12  C   UNL     1       2.004   9.351  17.771  0.00  0.00    +0.000 C 
ATOM     13  O   UNL     1       2.707   8.170  17.669  0.00  0.00    +0.000 OA
ENDBRANCH  10  13
ENDBRANCH   1  10
BRANCH   3  14
ATOM     14  C   UNL     1       5.422   4.482  18.849  0.00  0.00    +0.000 C 
BRANCH  14  15
ATOM     15  N   UNL     1       6.890   4.576  18.642  0.00  0.00    +0.000 NA
ATOM     16  C   UNL     1       7.292   4.550  17.222  0.00  0.00    +0.000 C 
ATOM     17  C   UNL     1       7.395   5.814  19.259  0.00  0.00    +0.000 C 
ENDBRANCH  14  15
ENDBRANCH   3  14
TORSDOF 5
ENDMDL
MODEL 2
REMARK VINA RESULT:      -6.6      0.279      1.205
REMARK  Name = 
REMARK  8 active torsions:
REMARK  status: ('A' for Active; 'I' for Inactive)
REMARK    1  A    between atoms: C_1  and  O_2
REMARK    2  A    between atoms: O_2  and  C_3
REMARK    3  A    between atoms: C_3  and  C_5
REMARK    4  A    between atoms: C_5  and  C_6
REMARK    5  A    between atoms: C_13  and  C_14
REMARK    6  A    between atoms: C_14  and  N_15
REMARK    7  A    between atoms: N_15  and  C_16
REMARK    8  A    between atoms: N_15  and  C_17
REMARK                            x       y       z     vdW  Elec       q    Type
REMARK                         _______ _______ _______ _____ _____    ______ ____
ROOT
ATOM      1  C   UNL     1       3.251   5.816  18.265  0.00  0.00    +0.000 C 
ATOM      2  C   UNL     1       4.157   5.559  17.061  0.00  0.00    +0.000 C 
ATOM      3  C   UNL     1       4.789   5.902  18.405  0.00  0.00    +0.000 C 
ENDROOT
BRANCH   1   4
ATOM      4  C   UNL     1       2.460   4.680  18.874  0.00  0.00    +0.000 A 
ATOM      5  C   UNL     1       1.868   3.741  18.017  0.00  0.00    +0.000 A 
ATOM      6  C   UNL     1       0.998   2.772  18.524  0.00  0.00    +0.000 A 
ATOM      7  C   UNL     1       0.716   2.733  19.893  0.00  0.00    +0.000 A 
ATOM      8  C   UNL     1       1.316   3.657  20.754  0.00  0.00    +0.000 A 
ATOM      9  C   UNL     1       2.184   4.629  20.250  0.00  0.00    +0.000 A 
ENDBRANCH   1   4
BRANCH   1  10
ATOM     10  C   UNL     1       2.705   7.163  18.611  0.00  0.00    +0.000 C 
ATOM     11  O   UNL     1       2.496   7.451  19.779  0.00  0.00    +0.000 OA
BRANCH  10  13
ATOM     12  C   UNL     1       2.047   9.341  17.798  0.00  0.00    +0.000 C 
ATOM     13  O   UNL     1       2.573   8.079  17.622  0.00  0.00    +0.000 OA
ENDBRANCH  10  13
ENDBRANCH   1  10
BRANCH   3  14
ATOM     14  C   UNL     1       5.684   4.746  18.893  0.00  0.00    +0.000 C 
BRANCH  14  15
ATOM     15  N   UNL     1       7.107   4.898  18.494  0.00  0.00    +0.000 NA
ATOM     16  C   UNL     1       7.383   4.477  17.106  0.00  0.00    +0.000 C 
ATOM     17  C   UNL     1       7.517   6.302  18.658  0.00  0.00    +0.000 C 
ENDBRANCH  14  15
ENDBRANCH   3  14
TORSDOF 5
ENDMDL
MODEL 3
REMARK VINA RESULT:      -6.5      0.710      1.044
REMARK  Name = 
REMARK  8 active torsions:
REMARK  status: ('A' for Active; 'I' for Inactive)
REMARK    1  A    between atoms: C_1  and  O_2
REMARK    2  A    between atoms: O_2  and  C_3
REMARK    3  A    between atoms: C_3  and  C_5
REMARK    4  A    between atoms: C_5  and  C_6
REMARK    5  A    between atoms: C_13  and  C_14
REMARK    6  A    between atoms: C_14  and  N_15
REMARK    7  A    between atoms: N_15  and  C_16
REMARK    8  A    between atoms: N_15  and  C_17
REMARK                            x       y       z     vdW  Elec       q    Type
REMARK                         _______ _______ _______ _____ _____    ______ ____
ROOT
ATOM      1  C   UNL     1       3.227   5.745  18.321  0.00  0.00    +0.000 C 
ATOM      2  C   UNL     1       4.012   5.255  17.105  0.00  0.00    +0.000 C 
ATOM      3  C   UNL     1       4.772   5.685  18.354  0.00  0.00    +0.000 C 
ENDROOT
BRANCH   1   4
ATOM      4  C   UNL     1       2.376   4.777  19.112  0.00  0.00    +0.000 A 
ATOM      5  C   UNL     1       2.528   4.735  20.506  0.00  0.00    +0.000 A 
ATOM      6  C   UNL     1       1.884   3.749  21.258  0.00  0.00    +0.000 A 
ATOM      7  C   UNL     1       1.079   2.800  20.622  0.00  0.00    +0.000 A 
ATOM      8  C   UNL     1       0.910   2.847  19.235  0.00  0.00    +0.000 A 
ATOM      9  C   UNL     1       1.555   3.829  18.480  0.00  0.00    +0.000 A 
ENDBRANCH   1   4
BRANCH   1  10
ATOM     10  C   UNL     1       2.840   7.172  18.531  0.00  0.00    +0.000 C 
ATOM     11  O   UNL     1       2.945   7.970  17.612  0.00  0.00    +0.000 OA
BRANCH  10  13
ATOM     12  C   UNL     1       1.486   8.643  19.888  0.00  0.00    +0.000 C 
ATOM     13  O   UNL     1       2.261   7.518  19.705  0.00  0.00    +0.000 OA
ENDBRANCH  10  13
ENDBRANCH   1  10
BRANCH   3  14
ATOM     14  C   UNL     1       5.585   4.507  18.926  0.00  0.00    +0.000 C 
BRANCH  14  15
ATOM     15  N   UNL     1       7.039   4.604  18.639  0.00  0.00    +0.000 NA
ATOM     16  C   UNL     1       7.364   4.577  17.199  0.00  0.00    +0.000 C 
ATOM     17  C   UNL     1       7.574   5.843  19.227  0.00  0.00    +0.000 C 
ENDBRANCH  14  15
ENDBRANCH   3  14
TORSDOF 5
ENDMDL
MODEL 4
REMARK VINA RESULT:      -6.5      2.974      3.961
REMARK  Name = 
REMARK  8 active torsions:
REMARK  status: ('A' for Active; 'I' for Inactive)
REMARK    1  A    between atoms: C_1  and  O_2
REMARK    2  A    between atoms: O_2  and  C_3
REMARK    3  A    between atoms: C_3  and  C_5
REMARK    4  A    between atoms: C_5  and  C_6
REMARK    5  A    between atoms: C_13  and  C_14
REMARK    6  A    between atoms: C_14  and  N_15
REMARK    7  A    between atoms: N_15  and  C_16
REMARK    8  A    between atoms: N_15  and  C_17
REMARK                            x       y       z     vdW  Elec       q    Type
REMARK                         _______ _______ _______ _____ _____    ______ ____
ROOT
ATOM      1  C   UNL     1       5.145   5.039  17.231  0.00  0.00    +0.000 C 
ATOM      2  C   UNL     1       5.124   6.232  16.276  0.00  0.00    +0.000 C 
ATOM      3  C   UNL     1       5.912   4.985  15.890  0.00  0.00    +0.000 C 
ENDROOT
BRANCH   1   4
ATOM      4  C   UNL     1       3.887   4.231  17.461  0.00  0.00    +0.000 A 
ATOM      5  C   UNL     1       2.699   4.911  17.764  0.00  0.00    +0.000 A 
ATOM      6  C   UNL     1       1.556   4.202  18.141  0.00  0.00    +0.000 A 
ATOM      7  C   UNL     1       1.591   2.807  18.214  0.00  0.00    +0.000 A 
ATOM      8  C   UNL     1       2.768   2.122  17.897  0.00  0.00    +0.000 A 
ATOM      9  C   UNL     1       3.914   2.828  17.522  0.00  0.00    +0.000 A 
ENDBRANCH   1   4
BRANCH   1  10
ATOM     10  C   UNL     1       6.155   4.873  18.319  0.00  0.00    +0.000 C 
ATOM     11  O   UNL     1       5.870   4.231  19.319  0.00  0.00    +0.000 OA
BRANCH  10  13
ATOM     12  C   UNL     1       7.956   6.422  18.763  0.00  0.00    +0.000 C 
ATOM     13  O   UNL     1       7.410   5.337  18.111  0.00  0.00    +0.000 OA
ENDBRANCH  10  13
ENDBRANCH   1  10
BRANCH   3  14
ATOM     14  C   UNL     1       5.352   4.372  14.591  0.00  0.00    +0.000 C 
BRANCH  14  15
ATOM     15  N   UNL     1       6.409   3.852  13.685  0.00  0.00    +0.000 NA
ATOM     16  C   UNL     1       5.891   3.340  12.401  0.00  0.00    +0.000 C 
ATOM     17  C   UNL     1       7.390   4.916  13.414  0.00  0.00    +0.000 C 
ENDBRANCH  14  15
ENDBRANCH   3  14
TORSDOF 5
ENDMDL
MODEL 5
REMARK VINA RESULT:      -6.5      2.406      4.553
REMARK  Name = 
REMARK  8 active torsions:
REMARK  status: ('A' for Active; 'I' for Inactive)
REMARK    1  A    between atoms: C_1  and  O_2
REMARK    2  A    between atoms: O_2  and  C_3
REMARK    3  A    between atoms: C_3  and  C_5
REMARK    4  A    between atoms: C_5  and  C_6
REMARK    5  A    between atoms: C_13  and  C_14
REMARK    6  A    between atoms: C_14  and  N_15
REMARK    7  A    between atoms: N_15  and  C_16
REMARK    8  A    between atoms: N_15  and  C_17
REMARK                            x       y       z     vdW  Elec       q    Type
REMARK                         _______ _______ _______ _____ _____    ______ ____
ROOT
ATOM      1  C   UNL     1       4.619   5.194  17.791  0.00  0.00    +0.000 C 
ATOM      2  C   UNL     1       4.693   4.801  16.316  0.00  0.00    +0.000 C 
ATOM      3  C   UNL     1       4.220   3.771  17.336  0.00  0.00    +0.000 C 
ENDROOT
BRANCH   1   4
ATOM      4  C   UNL     1       3.589   6.199  18.257  0.00  0.00    +0.000 A 
ATOM      5  C   UNL     1       3.363   7.340  17.473  0.00  0.00    +0.000 A 
ATOM      6  C   UNL     1       2.543   8.368  17.943  0.00  0.00    +0.000 A 
ATOM      7  C   UNL     1       1.939   8.262  19.199  0.00  0.00    +0.000 A 
ATOM      8  C   UNL     1       2.147   7.120  19.978  0.00  0.00    +0.000 A 
ATOM      9  C   UNL     1       2.969   6.091  19.512  0.00  0.00    +0.000 A 
ENDBRANCH   1   4
BRANCH   1  10
ATOM     10  C   UNL     1       5.763   5.044  18.741  0.00  0.00    +0.000 C 
ATOM     11  O   UNL     1       5.804   4.083  19.493  0.00  0.00    +0.000 OA
BRANCH  10  13
ATOM     12  C   UNL     1       7.978   5.795  19.347  0.00  0.00    +0.000 C 
ATOM     13  O   UNL     1       6.793   5.919  18.654  0.00  0.00    +0.000 OA
ENDBRANCH  10  13
ENDBRANCH   1  10
BRANCH   3  14
ATOM     14  C   UNL     1       2.775   3.330  17.030  0.00  0.00    +0.000 C 
BRANCH  14  15
ATOM     15  N   UNL     1       2.349   2.137  17.807  0.00  0.00    +0.000 NA
ATOM     16  C   UNL     1       3.419   1.559  18.643  0.00  0.00    +0.000 C 
ATOM     17  C   UNL     1       1.209   2.494  18.668  0.00  0.00    +0.000 C 
ENDBRANCH  14  15
ENDBRANCH   3  14
TORSDOF 5
ENDMDL
MODEL 6
REMARK VINA RESULT:      -6.4      3.427      4.634
REMARK  Name = 
REMARK  8 active torsions:
REMARK  status: ('A' for Active; 'I' for Inactive)
REMARK    1  A    between atoms: C_1  and  O_2
REMARK    2  A    between atoms: O_2  and  C_3
REMARK    3  A    between atoms: C_3  and  C_5
REMARK    4  A    between atoms: C_5  and  C_6
REMARK    5  A    between atoms: C_13  and  C_14
REMARK    6  A    between atoms: C_14  and  N_15
REMARK    7  A    between atoms: N_15  and  C_16
REMARK    8  A    between atoms: N_15  and  C_17
REMARK                            x       y       z     vdW  Elec       q    Type
REMARK                         _______ _______ _______ _____ _____    ______ ____
ROOT
ATOM      1  C   UNL     1       5.787   4.933  16.645  0.00  0.00    +0.000 C 
ATOM      2  C   UNL     1       5.805   6.124  15.688  0.00  0.00    +0.000 C 
ATOM      3  C   UNL     1       6.273   4.763  15.187  0.00  0.00    +0.000 C 
ENDROOT
BRANCH   1   4
ATOM      4  C   UNL     1       4.469   4.359  17.115  0.00  0.00    +0.000 A 
ATOM      5  C   UNL     1       3.450   5.244  17.498  0.00  0.00    +0.000 A 
ATOM      6  C   UNL     1       2.280   4.761  18.089  0.00  0.00    +0.000 A 
ATOM      7  C   UNL     1       2.117   3.389  18.298  0.00  0.00    +0.000 A 
ATOM      8  C   UNL     1       3.122   2.500  17.903  0.00  0.00    +0.000 A 
ATOM      9  C   UNL     1       4.295   2.980  17.315  0.00  0.00    +0.000 A 
ENDBRANCH   1   4
BRANCH   1  10
ATOM     10  C   UNL     1       6.933   4.573  17.533  0.00  0.00    +0.000 C 
ATOM     11  O   UNL     1       7.986   4.197  17.042  0.00  0.00    +0.000 OA
BRANCH  10  13
ATOM     12  C   UNL     1       7.575   5.696  19.573  0.00  0.00    +0.000 C 
ATOM     13  O   UNL     1       6.813   4.794  18.864  0.00  0.00    +0.000 OA
ENDBRANCH  10  13
ENDBRANCH   1  10
BRANCH   3  14
ATOM     14  C   UNL     1       5.385   4.279  14.024  0.00  0.00    +0.000 C 
BRANCH  14  15
ATOM     15  N   UNL     1       6.134   3.517  12.991  0.00  0.00    +0.000 NA
ATOM     16  C   UNL     1       5.286   3.016  11.892  0.00  0.00    +0.000 C 
ATOM     17  C   UNL     1       7.195   4.368  12.427  0.00  0.00    +0.000 C 
ENDBRANCH  14  15
ENDBRANCH   3  14
TORSDOF 5
ENDMDL
MODEL 7
REMARK VINA RESULT:      -6.3      2.454      4.320
REMARK  Name = 
REMARK  8 active torsions:
REMARK  status: ('A' for Active; 'I' for Inactive)
REMARK    1  A    between atoms: C_1  and  O_2
REMARK    2  A    between atoms: O_2  and  C_3
REMARK    3  A    between atoms: C_3  and  C_5
REMARK    4  A    between atoms: C_5  and  C_6
REMARK    5  A    between atoms: C_13  and  C_14
REMARK    6  A    between atoms: C_14  and  N_15
REMARK    7  A    between atoms: N_15  and  C_16
REMARK    8  A    between atoms: N_15  and  C_17
REMARK                            x       y       z     vdW  Elec       q    Type
REMARK                         _______ _______ _______ _____ _____    ______ ____
ROOT
ATOM      1  C   UNL     1       5.040   5.369  17.725  0.00  0.00    +0.000 C 
ATOM      2  C   UNL     1       4.999   4.872  16.280  0.00  0.00    +0.000 C 
ATOM      3  C   UNL     1       4.667   3.902  17.408  0.00  0.00    +0.000 C 
ENDROOT
BRANCH   1   4
ATOM      4  C   UNL     1       4.011   6.364  18.213  0.00  0.00    +0.000 A 
ATOM      5  C   UNL     1       3.335   6.096  19.413  0.00  0.00    +0.000 A 
ATOM      6  C   UNL     1       2.268   6.902  19.817  0.00  0.00    +0.000 A 
ATOM      7  C   UNL     1       1.871   7.984  19.027  0.00  0.00    +0.000 A 
ATOM      8  C   UNL     1       2.551   8.266  17.838  0.00  0.00    +0.000 A 
ATOM      9  C   UNL     1       3.617   7.461  17.429  0.00  0.00    +0.000 A 
ENDBRANCH   1   4
BRANCH   1  10
ATOM     10  C   UNL     1       6.269   5.333  18.573  0.00  0.00    +0.000 C 
ATOM     11  O   UNL     1       6.244   4.765  19.654  0.00  0.00    +0.000 OA
BRANCH  10  13
ATOM     12  C   UNL     1       7.598   7.134  17.662  0.00  0.00    +0.000 C 
ATOM     13  O   UNL     1       7.422   5.826  18.061  0.00  0.00    +0.000 OA
ENDBRANCH  10  13
ENDBRANCH   1  10
BRANCH   3  14
ATOM     14  C   UNL     1       3.222   3.384  17.267  0.00  0.00    +0.000 C 
BRANCH  14  15
ATOM     15  N   UNL     1       2.900   2.281  18.209  0.00  0.00    +0.000 NA
ATOM     16  C   UNL     1       3.769   2.246  19.402  0.00  0.00    +0.000 C 
ATOM     17  C   UNL     1       1.497   2.399  18.643  0.00  0.00    +0.000 C 
ENDBRANCH  14  15
ENDBRANCH   3  14
TORSDOF 5
ENDMDL
MODEL 8
REMARK VINA RESULT:      -6.3      2.698      3.800
REMARK  Name = 
REMARK  8 active torsions:
REMARK  status: ('A' for Active; 'I' for Inactive)
REMARK    1  A    between atoms: C_1  and  O_2
REMARK    2  A    between atoms: O_2  and  C_3
REMARK    3  A    between atoms: C_3  and  C_5
REMARK    4  A    between atoms: C_5  and  C_6
REMARK    5  A    between atoms: C_13  and  C_14
REMARK    6  A    between atoms: C_14  and  N_15
REMARK    7  A    between atoms: N_15  and  C_16
REMARK    8  A    between atoms: N_15  and  C_17
REMARK                            x       y       z     vdW  Elec       q    Type
REMARK                         _______ _______ _______ _____ _____    ______ ____
ROOT
ATOM      1  C   UNL     1       4.896   4.954  17.538  0.00  0.00    +0.000 C 
ATOM      2  C   UNL     1       4.921   5.927  16.360  0.00  0.00    +0.000 C 
ATOM      3  C   UNL     1       5.903   4.762  16.380  0.00  0.00    +0.000 C 
ENDROOT
BRANCH   1   4
ATOM      4  C   UNL     1       3.717   4.026  17.729  0.00  0.00    +0.000 A 
ATOM      5  C   UNL     1       2.425   4.570  17.706  0.00  0.00    +0.000 A 
ATOM      6  C   UNL     1       1.320   3.781  18.038  0.00  0.00    +0.000 A 
ATOM      7  C   UNL     1       1.499   2.441  18.391  0.00  0.00    +0.000 A 
ATOM      8  C   UNL     1       2.784   1.888  18.400  0.00  0.00    +0.000 A 
ATOM      9  C   UNL     1       3.891   2.675  18.071  0.00  0.00    +0.000 A 
ENDBRANCH   1   4
BRANCH   1  10
ATOM     10  C   UNL     1       5.696   5.149  18.784  0.00  0.00    +0.000 C 
ATOM     11  O   UNL     1       5.132   5.441  19.828  0.00  0.00    +0.000 OA
BRANCH  10  13
ATOM     12  C   UNL     1       8.002   5.708  19.242  0.00  0.00    +0.000 C 
ATOM     13  O   UNL     1       7.022   4.873  18.750  0.00  0.00    +0.000 OA
ENDBRANCH  10  13
ENDBRANCH   1  10
BRANCH   3  14
ATOM     14  C   UNL     1       5.669   3.837  15.169  0.00  0.00    +0.000 C 
BRANCH  14  15
ATOM     15  N   UNL     1       6.074   4.449  13.877  0.00  0.00    +0.000 NA
ATOM     16  C   UNL     1       7.437   5.016  13.889  0.00  0.00    +0.000 C 
ATOM     17  C   UNL     1       5.985   3.442  12.807  0.00  0.00    +0.000 C 
ENDBRANCH  14  15
ENDBRANCH   3  14
TORSDOF 5
ENDMDL
MODEL 9
REMARK VINA RESULT:      -6.2      2.574      5.210
REMARK  Name = 
REMARK  8 active torsions:
REMARK  status: ('A' for Active; 'I' for Inactive)
REMARK    1  A    between atoms: C_1  and  O_2
REMARK    2  A    between atoms: O_2  and  C_3
REMARK    3  A    between atoms: C_3  and  C_5
REMARK    4  A    between atoms: C_5  and  C_6
REMARK    5  A    between atoms: C_13  and  C_14
REMARK    6  A    between atoms: C_14  and  N_15
REMARK    7  A    between atoms: N_15  and  C_16
REMARK    8  A    between atoms: N_15  and  C_17
REMARK                            x       y       z     vdW  Elec       q    Type
REMARK                         _______ _______ _______ _____ _____    ______ ____
ROOT
ATOM      1  C   UNL     1       3.284   3.709  18.140  0.00  0.00    +0.000 C 
ATOM      2  C   UNL     1       2.040   4.057  17.323  0.00  0.00    +0.000 C 
ATOM      3  C   UNL     1       2.350   4.859  18.582  0.00  0.00    +0.000 C 
ENDROOT
BRANCH   1   4
ATOM      4  C   UNL     1       4.661   3.976  17.574  0.00  0.00    +0.000 A 
ATOM      5  C   UNL     1       5.687   4.350  18.454  0.00  0.00    +0.000 A 
ATOM      6  C   UNL     1       6.927   4.761  17.959  0.00  0.00    +0.000 A 
ATOM      7  C   UNL     1       7.152   4.798  16.580  0.00  0.00    +0.000 A 
ATOM      8  C   UNL     1       6.139   4.411  15.698  0.00  0.00    +0.000 A 
ATOM      9  C   UNL     1       4.896   4.001  16.190  0.00  0.00    +0.000 A 
ENDBRANCH   1   4
BRANCH   1  10
ATOM     10  C   UNL     1       3.290   2.702  19.243  0.00  0.00    +0.000 C 
ATOM     11  O   UNL     1       3.403   1.515  18.980  0.00  0.00    +0.000 OA
BRANCH  10  13
ATOM     12  C   UNL     1       2.405   2.735  21.492  0.00  0.00    +0.000 C 
ATOM     13  O   UNL     1       3.295   3.147  20.523  0.00  0.00    +0.000 OA
ENDBRANCH  10  13
ENDBRANCH   1  10
BRANCH   3  14
ATOM     14  C   UNL     1       2.574   6.344  18.235  0.00  0.00    +0.000 C 
BRANCH  14  15
ATOM     15  N   UNL     1       2.474   7.243  19.414  0.00  0.00    +0.000 NA
ATOM     16  C   UNL     1       1.757   8.504  19.141  0.00  0.00    +0.000 C 
ATOM     17  C   UNL     1       1.796   6.537  20.514  0.00  0.00    +0.000 C 
ENDBRANCH  14  15
ENDBRANCH   3  14
TORSDOF 5
ENDMDL
