MODEL 1
REMARK VINA RESULT:      -7.7      0.000      0.000
REMARK  Name = 
REMARK  9 active torsions:
REMARK  status: ('A' for Active; 'I' for Inactive)
REMARK    1  A    between atoms: C_2  and  C_3
REMARK    2  A    between atoms: C_3  and  C_4
REMARK    3  A    between atoms: C_4  and  C_5
REMARK    4  A    between atoms: N_11  and  C_12
REMARK    5  A    between atoms: C_12  and  N_13
REMARK    6  A    between atoms: C_12  and  C_24
REMARK    7  A    between atoms: N_13  and  C_14
REMARK    8  A    between atoms: C_14  and  N_16
REMARK    9  A    between atoms: N_16  and  C_17
REMARK                            x       y       z     vdW  Elec       q    Type
REMARK                         _______ _______ _______ _____ _____    ______ ____
ROOT
ATOM      1  C   UNL     1       5.419   5.886  17.916  0.00  0.00    +0.000 C 
ENDROOT
BRANCH   1   4
ATOM      2  O   UNL     1       6.961   7.687  16.502  0.00  0.00    +0.000 OA
ATOM      3  C   UNL     1       7.249   7.511  17.687  0.00  0.00    +0.000 C 
ATOM      4  N   UNL     1       6.553   6.616  18.463  0.00  0.00    +0.000 N 
ATOM      5  H   UNL     1       6.646   6.641  19.467  0.00  0.00    +0.000 HD
BRANCH   3   6
ATOM      6  C   UNL     1       8.309   8.357  18.374  0.00  0.00    +0.000 C 
BRANCH   6   7
ATOM      7  C   UNL     1       8.393   9.801  17.888  0.00  0.00    +0.000 C 
BRANCH   7   8
ATOM      8  C   UNL     1       9.429  10.614  18.620  0.00  0.00    +0.000 A 
ATOM      9  C   UNL     1       9.339  10.793  20.008  0.00  0.00    +0.000 A 
ATOM     10  C   UNL     1      10.322  11.504  20.699  0.00  0.00    +0.000 A 
ATOM     11  C   UNL     1      11.398  12.056  20.010  0.00  0.00    +0.000 A 
ATOM     12  C   UNL     1      11.488  11.902  18.631  0.00  0.00    +0.000 A 
ATOM     13  C   UNL     1      10.507  11.190  17.934  0.00  0.00    +0.000 A 
ENDBRANCH   7   8
ENDBRANCH   6   7
ENDBRANCH   3   6
ENDBRANCH   1   4
BRANCH   1  14
ATOM     14  C   UNL     1       5.783   4.766  16.822  0.00  0.00    +0.000 C 
ATOM     15 CL   UNL     1       5.371   5.247  15.130  0.00  0.00    +0.000 Cl
ATOM     16 CL   UNL     1       7.516   4.310  16.890  0.00  0.00    +0.000 Cl
ATOM     17 CL   UNL     1       4.831   3.227  17.110  0.00  0.00    +0.000 Cl
ENDBRANCH   1  14
BRANCH   1  18
ATOM     18  N   UNL     1       4.479   6.894  17.402  0.00  0.00    +0.000 N 
ATOM     19  H   UNL     1       4.800   7.461  16.627  0.00  0.00    +0.000 HD
BRANCH  18  20
ATOM     20  C   UNL     1       3.150   7.059  17.728  0.00  0.00    +0.000 C 
ATOM     21  S   UNL     1       2.465   8.489  18.251  0.00  0.00    +0.000 S 
BRANCH  20  22
ATOM     22  N   UNL     1       2.498   5.833  17.649  0.00  0.00    +0.000 N 
ATOM     23  H   UNL     1       2.621   5.372  16.754  0.00  0.00    +0.000 HD
BRANCH  22  24
ATOM     24  C   UNL     1       2.163   4.986  18.727  0.00  0.00    +0.000 A 
ATOM     25  C   UNL     1       1.569   3.740  18.513  0.00  0.00    +0.000 A 
ATOM     26  C   UNL     1       1.266   2.910  19.593  0.00  0.00    +0.000 A 
ATOM     27  C   UNL     1       1.560   3.326  20.889  0.00  0.00    +0.000 A 
ATOM     28 CL   UNL     1       1.152   2.319  22.222  0.00  0.00    +0.000 Cl
ATOM     29  C   UNL     1       2.187   4.551  21.110  0.00  0.00    +0.000 A 
ATOM     30  C   UNL     1       2.507   5.375  20.026  0.00  0.00    +0.000 A 
ENDBRANCH  22  24
ENDBRANCH  20  22
ENDBRANCH  18  20
ENDBRANCH   1  18
TORSDOF 9
ENDMDL
MODEL 2
REMARK VINA RESULT:      -7.7      4.717      6.501
REMARK  Name = 
REMARK  9 active torsions:
REMARK  status: ('A' for Active; 'I' for Inactive)
REMARK    1  A    between atoms: C_2  and  C_3
REMARK    2  A    between atoms: C_3  and  C_4
REMARK    3  A    between atoms: C_4  and  C_5
REMARK    4  A    between atoms: N_11  and  C_12
REMARK    5  A    between atoms: C_12  and  N_13
REMARK    6  A    between atoms: C_12  and  C_24
REMARK    7  A    between atoms: N_13  and  C_14
REMARK    8  A    between atoms: C_14  and  N_16
REMARK    9  A    between atoms: N_16  and  C_17
REMARK                            x       y       z     vdW  Elec       q    Type
REMARK                         _______ _______ _______ _____ _____    ______ ____
ROOT
ATOM      1  C   UNL     1       4.466   3.950  19.713  0.00  0.00    +0.000 C 
ENDROOT
BRANCH   1   4
ATOM      2  O   UNL     1       6.995   4.889  19.131  0.00  0.00    +0.000 OA
ATOM      3  C   UNL     1       6.284   4.568  18.178  0.00  0.00    +0.000 C 
ATOM      4  N   UNL     1       5.002   4.113  18.370  0.00  0.00    +0.000 N 
ATOM      5  H   UNL     1       4.514   3.650  17.618  0.00  0.00    +0.000 HD
BRANCH   3   6
ATOM      6  C   UNL     1       6.828   4.551  16.759  0.00  0.00    +0.000 C 
BRANCH   6   7
ATOM      7  C   UNL     1       5.772   4.676  15.664  0.00  0.00    +0.000 C 
BRANCH   7   8
ATOM      8  C   UNL     1       6.332   4.498  14.277  0.00  0.00    +0.000 A 
ATOM      9  C   UNL     1       5.768   3.559  13.400  0.00  0.00    +0.000 A 
ATOM     10  C   UNL     1       6.251   3.424  12.098  0.00  0.00    +0.000 A 
ATOM     11  C   UNL     1       7.311   4.214  11.659  0.00  0.00    +0.000 A 
ATOM     12  C   UNL     1       7.890   5.133  12.526  0.00  0.00    +0.000 A 
ATOM     13  C   UNL     1       7.411   5.274  13.832  0.00  0.00    +0.000 A 
ENDBRANCH   7   8
ENDBRANCH   6   7
ENDBRANCH   3   6
ENDBRANCH   1   4
BRANCH   1  14
ATOM     14  C   UNL     1       3.921   2.478  20.064  0.00  0.00    +0.000 C 
ATOM     15 CL   UNL     1       3.332   1.562  18.622  0.00  0.00    +0.000 Cl
ATOM     16 CL   UNL     1       5.159   1.495  20.910  0.00  0.00    +0.000 Cl
ATOM     17 CL   UNL     1       2.472   2.560  21.182  0.00  0.00    +0.000 Cl
ENDBRANCH   1  14
BRANCH   1  18
ATOM     18  N   UNL     1       3.438   4.988  19.884  0.00  0.00    +0.000 N 
ATOM     19  H   UNL     1       3.396   5.440  20.789  0.00  0.00    +0.000 HD
BRANCH  18  20
ATOM     20  C   UNL     1       2.630   5.548  18.919  0.00  0.00    +0.000 C 
ATOM     21  S   UNL     1       1.566   4.697  17.954  0.00  0.00    +0.000 S 
BRANCH  20  22
ATOM     22  N   UNL     1       2.911   6.906  18.808  0.00  0.00    +0.000 N 
ATOM     23  H   UNL     1       3.660   7.107  18.154  0.00  0.00    +0.000 HD
BRANCH  22  24
ATOM     24  C   UNL     1       2.023   7.972  19.061  0.00  0.00    +0.000 A 
ATOM     25  C   UNL     1       1.548   8.233  20.349  0.00  0.00    +0.000 A 
ATOM     26  C   UNL     1       0.687   9.306  20.579  0.00  0.00    +0.000 A 
ATOM     27  C   UNL     1       0.302  10.123  19.518  0.00  0.00    +0.000 A 
ATOM     28 CL   UNL     1      -0.789  11.423  19.795  0.00  0.00    +0.000 Cl
ATOM     29  C   UNL     1       0.799   9.894  18.236  0.00  0.00    +0.000 A 
ATOM     30  C   UNL     1       1.677   8.829  18.010  0.00  0.00    +0.000 A 
ENDBRANCH  22  24
ENDBRANCH  20  22
ENDBRANCH  18  20
ENDBRANCH   1  18
TORSDOF 9
ENDMDL
MODEL 3
REMARK VINA RESULT:      -7.6      4.418      7.566
REMARK  Name = 
REMARK  9 active torsions:
REMARK  status: ('A' for Active; 'I' for Inactive)
REMARK    1  A    between atoms: C_2  and  C_3
REMARK    2  A    between atoms: C_3  and  C_4
REMARK    3  A    between atoms: C_4  and  C_5
REMARK    4  A    between atoms: N_11  and  C_12
REMARK    5  A    between atoms: C_12  and  N_13
REMARK    6  A    between atoms: C_12  and  C_24
REMARK    7  A    between atoms: N_13  and  C_14
REMARK    8  A    between atoms: C_14  and  N_16
REMARK    9  A    between atoms: N_16  and  C_17
REMARK                            x       y       z     vdW  Elec       q    Type
REMARK                         _______ _______ _______ _____ _____    ______ ____
ROOT
ATOM      1  C   UNL     1       3.352   4.832  19.233  0.00  0.00    +0.000 C 
ENDROOT
BRANCH   1   4
ATOM      2  O   UNL     1       2.565   7.084  17.845  0.00  0.00    +0.000 OA
ATOM      3  C   UNL     1       2.528   7.143  19.075  0.00  0.00    +0.000 C 
ATOM      4  N   UNL     1       2.925   6.079  19.850  0.00  0.00    +0.000 N 
ATOM      5  H   UNL     1       2.686   6.053  20.829  0.00  0.00    +0.000 HD
BRANCH   3   6
ATOM      6  C   UNL     1       1.937   8.347  19.789  0.00  0.00    +0.000 C 
BRANCH   6   7
ATOM      7  C   UNL     1       1.028   8.012  20.968  0.00  0.00    +0.000 C 
BRANCH   7   8
ATOM      8  C   UNL     1       0.252   9.201  21.475  0.00  0.00    +0.000 A 
ATOM      9  C   UNL     1      -0.106  10.238  20.602  0.00  0.00    +0.000 A 
ATOM     10  C   UNL     1      -0.866  11.317  21.055  0.00  0.00    +0.000 A 
ATOM     11  C   UNL     1      -1.265  11.381  22.388  0.00  0.00    +0.000 A 
ATOM     12  C   UNL     1      -0.899  10.368  23.267  0.00  0.00    +0.000 A 
ATOM     13  C   UNL     1      -0.138   9.284  22.819  0.00  0.00    +0.000 A 
ENDBRANCH   7   8
ENDBRANCH   6   7
ENDBRANCH   3   6
ENDBRANCH   1   4
BRANCH   1  14
ATOM     14  C   UNL     1       2.515   3.528  19.665  0.00  0.00    +0.000 C 
ATOM     15 CL   UNL     1       0.936   3.911  20.455  0.00  0.00    +0.000 Cl
ATOM     16 CL   UNL     1       2.218   2.438  18.272  0.00  0.00    +0.000 Cl
ATOM     17 CL   UNL     1       3.427   2.540  20.909  0.00  0.00    +0.000 Cl
ENDBRANCH   1  14
BRANCH   1  18
ATOM     18  N   UNL     1       4.790   4.697  19.511  0.00  0.00    +0.000 N 
ATOM     19  H   UNL     1       5.059   3.987  20.181  0.00  0.00    +0.000 HD
BRANCH  18  20
ATOM     20  C   UNL     1       5.840   5.301  18.854  0.00  0.00    +0.000 C 
ATOM     21  S   UNL     1       7.362   5.537  19.499  0.00  0.00    +0.000 S 
BRANCH  20  22
ATOM     22  N   UNL     1       5.407   5.768  17.617  0.00  0.00    +0.000 N 
ATOM     23  H   UNL     1       5.199   6.761  17.616  0.00  0.00    +0.000 HD
BRANCH  22  24
ATOM     24  C   UNL     1       5.698   5.207  16.357  0.00  0.00    +0.000 A 
ATOM     25  C   UNL     1       4.734   4.496  15.637  0.00  0.00    +0.000 A 
ATOM     26  C   UNL     1       5.038   3.969  14.382  0.00  0.00    +0.000 A 
ATOM     27  C   UNL     1       6.309   4.154  13.844  0.00  0.00    +0.000 A 
ATOM     28 CL   UNL     1       6.696   3.471  12.314  0.00  0.00    +0.000 Cl
ATOM     29  C   UNL     1       7.267   4.892  14.537  0.00  0.00    +0.000 A 
ATOM     30  C   UNL     1       6.955   5.437  15.787  0.00  0.00    +0.000 A 
ENDBRANCH  22  24
ENDBRANCH  20  22
ENDBRANCH  18  20
ENDBRANCH   1  18
TORSDOF 9
ENDMDL
MODEL 4
REMARK VINA RESULT:      -7.5      2.307      2.966
REMARK  Name = 
REMARK  9 active torsions:
REMARK  status: ('A' for Active; 'I' for Inactive)
REMARK    1  A    between atoms: C_2  and  C_3
REMARK    2  A    between atoms: C_3  and  C_4
REMARK    3  A    between atoms: C_4  and  C_5
REMARK    4  A    between atoms: N_11  and  C_12
REMARK    5  A    between atoms: C_12  and  N_13
REMARK    6  A    between atoms: C_12  and  C_24
REMARK    7  A    between atoms: N_13  and  C_14
REMARK    8  A    between atoms: C_14  and  N_16
REMARK    9  A    between atoms: N_16  and  C_17
REMARK                            x       y       z     vdW  Elec       q    Type
REMARK                         _______ _______ _______ _____ _____    ______ ____
ROOT
ATOM      1  C   UNL     1       4.943   6.107  17.565  0.00  0.00    +0.000 C 
ENDROOT
BRANCH   1   4
ATOM      2  O   UNL     1       7.377   6.597  16.359  0.00  0.00    +0.000 OA
ATOM      3  C   UNL     1       7.217   7.038  17.498  0.00  0.00    +0.000 C 
ATOM      4  N   UNL     1       6.048   6.823  18.186  0.00  0.00    +0.000 N 
ATOM      5  H   UNL     1       5.842   7.364  19.011  0.00  0.00    +0.000 HD
BRANCH   3   6
ATOM      6  C   UNL     1       8.257   7.936  18.148  0.00  0.00    +0.000 C 
BRANCH   6   7
ATOM      7  C   UNL     1       8.062   9.429  17.900  0.00  0.00    +0.000 C 
BRANCH   7   8
ATOM      8  C   UNL     1       9.120  10.282  18.552  0.00  0.00    +0.000 A 
ATOM      9  C   UNL     1      10.060  10.967  17.769  0.00  0.00    +0.000 A 
ATOM     10  C   UNL     1      11.011  11.797  18.364  0.00  0.00    +0.000 A 
ATOM     11  C   UNL     1      11.044  11.941  19.749  0.00  0.00    +0.000 A 
ATOM     12  C   UNL     1      10.129  11.252  20.536  0.00  0.00    +0.000 A 
ATOM     13  C   UNL     1       9.174  10.420  19.946  0.00  0.00    +0.000 A 
ENDBRANCH   7   8
ENDBRANCH   6   7
ENDBRANCH   3   6
ENDBRANCH   1   4
BRANCH   1  14
ATOM     14  C   UNL     1       3.482   6.471  18.130  0.00  0.00    +0.000 C 
ATOM     15 CL   UNL     1       3.280   6.120  19.891  0.00  0.00    +0.000 Cl
ATOM     16 CL   UNL     1       3.062   8.188  17.829  0.00  0.00    +0.000 Cl
ATOM     17 CL   UNL     1       2.188   5.469  17.307  0.00  0.00    +0.000 Cl
ENDBRANCH   1  14
BRANCH   1  18
ATOM     18  N   UNL     1       5.253   4.674  17.681  0.00  0.00    +0.000 N 
ATOM     19  H   UNL     1       5.400   4.315  18.616  0.00  0.00    +0.000 HD
BRANCH  18  20
ATOM     20  C   UNL     1       5.206   3.714  16.694  0.00  0.00    +0.000 C 
ATOM     21  S   UNL     1       5.822   3.899  15.152  0.00  0.00    +0.000 S 
BRANCH  20  22
ATOM     22  N   UNL     1       4.484   2.616  17.148  0.00  0.00    +0.000 N 
ATOM     23  H   UNL     1       4.852   1.730  16.815  0.00  0.00    +0.000 HD
BRANCH  22  24
ATOM     24  C   UNL     1       3.706   2.546  18.322  0.00  0.00    +0.000 A 
ATOM     25  C   UNL     1       4.284   2.696  19.586  0.00  0.00    +0.000 A 
ATOM     26  C   UNL     1       3.491   2.645  20.733  0.00  0.00    +0.000 A 
ATOM     27  C   UNL     1       2.118   2.446  20.617  0.00  0.00    +0.000 A 
ATOM     28 CL   UNL     1       1.147   2.346  22.033  0.00  0.00    +0.000 Cl
ATOM     29  C   UNL     1       1.527   2.333  19.359  0.00  0.00    +0.000 A 
ATOM     30  C   UNL     1       2.319   2.403  18.209  0.00  0.00    +0.000 A 
ENDBRANCH  22  24
ENDBRANCH  20  22
ENDBRANCH  18  20
ENDBRANCH   1  18
TORSDOF 9
ENDMDL
MODEL 5
REMARK VINA RESULT:      -7.4      4.332      7.601
REMARK  Name = 
REMARK  9 active torsions:
REMARK  status: ('A' for Active; 'I' for Inactive)
REMARK    1  A    between atoms: C_2  and  C_3
REMARK    2  A    between atoms: C_3  and  C_4
REMARK    3  A    between atoms: C_4  and  C_5
REMARK    4  A    between atoms: N_11  and  C_12
REMARK    5  A    between atoms: C_12  and  N_13
REMARK    6  A    between atoms: C_12  and  C_24
REMARK    7  A    between atoms: N_13  and  C_14
REMARK    8  A    between atoms: C_14  and  N_16
REMARK    9  A    between atoms: N_16  and  C_17
REMARK                            x       y       z     vdW  Elec       q    Type
REMARK                         _______ _______ _______ _____ _____    ______ ____
ROOT
ATOM      1  C   UNL     1       3.320   5.120  18.910  0.00  0.00    +0.000 C 
ENDROOT
BRANCH   1   4
ATOM      2  O   UNL     1       3.083   7.535  17.594  0.00  0.00    +0.000 OA
ATOM      3  C   UNL     1       2.528   7.437  18.689  0.00  0.00    +0.000 C 
ATOM      4  N   UNL     1       2.612   6.282  19.428  0.00  0.00    +0.000 N 
ATOM      5  H   UNL     1       1.984   6.133  20.203  0.00  0.00    +0.000 HD
BRANCH   3   6
ATOM      6  C   UNL     1       1.632   8.544  19.221  0.00  0.00    +0.000 C 
BRANCH   6   7
ATOM      7  C   UNL     1       1.376   9.688  18.244  0.00  0.00    +0.000 C 
BRANCH   7   8
ATOM      8  C   UNL     1       0.025  10.332  18.425  0.00  0.00    +0.000 A 
ATOM      9  C   UNL     1      -1.045   9.982  17.588  0.00  0.00    +0.000 A 
ATOM     10  C   UNL     1      -2.310  10.539  17.783  0.00  0.00    +0.000 A 
ATOM     11  C   UNL     1      -2.518  11.461  18.805  0.00  0.00    +0.000 A 
ATOM     12  C   UNL     1      -1.460  11.829  19.629  0.00  0.00    +0.000 A 
ATOM     13  C   UNL     1      -0.191  11.275  19.439  0.00  0.00    +0.000 A 
ENDBRANCH   7   8
ENDBRANCH   6   7
ENDBRANCH   3   6
ENDBRANCH   1   4
BRANCH   1  14
ATOM     14  C   UNL     1       2.631   3.700  19.218  0.00  0.00    +0.000 C 
ATOM     15 CL   UNL     1       2.241   2.749  17.732  0.00  0.00    +0.000 Cl
ATOM     16 CL   UNL     1       3.642   2.692  20.303  0.00  0.00    +0.000 Cl
ATOM     17 CL   UNL     1       1.020   3.917  20.063  0.00  0.00    +0.000 Cl
ENDBRANCH   1  14
BRANCH   1  18
ATOM     18  N   UNL     1       4.696   5.204  19.424  0.00  0.00    +0.000 N 
ATOM     19  H   UNL     1       4.852   4.861  20.364  0.00  0.00    +0.000 HD
BRANCH  18  20
ATOM     20  C   UNL     1       5.840   5.536  18.732  0.00  0.00    +0.000 C 
ATOM     21  S   UNL     1       7.383   5.510  19.368  0.00  0.00    +0.000 S 
BRANCH  20  22
ATOM     22  N   UNL     1       5.498   5.987  17.461  0.00  0.00    +0.000 N 
ATOM     23  H   UNL     1       5.394   6.995  17.409  0.00  0.00    +0.000 HD
BRANCH  22  24
ATOM     24  C   UNL     1       5.773   5.342  16.237  0.00  0.00    +0.000 A 
ATOM     25  C   UNL     1       4.865   4.444  15.669  0.00  0.00    +0.000 A 
ATOM     26  C   UNL     1       5.149   3.834  14.446  0.00  0.00    +0.000 A 
ATOM     27  C   UNL     1       6.341   4.124  13.789  0.00  0.00    +0.000 A 
ATOM     28 CL   UNL     1       6.707   3.344  12.301  0.00  0.00    +0.000 Cl
ATOM     29  C   UNL     1       7.237   5.046  14.329  0.00  0.00    +0.000 A 
ATOM     30  C   UNL     1       6.944   5.671  15.545  0.00  0.00    +0.000 A 
ENDBRANCH  22  24
ENDBRANCH  20  22
ENDBRANCH  18  20
ENDBRANCH   1  18
TORSDOF 9
ENDMDL
MODEL 6
REMARK VINA RESULT:      -7.4      6.046      9.112
REMARK  Name = 
REMARK  9 active torsions:
REMARK  status: ('A' for Active; 'I' for Inactive)
REMARK    1  A    between atoms: C_2  and  C_3
REMARK    2  A    between atoms: C_3  and  C_4
REMARK    3  A    between atoms: C_4  and  C_5
REMARK    4  A    between atoms: N_11  and  C_12
REMARK    5  A    between atoms: C_12  and  N_13
REMARK    6  A    between atoms: C_12  and  C_24
REMARK    7  A    between atoms: N_13  and  C_14
REMARK    8  A    between atoms: C_14  and  N_16
REMARK    9  A    between atoms: N_16  and  C_17
REMARK                            x       y       z     vdW  Elec       q    Type
REMARK                         _______ _______ _______ _____ _____    ______ ____
ROOT
ATOM      1  C   UNL     1       0.925   9.920  20.040  0.00  0.00    +0.000 C 
ENDROOT
BRANCH   1   4
ATOM      2  O   UNL     1       2.228   9.844  17.608  0.00  0.00    +0.000 OA
ATOM      3  C   UNL     1       2.031   8.767  18.172  0.00  0.00    +0.000 C 
ATOM      4  N   UNL     1       1.369   8.704  19.374  0.00  0.00    +0.000 N 
ATOM      5  H   UNL     1       1.408   7.862  19.927  0.00  0.00    +0.000 HD
BRANCH   3   6
ATOM      6  C   UNL     1       2.610   7.473  17.624  0.00  0.00    +0.000 C 
BRANCH   6   7
ATOM      7  C   UNL     1       3.269   6.572  18.664  0.00  0.00    +0.000 C 
BRANCH   7   8
ATOM      8  C   UNL     1       2.445   5.356  19.003  0.00  0.00    +0.000 A 
ATOM      9  C   UNL     1       2.003   5.143  20.317  0.00  0.00    +0.000 A 
ATOM     10  C   UNL     1       1.200   4.044  20.626  0.00  0.00    +0.000 A 
ATOM     11  C   UNL     1       0.840   3.139  19.632  0.00  0.00    +0.000 A 
ATOM     12  C   UNL     1       1.289   3.330  18.330  0.00  0.00    +0.000 A 
ATOM     13  C   UNL     1       2.093   4.428  18.013  0.00  0.00    +0.000 A 
ENDBRANCH   7   8
ENDBRANCH   6   7
ENDBRANCH   3   6
ENDBRANCH   1   4
BRANCH   1  14
ATOM     14  C   UNL     1       0.365   9.722  21.535  0.00  0.00    +0.000 C 
ATOM     15 CL   UNL     1      -0.436  11.194  22.208  0.00  0.00    +0.000 Cl
ATOM     16 CL   UNL     1      -0.775   8.341  21.640  0.00  0.00    +0.000 Cl
ATOM     17 CL   UNL     1       1.726   9.359  22.707  0.00  0.00    +0.000 Cl
ENDBRANCH   1  14
BRANCH   1  18
ATOM     18  N   UNL     1      -0.058  10.553  19.148  0.00  0.00    +0.000 N 
ATOM     19  H   UNL     1      -0.875  10.004  18.910  0.00  0.00    +0.000 HD
BRANCH  18  20
ATOM     20  C   UNL     1      -0.096  11.862  18.722  0.00  0.00    +0.000 C 
ATOM     21  S   UNL     1       0.826  13.101  19.359  0.00  0.00    +0.000 S 
BRANCH  20  22
ATOM     22  N   UNL     1      -1.085  12.008  17.755  0.00  0.00    +0.000 N 
ATOM     23  H   UNL     1      -0.733  11.918  16.807  0.00  0.00    +0.000 HD
BRANCH  22  24
ATOM     24  C   UNL     1      -2.463  11.757  17.916  0.00  0.00    +0.000 A 
ATOM     25  C   UNL     1      -3.142  12.148  19.073  0.00  0.00    +0.000 A 
ATOM     26  C   UNL     1      -4.511  11.909  19.202  0.00  0.00    +0.000 A 
ATOM     27  C   UNL     1      -5.203  11.280  18.170  0.00  0.00    +0.000 A 
ATOM     28 CL   UNL     1      -6.882  10.952  18.345  0.00  0.00    +0.000 Cl
ATOM     29  C   UNL     1      -4.543  10.919  16.996  0.00  0.00    +0.000 A 
ATOM     30  C   UNL     1      -3.174  11.176  16.860  0.00  0.00    +0.000 A 
ENDBRANCH  22  24
ENDBRANCH  20  22
ENDBRANCH  18  20
ENDBRANCH   1  18
TORSDOF 9
ENDMDL
MODEL 7
REMARK VINA RESULT:      -7.4      2.344      2.727
REMARK  Name = 
REMARK  9 active torsions:
REMARK  status: ('A' for Active; 'I' for Inactive)
REMARK    1  A    between atoms: C_2  and  C_3
REMARK    2  A    between atoms: C_3  and  C_4
REMARK    3  A    between atoms: C_4  and  C_5
REMARK    4  A    between atoms: N_11  and  C_12
REMARK    5  A    between atoms: C_12  and  N_13
REMARK    6  A    between atoms: C_12  and  C_24
REMARK    7  A    between atoms: N_13  and  C_14
REMARK    8  A    between atoms: C_14  and  N_16
REMARK    9  A    between atoms: N_16  and  C_17
REMARK                            x       y       z     vdW  Elec       q    Type
REMARK                         _______ _______ _______ _____ _____    ______ ____
ROOT
ATOM      1  C   UNL     1       4.893   6.298  17.491  0.00  0.00    +0.000 C 
ENDROOT
BRANCH   1   4
ATOM      2  O   UNL     1       7.435   6.535  16.442  0.00  0.00    +0.000 OA
ATOM      3  C   UNL     1       7.193   7.166  17.472  0.00  0.00    +0.000 C 
ATOM      4  N   UNL     1       5.963   7.090  18.080  0.00  0.00    +0.000 N 
ATOM      5  H   UNL     1       5.704   7.768  18.781  0.00  0.00    +0.000 HD
BRANCH   3   6
ATOM      6  C   UNL     1       8.201   8.144  18.053  0.00  0.00    +0.000 C 
BRANCH   6   7
ATOM      7  C   UNL     1       8.046   9.586  17.576  0.00  0.00    +0.000 C 
BRANCH   7   8
ATOM      8  C   UNL     1       8.875  10.565  18.367  0.00  0.00    +0.000 A 
ATOM      9  C   UNL     1       9.346  10.226  19.644  0.00  0.00    +0.000 A 
ATOM     10  C   UNL     1      10.155  11.109  20.360  0.00  0.00    +0.000 A 
ATOM     11  C   UNL     1      10.493  12.345  19.816  0.00  0.00    +0.000 A 
ATOM     12  C   UNL     1      10.016  12.700  18.559  0.00  0.00    +0.000 A 
ATOM     13  C   UNL     1       9.206  11.819  17.837  0.00  0.00    +0.000 A 
ENDBRANCH   7   8
ENDBRANCH   6   7
ENDBRANCH   3   6
ENDBRANCH   1   4
BRANCH   1  14
ATOM     14  C   UNL     1       3.429   6.550  18.108  0.00  0.00    +0.000 C 
ATOM     15 CL   UNL     1       3.303   6.135  19.862  0.00  0.00    +0.000 Cl
ATOM     16 CL   UNL     1       2.891   8.244  17.873  0.00  0.00    +0.000 Cl
ATOM     17 CL   UNL     1       2.178   5.491  17.291  0.00  0.00    +0.000 Cl
ENDBRANCH   1  14
BRANCH   1  18
ATOM     18  N   UNL     1       5.312   4.891  17.587  0.00  0.00    +0.000 N 
ATOM     19  H   UNL     1       5.602   4.564  18.499  0.00  0.00    +0.000 HD
BRANCH  18  20
ATOM     20  C   UNL     1       5.203   3.908  16.627  0.00  0.00    +0.000 C 
ATOM     21  S   UNL     1       5.523   4.120  15.002  0.00  0.00    +0.000 S 
BRANCH  20  22
ATOM     22  N   UNL     1       4.694   2.750  17.205  0.00  0.00    +0.000 N 
ATOM     23  H   UNL     1       5.279   1.935  17.049  0.00  0.00    +0.000 HD
BRANCH  22  24
ATOM     24  C   UNL     1       3.832   2.673  18.318  0.00  0.00    +0.000 A 
ATOM     25  C   UNL     1       2.460   2.456  18.162  0.00  0.00    +0.000 A 
ATOM     26  C   UNL     1       1.630   2.362  19.279  0.00  0.00    +0.000 A 
ATOM     27  C   UNL     1       2.172   2.483  20.556  0.00  0.00    +0.000 A 
ATOM     28 CL   UNL     1       1.142   2.405  21.931  0.00  0.00    +0.000 Cl
ATOM     29  C   UNL     1       3.544   2.662  20.724  0.00  0.00    +0.000 A 
ATOM     30  C   UNL     1       4.379   2.738  19.605  0.00  0.00    +0.000 A 
ENDBRANCH  22  24
ENDBRANCH  20  22
ENDBRANCH  18  20
ENDBRANCH   1  18
TORSDOF 9
ENDMDL
MODEL 8
REMARK VINA RESULT:      -7.4      4.792      6.686
REMARK  Name = 
REMARK  9 active torsions:
REMARK  status: ('A' for Active; 'I' for Inactive)
REMARK    1  A    between atoms: C_2  and  C_3
REMARK    2  A    between atoms: C_3  and  C_4
REMARK    3  A    between atoms: C_4  and  C_5
REMARK    4  A    between atoms: N_11  and  C_12
REMARK    5  A    between atoms: C_12  and  N_13
REMARK    6  A    between atoms: C_12  and  C_24
REMARK    7  A    between atoms: N_13  and  C_14
REMARK    8  A    between atoms: C_14  and  N_16
REMARK    9  A    between atoms: N_16  and  C_17
REMARK                            x       y       z     vdW  Elec       q    Type
REMARK                         _______ _______ _______ _____ _____    ______ ____
ROOT
ATOM      1  C   UNL     1       3.413   4.569  19.601  0.00  0.00    +0.000 C 
ENDROOT
BRANCH   1   4
ATOM      2  O   UNL     1       5.993   5.425  19.119  0.00  0.00    +0.000 OA
ATOM      3  C   UNL     1       5.389   4.907  18.178  0.00  0.00    +0.000 C 
ATOM      4  N   UNL     1       4.093   4.473  18.317  0.00  0.00    +0.000 N 
ATOM      5  H   UNL     1       3.689   3.861  17.625  0.00  0.00    +0.000 HD
BRANCH   3   6
ATOM      6  C   UNL     1       6.085   4.618  16.858  0.00  0.00    +0.000 C 
BRANCH   6   7
ATOM      7  C   UNL     1       5.207   4.778  15.620  0.00  0.00    +0.000 C 
BRANCH   7   8
ATOM      8  C   UNL     1       5.941   4.502  14.333  0.00  0.00    +0.000 A 
ATOM      9  C   UNL     1       5.409   3.609  13.392  0.00  0.00    +0.000 A 
ATOM     10  C   UNL     1       6.059   3.386  12.177  0.00  0.00    +0.000 A 
ATOM     11  C   UNL     1       7.254   4.042  11.893  0.00  0.00    +0.000 A 
ATOM     12  C   UNL     1       7.800   4.916  12.827  0.00  0.00    +0.000 A 
ATOM     13  C   UNL     1       7.154   5.143  14.045  0.00  0.00    +0.000 A 
ENDBRANCH   7   8
ENDBRANCH   6   7
ENDBRANCH   3   6
ENDBRANCH   1   4
BRANCH   1  14
ATOM     14  C   UNL     1       2.923   3.172  20.228  0.00  0.00    +0.000 C 
ATOM     15 CL   UNL     1       1.788   2.258  19.160  0.00  0.00    +0.000 Cl
ATOM     16 CL   UNL     1       4.307   2.111  20.647  0.00  0.00    +0.000 Cl
ATOM     17 CL   UNL     1       1.986   3.437  21.780  0.00  0.00    +0.000 Cl
ENDBRANCH   1  14
BRANCH   1  18
ATOM     18  N   UNL     1       2.309   5.525  19.420  0.00  0.00    +0.000 N 
ATOM     19  H   UNL     1       1.370   5.153  19.486  0.00  0.00    +0.000 HD
BRANCH  18  20
ATOM     20  C   UNL     1       2.382   6.899  19.338  0.00  0.00    +0.000 C 
ATOM     21  S   UNL     1       2.764   7.753  17.955  0.00  0.00    +0.000 S 
BRANCH  20  22
ATOM     22  N   UNL     1       2.188   7.450  20.600  0.00  0.00    +0.000 N 
ATOM     23  H   UNL     1       2.993   7.345  21.210  0.00  0.00    +0.000 HD
BRANCH  22  24
ATOM     24  C   UNL     1       1.308   8.500  20.933  0.00  0.00    +0.000 A 
ATOM     25  C   UNL     1       0.743   9.315  19.949  0.00  0.00    +0.000 A 
ATOM     26  C   UNL     1      -0.143  10.334  20.300  0.00  0.00    +0.000 A 
ATOM     27  C   UNL     1      -0.467  10.538  21.640  0.00  0.00    +0.000 A 
ATOM     28 CL   UNL     1      -1.529  11.818  22.076  0.00  0.00    +0.000 Cl
ATOM     29  C   UNL     1       0.063   9.707  22.626  0.00  0.00    +0.000 A 
ATOM     30  C   UNL     1       0.936   8.674  22.271  0.00  0.00    +0.000 A 
ENDBRANCH  22  24
ENDBRANCH  20  22
ENDBRANCH  18  20
ENDBRANCH   1  18
TORSDOF 9
ENDMDL
MODEL 9
REMARK VINA RESULT:      -7.4      4.719      6.703
REMARK  Name = 
REMARK  9 active torsions:
REMARK  status: ('A' for Active; 'I' for Inactive)
REMARK    1  A    between atoms: C_2  and  C_3
REMARK    2  A    between atoms: C_3  and  C_4
REMARK    3  A    between atoms: C_4  and  C_5
REMARK    4  A    between atoms: N_11  and  C_12
REMARK    5  A    between atoms: C_12  and  N_13
REMARK    6  A    between atoms: C_12  and  C_24
REMARK    7  A    between atoms: N_13  and  C_14
REMARK    8  A    between atoms: C_14  and  N_16
REMARK    9  A    between atoms: N_16  and  C_17
REMARK                            x       y       z     vdW  Elec       q    Type
REMARK                         _______ _______ _______ _____ _____    ______ ____
ROOT
ATOM      1  C   UNL     1       3.134   5.136  19.040  0.00  0.00    +0.000 C 
ENDROOT
BRANCH   1   4
ATOM      2  O   UNL     1       5.891   5.191  19.166  0.00  0.00    +0.000 OA
ATOM      3  C   UNL     1       5.385   4.940  18.071  0.00  0.00    +0.000 C 
ATOM      4  N   UNL     1       4.021   4.915  17.907  0.00  0.00    +0.000 N 
ATOM      5  H   UNL     1       3.620   4.499  17.081  0.00  0.00    +0.000 HD
BRANCH   3   6
ATOM      6  C   UNL     1       6.240   4.534  16.882  0.00  0.00    +0.000 C 
BRANCH   6   7
ATOM      7  C   UNL     1       5.467   3.942  15.707  0.00  0.00    +0.000 C 
BRANCH   7   8
ATOM      8  C   UNL     1       6.167   4.122  14.385  0.00  0.00    +0.000 A 
ATOM      9  C   UNL     1       5.760   3.388  13.261  0.00  0.00    +0.000 A 
ATOM     10  C   UNL     1       6.373   3.586  12.023  0.00  0.00    +0.000 A 
ATOM     11  C   UNL     1       7.406   4.510  11.894  0.00  0.00    +0.000 A 
ATOM     12  C   UNL     1       7.831   5.230  13.005  0.00  0.00    +0.000 A 
ATOM     13  C   UNL     1       7.221   5.035  14.248  0.00  0.00    +0.000 A 
ENDBRANCH   7   8
ENDBRANCH   6   7
ENDBRANCH   3   6
ENDBRANCH   1   4
BRANCH   1  14
ATOM     14  C   UNL     1       2.383   3.827  19.593  0.00  0.00    +0.000 C 
ATOM     15 CL   UNL     1       3.469   2.695  20.491  0.00  0.00    +0.000 Cl
ATOM     16 CL   UNL     1       0.992   4.251  20.642  0.00  0.00    +0.000 Cl
ATOM     17 CL   UNL     1       1.706   2.824  18.217  0.00  0.00    +0.000 Cl
ENDBRANCH   1  14
BRANCH   1  18
ATOM     18  N   UNL     1       2.198   6.198  18.639  0.00  0.00    +0.000 N 
ATOM     19  H   UNL     1       1.350   5.903  18.171  0.00  0.00    +0.000 HD
BRANCH  18  20
ATOM     20  C   UNL     1       2.243   7.536  18.966  0.00  0.00    +0.000 C 
ATOM     21  S   UNL     1       2.589   8.769  17.895  0.00  0.00    +0.000 S 
BRANCH  20  22
ATOM     22  N   UNL     1       2.055   7.686  20.336  0.00  0.00    +0.000 N 
ATOM     23  H   UNL     1       2.862   7.404  20.883  0.00  0.00    +0.000 HD
BRANCH  22  24
ATOM     24  C   UNL     1       1.176   8.587  20.971  0.00  0.00    +0.000 A 
ATOM     25  C   UNL     1       1.190   8.759  22.358  0.00  0.00    +0.000 A 
ATOM     26  C   UNL     1       0.326   9.672  22.964  0.00  0.00    +0.000 A 
ATOM     27  C   UNL     1      -0.553  10.416  22.180  0.00  0.00    +0.000 A 
ATOM     28 CL   UNL     1      -1.644  11.513  22.930  0.00  0.00    +0.000 Cl
ATOM     29  C   UNL     1      -0.549  10.279  20.793  0.00  0.00    +0.000 A 
ATOM     30  C   UNL     1       0.330   9.377  20.185  0.00  0.00    +0.000 A 
ENDBRANCH  22  24
ENDBRANCH  20  22
ENDBRANCH  18  20
ENDBRANCH   1  18
TORSDOF 9
ENDMDL
