MODEL 1
REMARK VINA RESULT:      -8.2      0.000      0.000
REMARK  Name = 
REMARK  7 active torsions:
REMARK  status: ('A' for Active; 'I' for Inactive)
REMARK    1  A    between atoms: O_1  and  C_2
REMARK    2  A    between atoms: C_3  and  C_4
REMARK    3  A    between atoms: C_4  and  C_5
REMARK    4  A    between atoms: C_4  and  N_10
REMARK    5  A    between atoms: N_13  and  C_14
REMARK    6  A    between atoms: C_14  and  C_15
REMARK    7  A    between atoms: C_14  and  C_21
REMARK                            x       y       z     vdW  Elec       q    Type
REMARK                         _______ _______ _______ _____ _____    ______ ____
ROOT
ATOM      1  N   UNL     1       0.432   9.820  19.203  0.00  0.00    +0.000 NA
ATOM      2  C   UNL     1       1.253   9.665  17.984  0.00  0.00    +0.000 C 
ATOM      3  C   UNL     1       2.659   9.068  18.247  0.00  0.00    +0.000 C 
ATOM      4  N   UNL     1       2.716   7.817  19.056  0.00  0.00    +0.000 NA
ATOM      5  C   UNL     1       1.718   7.838  20.137  0.00  0.00    +0.000 C 
ATOM      6  C   UNL     1       0.352   8.435  19.757  0.00  0.00    +0.000 C 
ENDROOT
BRANCH   1   7
ATOM      7  C   UNL     1       1.015  10.815  20.183  0.00  0.00    +0.000 C 
BRANCH   7   9
ATOM      8  C   UNL     1       1.774  13.314  20.201  0.00  0.00    +0.000 A 
ATOM      9  C   UNL     1       0.977  12.293  19.774  0.00  0.00    +0.000 A 
ATOM     10  S   UNL     1      -0.295  12.892  18.646  0.00  0.00    +0.000 S 
ATOM     11  C   UNL     1       0.303  14.508  18.847  0.00  0.00    +0.000 A 
ATOM     12  N   UNL     1      -0.058  15.688  18.440  0.00  0.00    +0.000 NA
ATOM     13  C   UNL     1       0.874  16.475  19.070  0.00  0.00    +0.000 A 
ATOM     14  N   UNL     1       1.777  15.834  19.828  0.00  0.00    +0.000 NA
ATOM     15  N   UNL     1       1.387  14.549  19.671  0.00  0.00    +0.000 N 
BRANCH   8  16
ATOM     16  O   UNL     1       2.816  13.235  21.096  0.00  0.00    +0.000 OA
ATOM     17  H   UNL     1       3.270  14.095  21.151  0.00  0.00    +0.000 HD
ENDBRANCH   8  16
ENDBRANCH   7   9
BRANCH   7  18
ATOM     18  C   UNL     1       0.368  10.619  21.539  0.00  0.00    +0.000 A 
ATOM     19  C   UNL     1      -0.883  10.929  22.039  0.00  0.00    +0.000 A 
ATOM     20  C   UNL     1      -1.010  10.222  23.257  0.00  0.00    +0.000 A 
ATOM     21  C   UNL     1       0.193   9.587  23.460  0.00  0.00    +0.000 A 
ATOM     22  O   UNL     1       1.045   9.837  22.431  0.00  0.00    +0.000 OA
ENDBRANCH   7  18
ENDBRANCH   1   7
BRANCH   4  23
ATOM     23  C   UNL     1       2.711   6.584  18.216  0.00  0.00    +0.000 C 
BRANCH  23  24
ATOM     24  C   UNL     1       4.159   6.239  17.824  0.00  0.00    +0.000 A 
ATOM     25  C   UNL     1       4.602   6.441  16.502  0.00  0.00    +0.000 A 
ATOM     26  C   UNL     1       5.833   5.947  16.078  0.00  0.00    +0.000 A 
ATOM     27  C   UNL     1       6.643   5.250  16.970  0.00  0.00    +0.000 A 
ATOM     28  C   UNL     1       6.240   5.082  18.295  0.00  0.00    +0.000 A 
ATOM     29  C   UNL     1       5.010   5.584  18.727  0.00  0.00    +0.000 A 
ENDBRANCH  23  24
BRANCH  23  30
ATOM     30  C   UNL     1       2.052   5.340  18.845  0.00  0.00    +0.000 A 
ATOM     31  C   UNL     1       1.585   4.308  18.011  0.00  0.00    +0.000 A 
ATOM     32  C   UNL     1       1.066   3.127  18.550  0.00  0.00    +0.000 A 
ATOM     33  C   UNL     1       1.000   2.958  19.931  0.00  0.00    +0.000 A 
ATOM     34  C   UNL     1       1.440   3.973  20.775  0.00  0.00    +0.000 A 
ATOM     35  C   UNL     1       1.970   5.148  20.237  0.00  0.00    +0.000 A 
ENDBRANCH  23  30
ENDBRANCH   4  23
TORSDOF 7
ENDMDL
MODEL 2
REMARK VINA RESULT:      -8.0      1.065      1.220
REMARK  Name = 
REMARK  7 active torsions:
REMARK  status: ('A' for Active; 'I' for Inactive)
REMARK    1  A    between atoms: O_1  and  C_2
REMARK    2  A    between atoms: C_3  and  C_4
REMARK    3  A    between atoms: C_4  and  C_5
REMARK    4  A    between atoms: C_4  and  N_10
REMARK    5  A    between atoms: N_13  and  C_14
REMARK    6  A    between atoms: C_14  and  C_15
REMARK    7  A    between atoms: C_14  and  C_21
REMARK                            x       y       z     vdW  Elec       q    Type
REMARK                         _______ _______ _______ _____ _____    ______ ____
ROOT
ATOM      1  N   UNL     1       0.455   9.946  19.214  0.00  0.00    +0.000 NA
ATOM      2  C   UNL     1       1.300   9.799  18.011  0.00  0.00    +0.000 C 
ATOM      3  C   UNL     1       2.683   9.158  18.292  0.00  0.00    +0.000 C 
ATOM      4  N   UNL     1       2.688   7.887  19.070  0.00  0.00    +0.000 NA
ATOM      5  C   UNL     1       1.665   7.909  20.128  0.00  0.00    +0.000 C 
ATOM      6  C   UNL     1       0.325   8.551  19.731  0.00  0.00    +0.000 C 
ENDROOT
BRANCH   1   7
ATOM      7  C   UNL     1       1.040  10.901  20.232  0.00  0.00    +0.000 C 
BRANCH   7   9
ATOM      8  C   UNL     1       0.032  13.109  19.265  0.00  0.00    +0.000 A 
ATOM      9  C   UNL     1       1.021  12.393  19.872  0.00  0.00    +0.000 A 
ATOM     10  S   UNL     1       2.472  13.420  20.173  0.00  0.00    +0.000 S 
ATOM     11  C   UNL     1       1.667  14.760  19.420  0.00  0.00    +0.000 A 
ATOM     12  N   UNL     1       1.990  15.978  19.105  0.00  0.00    +0.000 NA
ATOM     13  C   UNL     1       0.843  16.395  18.477  0.00  0.00    +0.000 A 
ATOM     14  N   UNL     1      -0.152  15.497  18.399  0.00  0.00    +0.000 NA
ATOM     15  N   UNL     1       0.406  14.433  19.020  0.00  0.00    +0.000 N 
BRANCH   8  16
ATOM     16  O   UNL     1      -1.194  12.642  18.850  0.00  0.00    +0.000 OA
ATOM     17  H   UNL     1      -1.290  12.776  17.890  0.00  0.00    +0.000 HD
ENDBRANCH   8  16
ENDBRANCH   7   9
BRANCH   7  18
ATOM     18  C   UNL     1       0.379  10.668  21.575  0.00  0.00    +0.000 A 
ATOM     19  C   UNL     1      -0.880  10.957  22.068  0.00  0.00    +0.000 A 
ATOM     20  C   UNL     1      -1.015  10.219  23.266  0.00  0.00    +0.000 A 
ATOM     21  C   UNL     1       0.190   9.586  23.467  0.00  0.00    +0.000 A 
ATOM     22  O   UNL     1       1.051   9.868  22.455  0.00  0.00    +0.000 OA
ENDBRANCH   7  18
ENDBRANCH   1   7
BRANCH   4  23
ATOM     23  C   UNL     1       2.670   6.675  18.200  0.00  0.00    +0.000 C 
BRANCH  23  24
ATOM     24  C   UNL     1       4.113   6.341  17.779  0.00  0.00    +0.000 A 
ATOM     25  C   UNL     1       4.544   6.598  16.463  0.00  0.00    +0.000 A 
ATOM     26  C   UNL     1       5.768   6.117  16.005  0.00  0.00    +0.000 A 
ATOM     27  C   UNL     1       6.582   5.378  16.857  0.00  0.00    +0.000 A 
ATOM     28  C   UNL     1       6.192   5.154  18.178  0.00  0.00    +0.000 A 
ATOM     29  C   UNL     1       4.969   5.643  18.644  0.00  0.00    +0.000 A 
ENDBRANCH  23  24
BRANCH  23  30
ATOM     30  C   UNL     1       2.021   5.416  18.808  0.00  0.00    +0.000 A 
ATOM     31  C   UNL     1       1.593   4.380  17.958  0.00  0.00    +0.000 A 
ATOM     32  C   UNL     1       1.084   3.187  18.479  0.00  0.00    +0.000 A 
ATOM     33  C   UNL     1       0.988   3.009  19.857  0.00  0.00    +0.000 A 
ATOM     34  C   UNL     1       1.390   4.028  20.716  0.00  0.00    +0.000 A 
ATOM     35  C   UNL     1       1.910   5.215  20.197  0.00  0.00    +0.000 A 
ENDBRANCH  23  30
ENDBRANCH   4  23
TORSDOF 7
ENDMDL
MODEL 3
REMARK VINA RESULT:      -7.8      0.241      1.193
REMARK  Name = 
REMARK  7 active torsions:
REMARK  status: ('A' for Active; 'I' for Inactive)
REMARK    1  A    between atoms: O_1  and  C_2
REMARK    2  A    between atoms: C_3  and  C_4
REMARK    3  A    between atoms: C_4  and  C_5
REMARK    4  A    between atoms: C_4  and  N_10
REMARK    5  A    between atoms: N_13  and  C_14
REMARK    6  A    between atoms: C_14  and  C_15
REMARK    7  A    between atoms: C_14  and  C_21
REMARK                            x       y       z     vdW  Elec       q    Type
REMARK                         _______ _______ _______ _____ _____    ______ ____
ROOT
ATOM      1  N   UNL     1       0.493   9.721  19.165  0.00  0.00    +0.000 NA
ATOM      2  C   UNL     1       1.321   9.565  17.951  0.00  0.00    +0.000 C 
ATOM      3  C   UNL     1       2.726   8.971  18.224  0.00  0.00    +0.000 C 
ATOM      4  N   UNL     1       2.781   7.721  19.035  0.00  0.00    +0.000 NA
ATOM      5  C   UNL     1       1.775   7.743  20.110  0.00  0.00    +0.000 C 
ATOM      6  C   UNL     1       0.411   8.337  19.720  0.00  0.00    +0.000 C 
ENDROOT
BRANCH   1   7
ATOM      7  C   UNL     1       1.068  10.718  20.147  0.00  0.00    +0.000 C 
BRANCH   7   9
ATOM      8  C   UNL     1       1.766  13.235  20.191  0.00  0.00    +0.000 A 
ATOM      9  C   UNL     1       0.996  12.199  19.752  0.00  0.00    +0.000 A 
ATOM     10  S   UNL     1      -0.286  12.779  18.625  0.00  0.00    +0.000 S 
ATOM     11  C   UNL     1       0.273  14.407  18.843  0.00  0.00    +0.000 A 
ATOM     12  N   UNL     1      -0.115  15.582  18.446  0.00  0.00    +0.000 NA
ATOM     13  C   UNL     1       0.795  16.384  19.086  0.00  0.00    +0.000 A 
ATOM     14  N   UNL     1       1.711  15.757  19.842  0.00  0.00    +0.000 NA
ATOM     15  N   UNL     1       1.352  14.465  19.672  0.00  0.00    +0.000 N 
BRANCH   8  16
ATOM     16  O   UNL     1       2.807  13.172  21.089  0.00  0.00    +0.000 OA
ATOM     17  H   UNL     1       3.326  13.995  21.051  0.00  0.00    +0.000 HD
ENDBRANCH   8  16
ENDBRANCH   7   9
BRANCH   7  18
ATOM     18  C   UNL     1       0.441  10.499  21.509  0.00  0.00    +0.000 A 
ATOM     19  C   UNL     1      -0.836  10.695  22.001  0.00  0.00    +0.000 A 
ATOM     20  C   UNL     1      -0.893  10.015  23.239  0.00  0.00    +0.000 A 
ATOM     21  C   UNL     1       0.367   9.510  23.459  0.00  0.00    +0.000 A 
ATOM     22  O   UNL     1       1.191   9.815  22.422  0.00  0.00    +0.000 OA
ENDBRANCH   7  18
ENDBRANCH   1   7
BRANCH   4  23
ATOM     23  C   UNL     1       2.782   6.487  18.198  0.00  0.00    +0.000 C 
BRANCH  23  24
ATOM     24  C   UNL     1       4.228   6.172  17.774  0.00  0.00    +0.000 A 
ATOM     25  C   UNL     1       5.166   5.733  18.728  0.00  0.00    +0.000 A 
ATOM     26  C   UNL     1       6.519   5.643  18.412  0.00  0.00    +0.000 A 
ATOM     27  C   UNL     1       6.955   5.985  17.135  0.00  0.00    +0.000 A 
ATOM     28  C   UNL     1       6.033   6.377  16.165  0.00  0.00    +0.000 A 
ATOM     29  C   UNL     1       4.674   6.460  16.475  0.00  0.00    +0.000 A 
ENDBRANCH  23  24
BRANCH  23  30
ATOM     30  C   UNL     1       2.165   5.231  18.843  0.00  0.00    +0.000 A 
ATOM     31  C   UNL     1       2.165   5.102  20.244  0.00  0.00    +0.000 A 
ATOM     32  C   UNL     1       1.534   4.020  20.867  0.00  0.00    +0.000 A 
ATOM     33  C   UNL     1       0.896   3.047  20.102  0.00  0.00    +0.000 A 
ATOM     34  C   UNL     1       0.898   3.145  18.714  0.00  0.00    +0.000 A 
ATOM     35  C   UNL     1       1.518   4.231  18.091  0.00  0.00    +0.000 A 
ENDBRANCH  23  30
ENDBRANCH   4  23
TORSDOF 7
ENDMDL
MODEL 4
REMARK VINA RESULT:      -7.6      0.896      1.220
REMARK  Name = 
REMARK  7 active torsions:
REMARK  status: ('A' for Active; 'I' for Inactive)
REMARK    1  A    between atoms: O_1  and  C_2
REMARK    2  A    between atoms: C_3  and  C_4
REMARK    3  A    between atoms: C_4  and  C_5
REMARK    4  A    between atoms: C_4  and  N_10
REMARK    5  A    between atoms: N_13  and  C_14
REMARK    6  A    between atoms: C_14  and  C_15
REMARK    7  A    between atoms: C_14  and  C_21
REMARK                            x       y       z     vdW  Elec       q    Type
REMARK                         _______ _______ _______ _____ _____    ______ ____
ROOT
ATOM      1  N   UNL     1       0.663   9.731  18.983  0.00  0.00    +0.000 NA
ATOM      2  C   UNL     1       1.537   9.499  17.814  0.00  0.00    +0.000 C 
ATOM      3  C   UNL     1       2.887   8.823  18.165  0.00  0.00    +0.000 C 
ATOM      4  N   UNL     1       2.822   7.589  18.998  0.00  0.00    +0.000 NA
ATOM      5  C   UNL     1       1.770   7.695  20.022  0.00  0.00    +0.000 C 
ATOM      6  C   UNL     1       0.467   8.366  19.556  0.00  0.00    +0.000 C 
ENDROOT
BRANCH   1   7
ATOM      7  C   UNL     1       1.254  10.709  19.975  0.00  0.00    +0.000 C 
BRANCH   7   9
ATOM      8  C   UNL     1       2.052  12.846  18.701  0.00  0.00    +0.000 A 
ATOM      9  C   UNL     1       1.238  12.191  19.578  0.00  0.00    +0.000 A 
ATOM     10  S   UNL     1       0.088  13.333  20.368  0.00  0.00    +0.000 S 
ATOM     11  C   UNL     1       0.804  14.646  19.488  0.00  0.00    +0.000 A 
ATOM     12  N   UNL     1       0.655  15.937  19.464  0.00  0.00    +0.000 NA
ATOM     13  C   UNL     1       1.625  16.292  18.562  0.00  0.00    +0.000 A 
ATOM     14  N   UNL     1       2.346  15.287  18.039  0.00  0.00    +0.000 NA
ATOM     15  N   UNL     1       1.796  14.219  18.658  0.00  0.00    +0.000 N 
BRANCH   8  16
ATOM     16  O   UNL     1       3.073  12.303  17.954  0.00  0.00    +0.000 OA
ATOM     17  H   UNL     1       3.801  12.944  17.877  0.00  0.00    +0.000 HD
ENDBRANCH   8  16
ENDBRANCH   7   9
BRANCH   7  18
ATOM     18  C   UNL     1       0.595  10.511  21.325  0.00  0.00    +0.000 A 
ATOM     19  C   UNL     1      -0.707  10.651  21.768  0.00  0.00    +0.000 A 
ATOM     20  C   UNL     1      -0.765  10.023  23.033  0.00  0.00    +0.000 A 
ATOM     21  C   UNL     1       0.515   9.606  23.315  0.00  0.00    +0.000 A 
ATOM     22  O   UNL     1       1.354   9.915  22.292  0.00  0.00    +0.000 OA
ENDBRANCH   7  18
ENDBRANCH   1   7
BRANCH   4  23
ATOM     23  C   UNL     1       2.785   6.340  18.183  0.00  0.00    +0.000 C 
BRANCH  23  24
ATOM     24  C   UNL     1       4.225   5.938  17.818  0.00  0.00    +0.000 A 
ATOM     25  C   UNL     1       5.127   5.545  18.825  0.00  0.00    +0.000 A 
ATOM     26  C   UNL     1       6.482   5.379  18.547  0.00  0.00    +0.000 A 
ATOM     27  C   UNL     1       6.954   5.597  17.256  0.00  0.00    +0.000 A 
ATOM     28  C   UNL     1       6.067   5.942  16.237  0.00  0.00    +0.000 A 
ATOM     29  C   UNL     1       4.706   6.101  16.509  0.00  0.00    +0.000 A 
ENDBRANCH  23  24
BRANCH  23  30
ATOM     30  C   UNL     1       2.076   5.132  18.826  0.00  0.00    +0.000 A 
ATOM     31  C   UNL     1       1.575   4.106  18.005  0.00  0.00    +0.000 A 
ATOM     32  C   UNL     1       1.008   2.954  18.559  0.00  0.00    +0.000 A 
ATOM     33  C   UNL     1       0.926   2.810  19.942  0.00  0.00    +0.000 A 
ATOM     34  C   UNL     1       1.399   3.821  20.773  0.00  0.00    +0.000 A 
ATOM     35  C   UNL     1       1.977   4.966  20.221  0.00  0.00    +0.000 A 
ENDBRANCH  23  30
ENDBRANCH   4  23
TORSDOF 7
ENDMDL
MODEL 5
REMARK VINA RESULT:      -7.5      1.095      1.715
REMARK  Name = 
REMARK  7 active torsions:
REMARK  status: ('A' for Active; 'I' for Inactive)
REMARK    1  A    between atoms: O_1  and  C_2
REMARK    2  A    between atoms: C_3  and  C_4
REMARK    3  A    between atoms: C_4  and  C_5
REMARK    4  A    between atoms: C_4  and  N_10
REMARK    5  A    between atoms: N_13  and  C_14
REMARK    6  A    between atoms: C_14  and  C_15
REMARK    7  A    between atoms: C_14  and  C_21
REMARK                            x       y       z     vdW  Elec       q    Type
REMARK                         _______ _______ _______ _____ _____    ______ ____
ROOT
ATOM      1  N   UNL     1       0.617   9.822  19.079  0.00  0.00    +0.000 NA
ATOM      2  C   UNL     1       1.511   9.646  17.915  0.00  0.00    +0.000 C 
ATOM      3  C   UNL     1       2.861   8.967  18.260  0.00  0.00    +0.000 C 
ATOM      4  N   UNL     1       2.795   7.700  19.042  0.00  0.00    +0.000 NA
ATOM      5  C   UNL     1       1.727   7.755  20.053  0.00  0.00    +0.000 C 
ATOM      6  C   UNL     1       0.424   8.433  19.594  0.00  0.00    +0.000 C 
ENDROOT
BRANCH   1   7
ATOM      7  C   UNL     1       1.183  10.765  20.119  0.00  0.00    +0.000 C 
BRANCH   7   9
ATOM      8  C   UNL     1       0.254  12.916  18.964  0.00  0.00    +0.000 A 
ATOM      9  C   UNL     1       1.104  12.265  19.809  0.00  0.00    +0.000 A 
ATOM     10  S   UNL     1       2.291  13.409  20.538  0.00  0.00    +0.000 S 
ATOM     11  C   UNL     1       1.589  14.705  19.623  0.00  0.00    +0.000 A 
ATOM     12  N   UNL     1       1.853  15.965  19.446  0.00  0.00    +0.000 NA
ATOM     13  C   UNL     1       0.891  16.304  18.528  0.00  0.00    +0.000 A 
ATOM     14  N   UNL     1       0.061  15.320  18.147  0.00  0.00    +0.000 NA
ATOM     15  N   UNL     1       0.535  14.282  18.871  0.00  0.00    +0.000 N 
BRANCH   8  16
ATOM     16  O   UNL     1      -0.749  12.356  18.204  0.00  0.00    +0.000 OA
ATOM     17  H   UNL     1      -1.041  12.991  17.525  0.00  0.00    +0.000 HD
ENDBRANCH   8  16
ENDBRANCH   7   9
BRANCH   7  18
ATOM     18  C   UNL     1       0.553  10.464  21.463  0.00  0.00    +0.000 A 
ATOM     19  C   UNL     1      -0.745  10.540  21.934  0.00  0.00    +0.000 A 
ATOM     20  C   UNL     1      -0.765   9.831  23.157  0.00  0.00    +0.000 A 
ATOM     21  C   UNL     1       0.529   9.432  23.392  0.00  0.00    +0.000 A 
ATOM     22  O   UNL     1       1.343   9.827  22.378  0.00  0.00    +0.000 OA
ENDBRANCH   7  18
ENDBRANCH   1   7
BRANCH   4  23
ATOM     23  C   UNL     1       2.782   6.485  18.176  0.00  0.00    +0.000 C 
BRANCH  23  24
ATOM     24  C   UNL     1       4.225   6.158  17.752  0.00  0.00    +0.000 A 
ATOM     25  C   UNL     1       5.151   5.683  18.701  0.00  0.00    +0.000 A 
ATOM     26  C   UNL     1       6.504   5.579  18.389  0.00  0.00    +0.000 A 
ATOM     27  C   UNL     1       6.951   5.942  17.122  0.00  0.00    +0.000 A 
ATOM     28  C   UNL     1       6.041   6.370  16.156  0.00  0.00    +0.000 A 
ATOM     29  C   UNL     1       4.681   6.467  16.462  0.00  0.00    +0.000 A 
ENDBRANCH  23  24
BRANCH  23  30
ATOM     30  C   UNL     1       2.141   5.224  18.790  0.00  0.00    +0.000 A 
ATOM     31  C   UNL     1       2.071   5.095  20.188  0.00  0.00    +0.000 A 
ATOM     32  C   UNL     1       1.416   4.009  20.778  0.00  0.00    +0.000 A 
ATOM     33  C   UNL     1       0.825   3.031  19.982  0.00  0.00    +0.000 A 
ATOM     34  C   UNL     1       0.899   3.129  18.596  0.00  0.00    +0.000 A 
ATOM     35  C   UNL     1       1.541   4.220  18.006  0.00  0.00    +0.000 A 
ENDBRANCH  23  30
ENDBRANCH   4  23
TORSDOF 7
ENDMDL
MODEL 6
REMARK VINA RESULT:      -7.5      1.385      1.780
REMARK  Name = 
REMARK  7 active torsions:
REMARK  status: ('A' for Active; 'I' for Inactive)
REMARK    1  A    between atoms: O_1  and  C_2
REMARK    2  A    between atoms: C_3  and  C_4
REMARK    3  A    between atoms: C_4  and  C_5
REMARK    4  A    between atoms: C_4  and  N_10
REMARK    5  A    between atoms: N_13  and  C_14
REMARK    6  A    between atoms: C_14  and  C_15
REMARK    7  A    between atoms: C_14  and  C_21
REMARK                            x       y       z     vdW  Elec       q    Type
REMARK                         _______ _______ _______ _____ _____    ______ ____
ROOT
ATOM      1  N   UNL     1       0.630   9.368  19.082  0.00  0.00    +0.000 NA
ATOM      2  C   UNL     1       1.407   9.416  17.826  0.00  0.00    +0.000 C 
ATOM      3  C   UNL     1       2.873   8.935  17.977  0.00  0.00    +0.000 C 
ATOM      4  N   UNL     1       3.082   7.621  18.649  0.00  0.00    +0.000 NA
ATOM      5  C   UNL     1       2.135   7.437  19.761  0.00  0.00    +0.000 C 
ATOM      6  C   UNL     1       0.704   7.933  19.492  0.00  0.00    +0.000 C 
ENDROOT
BRANCH   1   7
ATOM      7  C   UNL     1       1.161  10.312  20.139  0.00  0.00    +0.000 C 
BRANCH   7   9
ATOM      8  C   UNL     1      -0.037  12.473  19.290  0.00  0.00    +0.000 A 
ATOM      9  C   UNL     1       1.011  11.814  19.863  0.00  0.00    +0.000 A 
ATOM     10  S   UNL     1       2.364  12.946  20.230  0.00  0.00    +0.000 S 
ATOM     11  C   UNL     1       1.445  14.250  19.548  0.00  0.00    +0.000 A 
ATOM     12  N   UNL     1       1.659  15.508  19.304  0.00  0.00    +0.000 NA
ATOM     13  C   UNL     1       0.481  15.857  18.692  0.00  0.00    +0.000 A 
ATOM     14  N   UNL     1      -0.430  14.881  18.559  0.00  0.00    +0.000 NA
ATOM     15  N   UNL     1       0.218  13.837  19.122  0.00  0.00    +0.000 N 
BRANCH   8  16
ATOM     16  O   UNL     1      -1.217  11.924  18.842  0.00  0.00    +0.000 OA
ATOM     17  H   UNL     1      -1.596  11.350  19.532  0.00  0.00    +0.000 HD
ENDBRANCH   8  16
ENDBRANCH   7   9
BRANCH   7  18
ATOM     18  C   UNL     1       0.555   9.953  21.480  0.00  0.00    +0.000 A 
ATOM     19  C   UNL     1       1.059   9.325  22.604  0.00  0.00    +0.000 A 
ATOM     20  C   UNL     1       0.128   9.562  23.641  0.00  0.00    +0.000 A 
ATOM     21  C   UNL     1      -0.916  10.252  23.071  0.00  0.00    +0.000 A 
ATOM     22  O   UNL     1      -0.676  10.479  21.754  0.00  0.00    +0.000 OA
ENDBRANCH   7  18
ENDBRANCH   1   7
BRANCH   4  23
ATOM     23  C   UNL     1       3.154   6.483  17.687  0.00  0.00    +0.000 C 
BRANCH  23  24
ATOM     24  C   UNL     1       4.587   6.388  17.132  0.00  0.00    +0.000 A 
ATOM     25  C   UNL     1       4.866   5.555  16.032  0.00  0.00    +0.000 A 
ATOM     26  C   UNL     1       6.179   5.295  15.647  0.00  0.00    +0.000 A 
ATOM     27  C   UNL     1       7.232   5.869  16.352  0.00  0.00    +0.000 A 
ATOM     28  C   UNL     1       6.973   6.733  17.415  0.00  0.00    +0.000 A 
ATOM     29  C   UNL     1       5.657   7.004  17.799  0.00  0.00    +0.000 A 
ENDBRANCH  23  24
BRANCH  23  30
ATOM     30  C   UNL     1       2.738   5.105  18.238  0.00  0.00    +0.000 A 
ATOM     31  C   UNL     1       3.494   4.513  19.266  0.00  0.00    +0.000 A 
ATOM     32  C   UNL     1       3.094   3.308  19.851  0.00  0.00    +0.000 A 
ATOM     33  C   UNL     1       1.934   2.670  19.416  0.00  0.00    +0.000 A 
ATOM     34  C   UNL     1       1.180   3.228  18.389  0.00  0.00    +0.000 A 
ATOM     35  C   UNL     1       1.573   4.439  17.812  0.00  0.00    +0.000 A 
ENDBRANCH  23  30
ENDBRANCH   4  23
TORSDOF 7
ENDMDL
MODEL 7
REMARK VINA RESULT:      -7.5      4.736      7.285
REMARK  Name = 
REMARK  7 active torsions:
REMARK  status: ('A' for Active; 'I' for Inactive)
REMARK    1  A    between atoms: O_1  and  C_2
REMARK    2  A    between atoms: C_3  and  C_4
REMARK    3  A    between atoms: C_4  and  C_5
REMARK    4  A    between atoms: C_4  and  N_10
REMARK    5  A    between atoms: N_13  and  C_14
REMARK    6  A    between atoms: C_14  and  C_15
REMARK    7  A    between atoms: C_14  and  C_21
REMARK                            x       y       z     vdW  Elec       q    Type
REMARK                         _______ _______ _______ _____ _____    ______ ____
ROOT
ATOM      1  N   UNL     1       2.356  14.775  18.752  0.00  0.00    +0.000 NA
ATOM      2  C   UNL     1       2.666  13.672  19.685  0.00  0.00    +0.000 C 
ATOM      3  C   UNL     1       1.471  13.254  20.579  0.00  0.00    +0.000 C 
ATOM      4  N   UNL     1       0.178  12.982  19.888  0.00  0.00    +0.000 NA
ATOM      5  C   UNL     1      -0.036  13.921  18.775  0.00  0.00    +0.000 C 
ATOM      6  C   UNL     1       1.216  14.248  17.943  0.00  0.00    +0.000 C 
ENDROOT
BRANCH   1   7
ATOM      7  C   UNL     1       2.028  16.072  19.460  0.00  0.00    +0.000 C 
BRANCH   7   9
ATOM      8  C   UNL     1       4.448  16.866  20.040  0.00  0.00    +0.000 A 
ATOM      9  C   UNL     1       3.131  16.678  20.338  0.00  0.00    +0.000 A 
ATOM     10  S   UNL     1       2.775  17.173  22.034  0.00  0.00    +0.000 S 
ATOM     11  C   UNL     1       4.448  17.573  22.258  0.00  0.00    +0.000 A 
ATOM     12  N   UNL     1       5.181  17.973  23.254  0.00  0.00    +0.000 NA
ATOM     13  C   UNL     1       6.421  18.005  22.665  0.00  0.00    +0.000 A 
ATOM     14  N   UNL     1       6.473  17.651  21.371  0.00  0.00    +0.000 NA
ATOM     15  N   UNL     1       5.174  17.370  21.123  0.00  0.00    +0.000 N 
BRANCH   8  16
ATOM     16  O   UNL     1       5.083  16.561  18.857  0.00  0.00    +0.000 OA
ATOM     17  H   UNL     1       5.336  15.620  18.853  0.00  0.00    +0.000 HD
ENDBRANCH   8  16
ENDBRANCH   7   9
BRANCH   7  18
ATOM     18  C   UNL     1       1.534  17.085  18.447  0.00  0.00    +0.000 A 
ATOM     19  C   UNL     1       2.064  17.572  17.267  0.00  0.00    +0.000 A 
ATOM     20  C   UNL     1       1.011  18.248  16.609  0.00  0.00    +0.000 A 
ATOM     21  C   UNL     1      -0.070  18.194  17.458  0.00  0.00    +0.000 A 
ATOM     22  O   UNL     1       0.242  17.506  18.586  0.00  0.00    +0.000 OA
ENDBRANCH   7  18
ENDBRANCH   1   7
BRANCH   4  23
ATOM     23  C   UNL     1      -0.001  11.542  19.542  0.00  0.00    +0.000 C 
BRANCH  23  24
ATOM     24  C   UNL     1      -0.089  10.723  20.842  0.00  0.00    +0.000 A 
ATOM     25  C   UNL     1      -0.957  11.125  21.876  0.00  0.00    +0.000 A 
ATOM     26  C   UNL     1      -0.901  10.525  23.131  0.00  0.00    +0.000 A 
ATOM     27  C   UNL     1       0.020   9.509  23.371  0.00  0.00    +0.000 A 
ATOM     28  C   UNL     1       0.856   9.067  22.345  0.00  0.00    +0.000 A 
ATOM     29  C   UNL     1       0.796   9.660  21.082  0.00  0.00    +0.000 A 
ENDBRANCH  23  24
BRANCH  23  30
ATOM     30  C   UNL     1      -1.217  11.206  18.656  0.00  0.00    +0.000 A 
ATOM     31  C   UNL     1      -1.111  10.185  17.694  0.00  0.00    +0.000 A 
ATOM     32  C   UNL     1      -2.219   9.793  16.936  0.00  0.00    +0.000 A 
ATOM     33  C   UNL     1      -3.450  10.416  17.123  0.00  0.00    +0.000 A 
ATOM     34  C   UNL     1      -3.574  11.440  18.056  0.00  0.00    +0.000 A 
ATOM     35  C   UNL     1      -2.471  11.824  18.822  0.00  0.00    +0.000 A 
ENDBRANCH  23  30
ENDBRANCH   4  23
TORSDOF 7
ENDMDL
MODEL 8
REMARK VINA RESULT:      -7.4      4.249      9.019
REMARK  Name = 
REMARK  7 active torsions:
REMARK  status: ('A' for Active; 'I' for Inactive)
REMARK    1  A    between atoms: O_1  and  C_2
REMARK    2  A    between atoms: C_3  and  C_4
REMARK    3  A    between atoms: C_4  and  C_5
REMARK    4  A    between atoms: C_4  and  N_10
REMARK    5  A    between atoms: N_13  and  C_14
REMARK    6  A    between atoms: C_14  and  C_15
REMARK    7  A    between atoms: C_14  and  C_21
REMARK                            x       y       z     vdW  Elec       q    Type
REMARK                         _______ _______ _______ _____ _____    ______ ____
ROOT
ATOM      1  N   UNL     1       0.935  11.961  19.588  0.00  0.00    +0.000 NA
ATOM      2  C   UNL     1       0.930  12.934  18.475  0.00  0.00    +0.000 C 
ATOM      3  C   UNL     1       0.245  14.281  18.824  0.00  0.00    +0.000 C 
ATOM      4  N   UNL     1       0.687  14.952  20.080  0.00  0.00    +0.000 NA
ATOM      5  C   UNL     1       0.949  13.969  21.143  0.00  0.00    +0.000 C 
ATOM      6  C   UNL     1       1.650  12.679  20.685  0.00  0.00    +0.000 C 
ENDROOT
BRANCH   1   7
ATOM      7  C   UNL     1      -0.455  11.512  19.983  0.00  0.00    +0.000 C 
BRANCH   7   9
ATOM      8  C   UNL     1      -1.184  10.386  17.741  0.00  0.00    +0.000 A 
ATOM      9  C   UNL     1      -1.418  11.156  18.843  0.00  0.00    +0.000 A 
ATOM     10  S   UNL     1      -3.081  11.850  18.806  0.00  0.00    +0.000 S 
ATOM     11  C   UNL     1      -3.355  11.087  17.272  0.00  0.00    +0.000 A 
ATOM     12  N   UNL     1      -4.315  11.082  16.397  0.00  0.00    +0.000 NA
ATOM     13  C   UNL     1      -3.765  10.296  15.415  0.00  0.00    +0.000 A 
ATOM     14  N   UNL     1      -2.530   9.825  15.653  0.00  0.00    +0.000 NA
ATOM     15  N   UNL     1      -2.278  10.354  16.871  0.00  0.00    +0.000 N 
BRANCH   8  16
ATOM     16  O   UNL     1      -0.015   9.737  17.416  0.00  0.00    +0.000 OA
ATOM     17  H   UNL     1       0.253   9.155  18.150  0.00  0.00    +0.000 HD
ENDBRANCH   8  16
ENDBRANCH   7   9
BRANCH   7  18
ATOM     18  C   UNL     1      -0.348  10.366  20.969  0.00  0.00    +0.000 A 
ATOM     19  C   UNL     1       0.272   9.132  20.916  0.00  0.00    +0.000 A 
ATOM     20  C   UNL     1       0.295   8.642  22.242  0.00  0.00    +0.000 A 
ATOM     21  C   UNL     1      -0.375   9.569  23.006  0.00  0.00    +0.000 A 
ATOM     22  O   UNL     1      -0.787  10.612  22.239  0.00  0.00    +0.000 OA
ENDBRANCH   7  18
ENDBRANCH   1   7
BRANCH   4  23
ATOM     23  C   UNL     1       1.779  15.943  19.853  0.00  0.00    +0.000 C 
BRANCH  23  24
ATOM     24  C   UNL     1       1.319  16.960  18.794  0.00  0.00    +0.000 A 
ATOM     25  C   UNL     1       0.002  17.459  18.816  0.00  0.00    +0.000 A 
ATOM     26  C   UNL     1      -0.495  18.213  17.756  0.00  0.00    +0.000 A 
ATOM     27  C   UNL     1       0.320  18.487  16.661  0.00  0.00    +0.000 A 
ATOM     28  C   UNL     1       1.641  18.040  16.644  0.00  0.00    +0.000 A 
ATOM     29  C   UNL     1       2.146  17.291  17.709  0.00  0.00    +0.000 A 
ENDBRANCH  23  24
BRANCH  23  30
ATOM     30  C   UNL     1       2.271  16.705  21.100  0.00  0.00    +0.000 A 
ATOM     31  C   UNL     1       3.387  16.225  21.808  0.00  0.00    +0.000 A 
ATOM     32  C   UNL     1       3.915  16.939  22.888  0.00  0.00    +0.000 A 
ATOM     33  C   UNL     1       3.335  18.142  23.282  0.00  0.00    +0.000 A 
ATOM     34  C   UNL     1       2.219  18.627  22.607  0.00  0.00    +0.000 A 
ATOM     35  C   UNL     1       1.698  17.920  21.520  0.00  0.00    +0.000 A 
ENDBRANCH  23  30
ENDBRANCH   4  23
TORSDOF 7
ENDMDL
MODEL 9
REMARK VINA RESULT:      -7.4      1.024      1.361
REMARK  Name = 
REMARK  7 active torsions:
REMARK  status: ('A' for Active; 'I' for Inactive)
REMARK    1  A    between atoms: O_1  and  C_2
REMARK    2  A    between atoms: C_3  and  C_4
REMARK    3  A    between atoms: C_4  and  C_5
REMARK    4  A    between atoms: C_4  and  N_10
REMARK    5  A    between atoms: N_13  and  C_14
REMARK    6  A    between atoms: C_14  and  C_15
REMARK    7  A    between atoms: C_14  and  C_21
REMARK                            x       y       z     vdW  Elec       q    Type
REMARK                         _______ _______ _______ _____ _____    ______ ____
ROOT
ATOM      1  N   UNL     1       0.831   9.786  18.968  0.00  0.00    +0.000 NA
ATOM      2  C   UNL     1       1.754   9.563  17.836  0.00  0.00    +0.000 C 
ATOM      3  C   UNL     1       3.057   8.819  18.227  0.00  0.00    +0.000 C 
ATOM      4  N   UNL     1       2.901   7.558  19.006  0.00  0.00    +0.000 NA
ATOM      5  C   UNL     1       1.803   7.668  19.980  0.00  0.00    +0.000 C 
ATOM      6  C   UNL     1       0.552   8.409  19.477  0.00  0.00    +0.000 C 
ENDROOT
BRANCH   1   7
ATOM      7  C   UNL     1       1.407  10.701  20.026  0.00  0.00    +0.000 C 
BRANCH   7   9
ATOM      8  C   UNL     1       2.057  12.799  18.611  0.00  0.00    +0.000 A 
ATOM      9  C   UNL     1       1.474  12.196  19.687  0.00  0.00    +0.000 A 
ATOM     10  S   UNL     1       0.795  13.419  20.824  0.00  0.00    +0.000 S 
ATOM     11  C   UNL     1       1.376  14.686  19.792  0.00  0.00    +0.000 A 
ATOM     12  N   UNL     1       1.406  15.984  19.844  0.00  0.00    +0.000 NA
ATOM     13  C   UNL     1       2.087  16.273  18.688  0.00  0.00    +0.000 A 
ATOM     14  N   UNL     1       2.465  15.222  17.943  0.00  0.00    +0.000 NA
ATOM     15  N   UNL     1       1.992  14.193  18.681  0.00  0.00    +0.000 N 
BRANCH   8  16
ATOM     16  O   UNL     1       2.710  12.182  17.568  0.00  0.00    +0.000 OA
ATOM     17  H   UNL     1       2.139  11.493  17.184  0.00  0.00    +0.000 HD
ENDBRANCH   8  16
ENDBRANCH   7   9
BRANCH   7  18
ATOM     18  C   UNL     1       0.670  10.483  21.332  0.00  0.00    +0.000 A 
ATOM     19  C   UNL     1      -0.658  10.604  21.696  0.00  0.00    +0.000 A 
ATOM     20  C   UNL     1      -0.786   9.963  22.949  0.00  0.00    +0.000 A 
ATOM     21  C   UNL     1       0.479   9.557  23.305  0.00  0.00    +0.000 A 
ATOM     22  O   UNL     1       1.375   9.885  22.338  0.00  0.00    +0.000 OA
ENDBRANCH   7  18
ENDBRANCH   1   7
BRANCH   4  23
ATOM     23  C   UNL     1       2.857   6.344  18.141  0.00  0.00    +0.000 C 
BRANCH  23  24
ATOM     24  C   UNL     1       4.290   5.986  17.709  0.00  0.00    +0.000 A 
ATOM     25  C   UNL     1       4.675   6.108  16.359  0.00  0.00    +0.000 A 
ATOM     26  C   UNL     1       5.891   5.598  15.913  0.00  0.00    +0.000 A 
ATOM     27  C   UNL     1       6.745   4.963  16.810  0.00  0.00    +0.000 A 
ATOM     28  C   UNL     1       6.401   4.874  18.159  0.00  0.00    +0.000 A 
ATOM     29  C   UNL     1       5.185   5.393  18.612  0.00  0.00    +0.000 A 
ENDBRANCH  23  24
BRANCH  23  30
ATOM     30  C   UNL     1       2.194   5.097  18.758  0.00  0.00    +0.000 A 
ATOM     31  C   UNL     1       2.068   5.000  20.156  0.00  0.00    +0.000 A 
ATOM     32  C   UNL     1       1.391   3.928  20.745  0.00  0.00    +0.000 A 
ATOM     33  C   UNL     1       0.833   2.931  19.949  0.00  0.00    +0.000 A 
ATOM     34  C   UNL     1       0.960   2.997  18.565  0.00  0.00    +0.000 A 
ATOM     35  C   UNL     1       1.625   4.074  17.975  0.00  0.00    +0.000 A 
ENDBRANCH  23  30
ENDBRANCH   4  23
TORSDOF 7
ENDMDL
