MODEL 1
REMARK VINA RESULT:      -6.7      0.000      0.000
REMARK  Name = 
REMARK  11 active torsions:
REMARK  status: ('A' for Active; 'I' for Inactive)
REMARK    1  A    between atoms: C_1  and  C_2
REMARK    2  A    between atoms: C_2  and  C_3
REMARK    3  A    between atoms: C_3  and  N_4
REMARK    4  A    between atoms: C_5  and  O_6
REMARK    5  A    between atoms: C_9  and  S_10
REMARK    6  A    between atoms: S_10  and  C_11
REMARK    7  A    between atoms: C_11  and  C_12
REMARK    8  A    between atoms: N_14  and  C_15
REMARK    9  A    between atoms: N_14  and  C_16
REMARK   10  A    between atoms: C_16  and  C_17
REMARK   11  A    between atoms: N_19  and  C_20
REMARK                            x       y       z     vdW  Elec       q    Type
REMARK                         _______ _______ _______ _____ _____    ______ ____
ROOT
ATOM      1  C   UNL     1       2.590   5.876  19.883  0.00  0.00    +0.000 C 
ATOM      2  O   UNL     1       2.490   5.049  20.796  0.00  0.00    +0.000 OA
ATOM      3  N   UNL     1       1.945   7.108  19.998  0.00  0.00    +0.000 N 
ATOM      4  C   UNL     1       2.123   8.235  19.089  0.00  0.00    +0.000 C 
ENDROOT
BRANCH   1   5
ATOM      5  C   UNL     1       3.413   5.623  18.611  0.00  0.00    +0.000 C 
BRANCH   5   6
ATOM      6  S   UNL     1       4.836   4.514  18.906  0.00  0.00    +0.000 S 
BRANCH   6  11
ATOM      7  N   UNL     1       6.663   5.160  16.949  0.00  0.00    +0.000 N 
ATOM      8  C   UNL     1       6.852   4.830  15.628  0.00  0.00    +0.000 A 
ATOM      9  N   UNL     1       5.938   3.977  15.245  0.00  0.00    +0.000 NA
ATOM     10  N   UNL     1       5.110   3.730  16.316  0.00  0.00    +0.000 NA
ATOM     11  C   UNL     1       5.546   4.447  17.328  0.00  0.00    +0.000 A 
BRANCH   8  12
ATOM     12  O   UNL     1       7.802   5.283  14.824  0.00  0.00    +0.000 OA
ATOM     13  H   UNL     1       7.754   6.245  14.754  0.00  0.00    +0.000 HD
ENDBRANCH   8  12
BRANCH   7  14
ATOM     14  C   UNL     1       7.426   6.110  17.724  0.00  0.00    +0.000 C 
BRANCH  14  16
ATOM     15  C   UNL     1       8.150   8.563  17.876  0.00  0.00    +0.000 C 
ATOM     16  C   UNL     1       7.066   7.575  17.465  0.00  0.00    +0.000 C 
ENDBRANCH  14  16
ENDBRANCH   7  14
ENDBRANCH   6  11
ENDBRANCH   5   6
ENDBRANCH   1   5
BRANCH   3  17
ATOM     17  C   UNL     1       1.043   7.328  21.138  0.00  0.00    +0.000 C 
BRANCH  17  18
ATOM     18  C   UNL     1       0.974   8.771  21.650  0.00  0.00    +0.000 C 
ATOM     19  O   UNL     1       1.791   9.188  22.471  0.00  0.00    +0.000 OA
ATOM     20  N   UNL     1      -0.108   9.499  21.173  0.00  0.00    +0.000 N 
ATOM     21  H   UNL     1      -0.926   8.944  20.928  0.00  0.00    +0.000 HD
BRANCH  20  22
ATOM     22  C   UNL     1      -0.301  10.853  21.520  0.00  0.00    +0.000 A 
ATOM     23  C   UNL     1       0.294  11.891  20.789  0.00  0.00    +0.000 A 
ATOM     24  C   UNL     1       0.133  13.223  21.187  0.00  0.00    +0.000 A 
ATOM     25  C   UNL     1      -0.598  13.513  22.336  0.00  0.00    +0.000 A 
ATOM     26 CL   UNL     1      -0.731  15.140  22.879  0.00  0.00    +0.000 Cl
ATOM     27  C   UNL     1      -1.214  12.489  23.055  0.00  0.00    +0.000 A 
ATOM     28  C   UNL     1      -1.095  11.161  22.626  0.00  0.00    +0.000 A 
ENDBRANCH  20  22
ENDBRANCH  17  18
ENDBRANCH   3  17
TORSDOF 9
ENDMDL
MODEL 2
REMARK VINA RESULT:      -6.7      6.136      9.746
REMARK  Name = 
REMARK  11 active torsions:
REMARK  status: ('A' for Active; 'I' for Inactive)
REMARK    1  A    between atoms: C_1  and  C_2
REMARK    2  A    between atoms: C_2  and  C_3
REMARK    3  A    between atoms: C_3  and  N_4
REMARK    4  A    between atoms: C_5  and  O_6
REMARK    5  A    between atoms: C_9  and  S_10
REMARK    6  A    between atoms: S_10  and  C_11
REMARK    7  A    between atoms: C_11  and  C_12
REMARK    8  A    between atoms: N_14  and  C_15
REMARK    9  A    between atoms: N_14  and  C_16
REMARK   10  A    between atoms: C_16  and  C_17
REMARK   11  A    between atoms: N_19  and  C_20
REMARK                            x       y       z     vdW  Elec       q    Type
REMARK                         _______ _______ _______ _____ _____    ______ ____
ROOT
ATOM      1  C   UNL     1       5.090   6.132  18.396  0.00  0.00    +0.000 C 
ATOM      2  O   UNL     1       4.470   6.584  17.428  0.00  0.00    +0.000 OA
ATOM      3  N   UNL     1       6.485   6.106  18.367  0.00  0.00    +0.000 N 
ATOM      4  C   UNL     1       7.340   5.771  19.502  0.00  0.00    +0.000 C 
ENDROOT
BRANCH   1   5
ATOM      5  C   UNL     1       4.397   5.599  19.659  0.00  0.00    +0.000 C 
BRANCH   5   6
ATOM      6  S   UNL     1       2.660   6.152  19.791  0.00  0.00    +0.000 S 
BRANCH   6  11
ATOM      7  N   UNL     1       1.555   3.825  18.816  0.00  0.00    +0.000 N 
ATOM      8  C   UNL     1       0.868   2.760  19.349  0.00  0.00    +0.000 A 
ATOM      9  N   UNL     1       0.752   2.906  20.644  0.00  0.00    +0.000 NA
ATOM     10  N   UNL     1       1.358   4.090  20.996  0.00  0.00    +0.000 NA
ATOM     11  C   UNL     1       1.829   4.636  19.896  0.00  0.00    +0.000 A 
BRANCH   8  12
ATOM     12  O   UNL     1       0.379   1.721  18.691  0.00  0.00    +0.000 OA
ATOM     13  H   UNL     1      -0.400   1.370  19.144  0.00  0.00    +0.000 HD
ENDBRANCH   8  12
BRANCH   7  14
ATOM     14  C   UNL     1       1.840   4.063  17.421  0.00  0.00    +0.000 C 
BRANCH  14  16
ATOM     15  C   UNL     1       4.058   2.793  17.588  0.00  0.00    +0.000 C 
ATOM     16  C   UNL     1       2.789   3.045  16.784  0.00  0.00    +0.000 C 
ENDBRANCH  14  16
ENDBRANCH   7  14
ENDBRANCH   6  11
ENDBRANCH   5   6
ENDBRANCH   1   5
BRANCH   3  17
ATOM     17  C   UNL     1       7.172   6.482  17.123  0.00  0.00    +0.000 C 
BRANCH  17  18
ATOM     18  C   UNL     1       7.237   5.386  16.053  0.00  0.00    +0.000 C 
ATOM     19  O   UNL     1       7.947   4.393  16.212  0.00  0.00    +0.000 OA
ATOM     20  N   UNL     1       6.508   5.660  14.905  0.00  0.00    +0.000 N 
ATOM     21  H   UNL     1       6.388   6.649  14.696  0.00  0.00    +0.000 HD
BRANCH  20  22
ATOM     22  C   UNL     1       6.434   4.740  13.837  0.00  0.00    +0.000 A 
ATOM     23  C   UNL     1       5.379   3.824  13.727  0.00  0.00    +0.000 A 
ATOM     24  C   UNL     1       5.359   2.885  12.690  0.00  0.00    +0.000 A 
ATOM     25  C   UNL     1       6.412   2.843  11.780  0.00  0.00    +0.000 A 
ATOM     26 CL   UNL     1       6.436   1.638  10.552  0.00  0.00    +0.000 Cl
ATOM     27  C   UNL     1       7.453   3.766  11.867  0.00  0.00    +0.000 A 
ATOM     28  C   UNL     1       7.446   4.739  12.875  0.00  0.00    +0.000 A 
ENDBRANCH  20  22
ENDBRANCH  17  18
ENDBRANCH   3  17
TORSDOF 9
ENDMDL
MODEL 3
REMARK VINA RESULT:      -6.6      1.933      2.985
REMARK  Name = 
REMARK  11 active torsions:
REMARK  status: ('A' for Active; 'I' for Inactive)
REMARK    1  A    between atoms: C_1  and  C_2
REMARK    2  A    between atoms: C_2  and  C_3
REMARK    3  A    between atoms: C_3  and  N_4
REMARK    4  A    between atoms: C_5  and  O_6
REMARK    5  A    between atoms: C_9  and  S_10
REMARK    6  A    between atoms: S_10  and  C_11
REMARK    7  A    between atoms: C_11  and  C_12
REMARK    8  A    between atoms: N_14  and  C_15
REMARK    9  A    between atoms: N_14  and  C_16
REMARK   10  A    between atoms: C_16  and  C_17
REMARK   11  A    between atoms: N_19  and  C_20
REMARK                            x       y       z     vdW  Elec       q    Type
REMARK                         _______ _______ _______ _____ _____    ______ ____
ROOT
ATOM      1  C   UNL     1       2.546   5.467  18.312  0.00  0.00    +0.000 C 
ATOM      2  O   UNL     1       3.147   6.426  17.819  0.00  0.00    +0.000 OA
ATOM      3  N   UNL     1       2.154   5.517  19.650  0.00  0.00    +0.000 N 
ATOM      4  C   UNL     1       1.288   4.542  20.307  0.00  0.00    +0.000 C 
ENDROOT
BRANCH   1   5
ATOM      5  C   UNL     1       2.186   4.204  17.515  0.00  0.00    +0.000 C 
BRANCH   5   6
ATOM      6  S   UNL     1       3.398   2.856  17.753  0.00  0.00    +0.000 S 
BRANCH   6  11
ATOM      7  N   UNL     1       5.552   4.440  17.094  0.00  0.00    +0.000 N 
ATOM      8  C   UNL     1       6.628   4.972  17.765  0.00  0.00    +0.000 A 
ATOM      9  N   UNL     1       6.569   4.649  19.031  0.00  0.00    +0.000 NA
ATOM     10  N   UNL     1       5.445   3.880  19.223  0.00  0.00    +0.000 NA
ATOM     11  C   UNL     1       4.847   3.754  18.058  0.00  0.00    +0.000 A 
BRANCH   8  12
ATOM     12  O   UNL     1       7.602   5.706  17.249  0.00  0.00    +0.000 OA
ATOM     13  H   UNL     1       7.282   6.595  17.043  0.00  0.00    +0.000 HD
ENDBRANCH   8  12
BRANCH   7  14
ATOM     14  C   UNL     1       5.286   4.523  15.677  0.00  0.00    +0.000 C 
BRANCH  14  16
ATOM     15  C   UNL     1       5.921   3.761  13.315  0.00  0.00    +0.000 C 
ATOM     16  C   UNL     1       6.250   3.720  14.802  0.00  0.00    +0.000 C 
ENDBRANCH  14  16
ENDBRANCH   7  14
ENDBRANCH   6  11
ENDBRANCH   5   6
ENDBRANCH   1   5
BRANCH   3  17
ATOM     17  C   UNL     1       2.600   6.649  20.474  0.00  0.00    +0.000 C 
BRANCH  17  18
ATOM     18  C   UNL     1       1.621   7.827  20.555  0.00  0.00    +0.000 C 
ATOM     19  O   UNL     1       0.972   8.174  19.568  0.00  0.00    +0.000 OA
ATOM     20  N   UNL     1       1.608   8.481  21.779  0.00  0.00    +0.000 N 
ATOM     21  H   UNL     1       2.479   8.431  22.304  0.00  0.00    +0.000 HD
BRANCH  20  22
ATOM     22  C   UNL     1       0.739   9.564  22.031  0.00  0.00    +0.000 A 
ATOM     23  C   UNL     1      -0.248   9.500  23.025  0.00  0.00    +0.000 A 
ATOM     24  C   UNL     1      -1.132  10.567  23.217  0.00  0.00    +0.000 A 
ATOM     25  C   UNL     1      -1.049  11.686  22.393  0.00  0.00    +0.000 A 
ATOM     26 CL   UNL     1      -2.186  12.966  22.567  0.00  0.00    +0.000 Cl
ATOM     27  C   UNL     1      -0.055  11.769  21.418  0.00  0.00    +0.000 A 
ATOM     28  C   UNL     1       0.863  10.722  21.261  0.00  0.00    +0.000 A 
ENDBRANCH  20  22
ENDBRANCH  17  18
ENDBRANCH   3  17
TORSDOF 9
ENDMDL
MODEL 4
REMARK VINA RESULT:      -6.6      3.214      4.418
REMARK  Name = 
REMARK  11 active torsions:
REMARK  status: ('A' for Active; 'I' for Inactive)
REMARK    1  A    between atoms: C_1  and  C_2
REMARK    2  A    between atoms: C_2  and  C_3
REMARK    3  A    between atoms: C_3  and  N_4
REMARK    4  A    between atoms: C_5  and  O_6
REMARK    5  A    between atoms: C_9  and  S_10
REMARK    6  A    between atoms: S_10  and  C_11
REMARK    7  A    between atoms: C_11  and  C_12
REMARK    8  A    between atoms: N_14  and  C_15
REMARK    9  A    between atoms: N_14  and  C_16
REMARK   10  A    between atoms: C_16  and  C_17
REMARK   11  A    between atoms: N_19  and  C_20
REMARK                            x       y       z     vdW  Elec       q    Type
REMARK                         _______ _______ _______ _____ _____    ______ ____
ROOT
ATOM      1  C   UNL     1       1.783   8.529  19.304  0.00  0.00    +0.000 C 
ATOM      2  O   UNL     1       1.725   8.966  18.150  0.00  0.00    +0.000 OA
ATOM      3  N   UNL     1       1.373   9.337  20.365  0.00  0.00    +0.000 N 
ATOM      4  C   UNL     1       1.218   8.891  21.746  0.00  0.00    +0.000 C 
ENDROOT
BRANCH   1   5
ATOM      5  C   UNL     1       2.278   7.114  19.640  0.00  0.00    +0.000 C 
BRANCH   5   6
ATOM      6  S   UNL     1       2.534   6.089  18.148  0.00  0.00    +0.000 S 
BRANCH   6  11
ATOM      7  N   UNL     1       3.442   3.653  19.058  0.00  0.00    +0.000 N 
ATOM      8  C   UNL     1       4.650   3.142  19.471  0.00  0.00    +0.000 A 
ATOM      9  N   UNL     1       5.581   4.056  19.368  0.00  0.00    +0.000 NA
ATOM     10  N   UNL     1       4.998   5.206  18.889  0.00  0.00    +0.000 NA
ATOM     11  C   UNL     1       3.718   4.959  18.713  0.00  0.00    +0.000 A 
BRANCH   8  12
ATOM     12  O   UNL     1       4.884   1.916  19.913  0.00  0.00    +0.000 OA
ATOM     13  H   UNL     1       5.469   1.941  20.683  0.00  0.00    +0.000 HD
ENDBRANCH   8  12
BRANCH   7  14
ATOM     14  C   UNL     1       2.165   2.980  19.071  0.00  0.00    +0.000 C 
BRANCH  14  16
ATOM     15  C   UNL     1       1.657   2.758  21.573  0.00  0.00    +0.000 C 
ATOM     16  C   UNL     1       1.254   3.371  20.238  0.00  0.00    +0.000 C 
ENDBRANCH  14  16
ENDBRANCH   7  14
ENDBRANCH   6  11
ENDBRANCH   5   6
ENDBRANCH   1   5
BRANCH   3  17
ATOM     17  C   UNL     1       1.023  10.738  20.091  0.00  0.00    +0.000 C 
BRANCH  17  18
ATOM     18  C   UNL     1      -0.401  11.147  20.485  0.00  0.00    +0.000 C 
ATOM     19  O   UNL     1      -1.371  10.759  19.834  0.00  0.00    +0.000 OA
ATOM     20  N   UNL     1      -0.470  12.029  21.556  0.00  0.00    +0.000 N 
ATOM     21  H   UNL     1       0.345  12.626  21.675  0.00  0.00    +0.000 HD
BRANCH  20  22
ATOM     22  C   UNL     1      -1.707  12.478  22.066  0.00  0.00    +0.000 A 
ATOM     23  C   UNL     1      -2.285  11.900  23.205  0.00  0.00    +0.000 A 
ATOM     24  C   UNL     1      -3.539  12.326  23.658  0.00  0.00    +0.000 A 
ATOM     25  C   UNL     1      -4.227  13.310  22.952  0.00  0.00    +0.000 A 
ATOM     26 CL   UNL     1      -5.805  13.780  23.455  0.00  0.00    +0.000 Cl
ATOM     27  C   UNL     1      -3.648  13.907  21.833  0.00  0.00    +0.000 A 
ATOM     28  C   UNL     1      -2.371  13.516  21.411  0.00  0.00    +0.000 A 
ENDBRANCH  20  22
ENDBRANCH  17  18
ENDBRANCH   3  17
TORSDOF 9
ENDMDL
MODEL 5
REMARK VINA RESULT:      -6.6      3.860      4.433
REMARK  Name = 
REMARK  11 active torsions:
REMARK  status: ('A' for Active; 'I' for Inactive)
REMARK    1  A    between atoms: C_1  and  C_2
REMARK    2  A    between atoms: C_2  and  C_3
REMARK    3  A    between atoms: C_3  and  N_4
REMARK    4  A    between atoms: C_5  and  O_6
REMARK    5  A    between atoms: C_9  and  S_10
REMARK    6  A    between atoms: S_10  and  C_11
REMARK    7  A    between atoms: C_11  and  C_12
REMARK    8  A    between atoms: N_14  and  C_15
REMARK    9  A    between atoms: N_14  and  C_16
REMARK   10  A    between atoms: C_16  and  C_17
REMARK   11  A    between atoms: N_19  and  C_20
REMARK                            x       y       z     vdW  Elec       q    Type
REMARK                         _______ _______ _______ _____ _____    ______ ____
ROOT
ATOM      1  C   UNL     1       2.079   8.372  18.450  0.00  0.00    +0.000 C 
ATOM      2  O   UNL     1       2.357   8.632  17.275  0.00  0.00    +0.000 OA
ATOM      3  N   UNL     1       1.429   9.328  19.231  0.00  0.00    +0.000 N 
ATOM      4  C   UNL     1       0.884   9.092  20.564  0.00  0.00    +0.000 C 
ENDROOT
BRANCH   1   5
ATOM      5  C   UNL     1       2.402   7.021  19.108  0.00  0.00    +0.000 C 
BRANCH   5   6
ATOM      6  S   UNL     1       2.635   5.684  17.883  0.00  0.00    +0.000 S 
BRANCH   6  11
ATOM      7  N   UNL     1       5.319   5.158  17.556  0.00  0.00    +0.000 N 
ATOM      8  C   UNL     1       6.297   4.528  18.289  0.00  0.00    +0.000 A 
ATOM      9  N   UNL     1       5.805   4.113  19.427  0.00  0.00    +0.000 NA
ATOM     10  N   UNL     1       4.473   4.455  19.466  0.00  0.00    +0.000 NA
ATOM     11  C   UNL     1       4.189   5.072  18.341  0.00  0.00    +0.000 A 
BRANCH   8  12
ATOM     12  O   UNL     1       7.560   4.347  17.936  0.00  0.00    +0.000 OA
ATOM     13  H   UNL     1       8.153   4.637  18.642  0.00  0.00    +0.000 HD
ENDBRANCH   8  12
BRANCH   7  14
ATOM     14  C   UNL     1       5.447   5.705  16.226  0.00  0.00    +0.000 C 
BRANCH  14  16
ATOM     15  C   UNL     1       6.601   4.340  14.390  0.00  0.00    +0.000 C 
ATOM     16  C   UNL     1       5.297   4.678  15.101  0.00  0.00    +0.000 C 
ENDBRANCH  14  16
ENDBRANCH   7  14
ENDBRANCH   6  11
ENDBRANCH   5   6
ENDBRANCH   1   5
BRANCH   3  17
ATOM     17  C   UNL     1       1.227  10.674  18.674  0.00  0.00    +0.000 C 
BRANCH  17  18
ATOM     18  C   UNL     1      -0.225  11.166  18.660  0.00  0.00    +0.000 C 
ATOM     19  O   UNL     1      -0.621  11.984  19.490  0.00  0.00    +0.000 OA
ATOM     20  N   UNL     1      -1.029  10.557  17.705  0.00  0.00    +0.000 N 
ATOM     21  H   UNL     1      -0.747   9.615  17.443  0.00  0.00    +0.000 HD
BRANCH  20  22
ATOM     22  C   UNL     1      -2.382  10.920  17.537  0.00  0.00    +0.000 A 
ATOM     23  C   UNL     1      -3.014  10.841  16.287  0.00  0.00    +0.000 A 
ATOM     24  C   UNL     1      -4.340  11.259  16.135  0.00  0.00    +0.000 A 
ATOM     25  C   UNL     1      -5.025  11.786  17.227  0.00  0.00    +0.000 A 
ATOM     26 CL   UNL     1      -6.628  12.379  17.029  0.00  0.00    +0.000 Cl
ATOM     27  C   UNL     1      -4.413  11.845  18.479  0.00  0.00    +0.000 A 
ATOM     28  C   UNL     1      -3.102  11.378  18.641  0.00  0.00    +0.000 A 
ENDBRANCH  20  22
ENDBRANCH  17  18
ENDBRANCH   3  17
TORSDOF 9
ENDMDL
MODEL 6
REMARK VINA RESULT:      -6.6      3.254      4.787
REMARK  Name = 
REMARK  11 active torsions:
REMARK  status: ('A' for Active; 'I' for Inactive)
REMARK    1  A    between atoms: C_1  and  C_2
REMARK    2  A    between atoms: C_2  and  C_3
REMARK    3  A    between atoms: C_3  and  N_4
REMARK    4  A    between atoms: C_5  and  O_6
REMARK    5  A    between atoms: C_9  and  S_10
REMARK    6  A    between atoms: S_10  and  C_11
REMARK    7  A    between atoms: C_11  and  C_12
REMARK    8  A    between atoms: N_14  and  C_15
REMARK    9  A    between atoms: N_14  and  C_16
REMARK   10  A    between atoms: C_16  and  C_17
REMARK   11  A    between atoms: N_19  and  C_20
REMARK                            x       y       z     vdW  Elec       q    Type
REMARK                         _______ _______ _______ _____ _____    ______ ____
ROOT
ATOM      1  C   UNL     1       1.476   8.532  19.394  0.00  0.00    +0.000 C 
ATOM      2  O   UNL     1       1.241   9.058  18.302  0.00  0.00    +0.000 OA
ATOM      3  N   UNL     1       0.806   8.982  20.532  0.00  0.00    +0.000 N 
ATOM      4  C   UNL     1       0.851   8.338  21.841  0.00  0.00    +0.000 C 
ENDROOT
BRANCH   1   5
ATOM      5  C   UNL     1       2.473   7.376  19.570  0.00  0.00    +0.000 C 
BRANCH   5   6
ATOM      6  S   UNL     1       2.846   6.528  17.994  0.00  0.00    +0.000 S 
BRANCH   6  11
ATOM      7  N   UNL     1       3.583   4.094  19.051  0.00  0.00    +0.000 N 
ATOM      8  C   UNL     1       4.769   3.467  19.351  0.00  0.00    +0.000 A 
ATOM      9  N   UNL     1       5.776   4.231  19.014  0.00  0.00    +0.000 NA
ATOM     10  N   UNL     1       5.269   5.396  18.487  0.00  0.00    +0.000 NA
ATOM     11  C   UNL     1       3.958   5.309  18.520  0.00  0.00    +0.000 A 
BRANCH   8  12
ATOM     12  O   UNL     1       4.919   2.271  19.899  0.00  0.00    +0.000 OA
ATOM     13  H   UNL     1       5.814   1.939  19.747  0.00  0.00    +0.000 HD
ENDBRANCH   8  12
BRANCH   7  14
ATOM     14  C   UNL     1       2.251   3.605  19.320  0.00  0.00    +0.000 C 
BRANCH  14  16
ATOM     15  C   UNL     1       1.409   2.665  21.550  0.00  0.00    +0.000 C 
ATOM     16  C   UNL     1       1.737   3.906  20.729  0.00  0.00    +0.000 C 
ENDBRANCH  14  16
ENDBRANCH   7  14
ENDBRANCH   6  11
ENDBRANCH   5   6
ENDBRANCH   1   5
BRANCH   3  17
ATOM     17  C   UNL     1      -0.051  10.171  20.422  0.00  0.00    +0.000 C 
BRANCH  17  18
ATOM     18  C   UNL     1       0.692  11.509  20.337  0.00  0.00    +0.000 C 
ATOM     19  O   UNL     1       1.187  12.019  21.342  0.00  0.00    +0.000 OA
ATOM     20  N   UNL     1       0.676  12.097  19.079  0.00  0.00    +0.000 N 
ATOM     21  H   UNL     1      -0.128  11.857  18.502  0.00  0.00    +0.000 HD
BRANCH  20  22
ATOM     22  C   UNL     1       1.341  13.314  18.822  0.00  0.00    +0.000 A 
ATOM     23  C   UNL     1       0.698  14.550  18.975  0.00  0.00    +0.000 A 
ATOM     24  C   UNL     1       1.363  15.741  18.659  0.00  0.00    +0.000 A 
ATOM     25  C   UNL     1       2.662  15.691  18.162  0.00  0.00    +0.000 A 
ATOM     26 CL   UNL     1       3.457  17.144  17.693  0.00  0.00    +0.000 Cl
ATOM     27  C   UNL     1       3.319  14.468  18.031  0.00  0.00    +0.000 A 
ATOM     28  C   UNL     1       2.670  13.281  18.395  0.00  0.00    +0.000 A 
ENDBRANCH  20  22
ENDBRANCH  17  18
ENDBRANCH   3  17
TORSDOF 9
ENDMDL
MODEL 7
REMARK VINA RESULT:      -6.6      2.835      4.354
REMARK  Name = 
REMARK  11 active torsions:
REMARK  status: ('A' for Active; 'I' for Inactive)
REMARK    1  A    between atoms: C_1  and  C_2
REMARK    2  A    between atoms: C_2  and  C_3
REMARK    3  A    between atoms: C_3  and  N_4
REMARK    4  A    between atoms: C_5  and  O_6
REMARK    5  A    between atoms: C_9  and  S_10
REMARK    6  A    between atoms: S_10  and  C_11
REMARK    7  A    between atoms: C_11  and  C_12
REMARK    8  A    between atoms: N_14  and  C_15
REMARK    9  A    between atoms: N_14  and  C_16
REMARK   10  A    between atoms: C_16  and  C_17
REMARK   11  A    between atoms: N_19  and  C_20
REMARK                            x       y       z     vdW  Elec       q    Type
REMARK                         _______ _______ _______ _____ _____    ______ ____
ROOT
ATOM      1  C   UNL     1       4.410   3.809  18.939  0.00  0.00    +0.000 C 
ATOM      2  O   UNL     1       5.001   4.783  19.415  0.00  0.00    +0.000 OA
ATOM      3  N   UNL     1       3.192   3.409  19.489  0.00  0.00    +0.000 N 
ATOM      4  C   UNL     1       2.306   2.399  18.918  0.00  0.00    +0.000 C 
ENDROOT
BRANCH   1   5
ATOM      5  C   UNL     1       4.944   3.008  17.741  0.00  0.00    +0.000 C 
BRANCH   5   6
ATOM      6  S   UNL     1       4.386   3.688  16.139  0.00  0.00    +0.000 S 
BRANCH   6  11
ATOM      7  N   UNL     1       6.392   4.441  14.408  0.00  0.00    +0.000 N 
ATOM      8  C   UNL     1       7.467   5.297  14.457  0.00  0.00    +0.000 A 
ATOM      9  N   UNL     1       7.501   5.908  15.613  0.00  0.00    +0.000 NA
ATOM     10  N   UNL     1       6.441   5.456  16.365  0.00  0.00    +0.000 NA
ATOM     11  C   UNL     1       5.788   4.574  15.640  0.00  0.00    +0.000 A 
BRANCH   8  12
ATOM     12  O   UNL     1       8.361   5.504  13.501  0.00  0.00    +0.000 OA
ATOM     13  H   UNL     1       9.166   4.999  13.677  0.00  0.00    +0.000 HD
ENDBRANCH   8  12
BRANCH   7  14
ATOM     14  C   UNL     1       6.041   3.548  13.329  0.00  0.00    +0.000 C 
BRANCH  14  16
ATOM     15  C   UNL     1       4.427   3.030  11.408  0.00  0.00    +0.000 C 
ATOM     16  C   UNL     1       4.904   4.049  12.436  0.00  0.00    +0.000 C 
ENDBRANCH  14  16
ENDBRANCH   7  14
ENDBRANCH   6  11
ENDBRANCH   5   6
ENDBRANCH   1   5
BRANCH   3  17
ATOM     17  C   UNL     1       2.722   4.068  20.716  0.00  0.00    +0.000 C 
BRANCH  17  18
ATOM     18  C   UNL     1       1.859   5.317  20.499  0.00  0.00    +0.000 C 
ATOM     19  O   UNL     1       0.631   5.247  20.532  0.00  0.00    +0.000 OA
ATOM     20  N   UNL     1       2.577   6.465  20.195  0.00  0.00    +0.000 N 
ATOM     21  H   UNL     1       3.470   6.305  19.732  0.00  0.00    +0.000 HD
BRANCH  20  22
ATOM     22  C   UNL     1       1.938   7.708  19.999  0.00  0.00    +0.000 A 
ATOM     23  C   UNL     1       1.275   8.367  21.045  0.00  0.00    +0.000 A 
ATOM     24  C   UNL     1       0.602   9.571  20.812  0.00  0.00    +0.000 A 
ATOM     25  C   UNL     1       0.565  10.100  19.524  0.00  0.00    +0.000 A 
ATOM     26 CL   UNL     1      -0.331  11.536  19.213  0.00  0.00    +0.000 Cl
ATOM     27  C   UNL     1       1.243   9.465  18.484  0.00  0.00    +0.000 A 
ATOM     28  C   UNL     1       1.960   8.287  18.729  0.00  0.00    +0.000 A 
ENDBRANCH  20  22
ENDBRANCH  17  18
ENDBRANCH   3  17
TORSDOF 9
ENDMDL
MODEL 8
REMARK VINA RESULT:      -6.5      2.253      3.042
REMARK  Name = 
REMARK  11 active torsions:
REMARK  status: ('A' for Active; 'I' for Inactive)
REMARK    1  A    between atoms: C_1  and  C_2
REMARK    2  A    between atoms: C_2  and  C_3
REMARK    3  A    between atoms: C_3  and  N_4
REMARK    4  A    between atoms: C_5  and  O_6
REMARK    5  A    between atoms: C_9  and  S_10
REMARK    6  A    between atoms: S_10  and  C_11
REMARK    7  A    between atoms: C_11  and  C_12
REMARK    8  A    between atoms: N_14  and  C_15
REMARK    9  A    between atoms: N_14  and  C_16
REMARK   10  A    between atoms: C_16  and  C_17
REMARK   11  A    between atoms: N_19  and  C_20
REMARK                            x       y       z     vdW  Elec       q    Type
REMARK                         _______ _______ _______ _____ _____    ______ ____
ROOT
ATOM      1  C   UNL     1       2.407   5.678  18.423  0.00  0.00    +0.000 C 
ATOM      2  O   UNL     1       2.611   6.574  17.599  0.00  0.00    +0.000 OA
ATOM      3  N   UNL     1       2.279   6.002  19.774  0.00  0.00    +0.000 N 
ATOM      4  C   UNL     1       1.861   5.076  20.822  0.00  0.00    +0.000 C 
ENDROOT
BRANCH   1   5
ATOM      5  C   UNL     1       2.268   4.198  18.033  0.00  0.00    +0.000 C 
BRANCH   5   6
ATOM      6  S   UNL     1       3.746   3.560  17.167  0.00  0.00    +0.000 S 
BRANCH   6  11
ATOM      7  N   UNL     1       5.877   5.265  17.533  0.00  0.00    +0.000 N 
ATOM      8  C   UNL     1       6.728   5.573  18.568  0.00  0.00    +0.000 A 
ATOM      9  N   UNL     1       6.400   4.890  19.635  0.00  0.00    +0.000 NA
ATOM     10  N   UNL     1       5.319   4.100  19.319  0.00  0.00    +0.000 NA
ATOM     11  C   UNL     1       5.017   4.325  18.059  0.00  0.00    +0.000 A 
BRANCH   8  12
ATOM     12  O   UNL     1       7.741   6.425  18.537  0.00  0.00    +0.000 OA
ATOM     13  H   UNL     1       7.782   6.931  19.360  0.00  0.00    +0.000 HD
ENDBRANCH   8  12
BRANCH   7  14
ATOM     14  C   UNL     1       5.941   5.764  16.180  0.00  0.00    +0.000 C 
BRANCH  14  16
ATOM     15  C   UNL     1       6.161   4.066  14.273  0.00  0.00    +0.000 C 
ATOM     16  C   UNL     1       6.878   4.981  15.258  0.00  0.00    +0.000 C 
ENDBRANCH  14  16
ENDBRANCH   7  14
ENDBRANCH   6  11
ENDBRANCH   5   6
ENDBRANCH   1   5
BRANCH   3  17
ATOM     17  C   UNL     1       2.541   7.386  20.195  0.00  0.00    +0.000 C 
BRANCH  17  18
ATOM     18  C   UNL     1       1.294   8.251  20.413  0.00  0.00    +0.000 C 
ATOM     19  O   UNL     1       0.461   7.950  21.268  0.00  0.00    +0.000 OA
ATOM     20  N   UNL     1       1.170   9.314  19.529  0.00  0.00    +0.000 N 
ATOM     21  H   UNL     1       1.611   9.174  18.622  0.00  0.00    +0.000 HD
BRANCH  20  22
ATOM     22  C   UNL     1       0.097  10.227  19.615  0.00  0.00    +0.000 A 
ATOM     23  C   UNL     1      -0.030  11.113  20.694  0.00  0.00    +0.000 A 
ATOM     24  C   UNL     1      -1.132  11.970  20.784  0.00  0.00    +0.000 A 
ATOM     25  C   UNL     1      -2.124  11.918  19.808  0.00  0.00    +0.000 A 
ATOM     26 CL   UNL     1      -3.524  12.908  19.955  0.00  0.00    +0.000 Cl
ATOM     27  C   UNL     1      -1.994  11.058  18.718  0.00  0.00    +0.000 A 
ATOM     28  C   UNL     1      -0.864  10.237  18.603  0.00  0.00    +0.000 A 
ENDBRANCH  20  22
ENDBRANCH  17  18
ENDBRANCH   3  17
TORSDOF 9
ENDMDL
MODEL 9
REMARK VINA RESULT:      -6.5      5.369      7.357
REMARK  Name = 
REMARK  11 active torsions:
REMARK  status: ('A' for Active; 'I' for Inactive)
REMARK    1  A    between atoms: C_1  and  C_2
REMARK    2  A    between atoms: C_2  and  C_3
REMARK    3  A    between atoms: C_3  and  N_4
REMARK    4  A    between atoms: C_5  and  O_6
REMARK    5  A    between atoms: C_9  and  S_10
REMARK    6  A    between atoms: S_10  and  C_11
REMARK    7  A    between atoms: C_11  and  C_12
REMARK    8  A    between atoms: N_14  and  C_15
REMARK    9  A    between atoms: N_14  and  C_16
REMARK   10  A    between atoms: C_16  and  C_17
REMARK   11  A    between atoms: N_19  and  C_20
REMARK                            x       y       z     vdW  Elec       q    Type
REMARK                         _______ _______ _______ _____ _____    ______ ____
ROOT
ATOM      1  C   UNL     1       4.771   6.146  18.041  0.00  0.00    +0.000 C 
ATOM      2  O   UNL     1       5.268   5.696  19.078  0.00  0.00    +0.000 OA
ATOM      3  N   UNL     1       5.578   6.340  16.919  0.00  0.00    +0.000 N 
ATOM      4  C   UNL     1       5.092   6.691  15.588  0.00  0.00    +0.000 C 
ENDROOT
BRANCH   1   5
ATOM      5  C   UNL     1       3.280   6.497  17.911  0.00  0.00    +0.000 C 
BRANCH   5   6
ATOM      6  S   UNL     1       2.223   5.476  18.999  0.00  0.00    +0.000 S 
BRANCH   6  11
ATOM      7  N   UNL     1       3.162   2.888  19.084  0.00  0.00    +0.000 N 
ATOM      8  C   UNL     1       3.217   1.829  18.208  0.00  0.00    +0.000 A 
ATOM      9  N   UNL     1       2.651   2.156  17.075  0.00  0.00    +0.000 NA
ATOM     10  N   UNL     1       2.214   3.457  17.177  0.00  0.00    +0.000 NA
ATOM     11  C   UNL     1       2.531   3.889  18.377  0.00  0.00    +0.000 A 
BRANCH   8  12
ATOM     12  O   UNL     1       3.752   0.639  18.434  0.00  0.00    +0.000 OA
ATOM     13  H   UNL     1       3.079  -0.051  18.368  0.00  0.00    +0.000 HD
ENDBRANCH   8  12
BRANCH   7  14
ATOM     14  C   UNL     1       3.724   2.946  20.413  0.00  0.00    +0.000 C 
BRANCH  14  16
ATOM     15  C   UNL     1       1.407   2.784  21.496  0.00  0.00    +0.000 C 
ATOM     16  C   UNL     1       2.854   2.306  21.497  0.00  0.00    +0.000 C 
ENDBRANCH  14  16
ENDBRANCH   7  14
ENDBRANCH   6  11
ENDBRANCH   5   6
ENDBRANCH   1   5
BRANCH   3  17
ATOM     17  C   UNL     1       7.028   6.143  17.052  0.00  0.00    +0.000 C 
BRANCH  17  18
ATOM     18  C   UNL     1       7.761   7.201  17.885  0.00  0.00    +0.000 C 
ATOM     19  O   UNL     1       8.300   6.901  18.950  0.00  0.00    +0.000 OA
ATOM     20  N   UNL     1       7.682   8.490  17.375  0.00  0.00    +0.000 N 
ATOM     21  H   UNL     1       6.853   8.682  16.816  0.00  0.00    +0.000 HD
BRANCH  20  22
ATOM     22  C   UNL     1       8.330   9.575  18.003  0.00  0.00    +0.000 A 
ATOM     23  C   UNL     1       9.045   9.413  19.197  0.00  0.00    +0.000 A 
ATOM     24  C   UNL     1       9.631  10.516  19.829  0.00  0.00    +0.000 A 
ATOM     25  C   UNL     1       9.474  11.786  19.281  0.00  0.00    +0.000 A 
ATOM     26 CL   UNL     1      10.120  13.157  20.096  0.00  0.00    +0.000 Cl
ATOM     27  C   UNL     1       8.784  11.953  18.081  0.00  0.00    +0.000 A 
ATOM     28  C   UNL     1       8.242  10.842  17.422  0.00  0.00    +0.000 A 
ENDBRANCH  20  22
ENDBRANCH  17  18
ENDBRANCH   3  17
TORSDOF 9
ENDMDL
