MODEL 1
REMARK VINA RESULT:      -8.4      0.000      0.000
REMARK  Name = 
REMARK  4 active torsions:
REMARK  status: ('A' for Active; 'I' for Inactive)
REMARK    1  A    between atoms: C_2  and  C_3
REMARK    2  A    between atoms: C_3  and  C_4
REMARK    3  A    between atoms: N_18  and  C_19
REMARK    4  A    between atoms: C_19  and  C_20
REMARK                            x       y       z     vdW  Elec       q    Type
REMARK                         _______ _______ _______ _____ _____    ______ ____
ROOT
ATOM      1  O   UNL     1       0.336   9.242  20.672  0.00  0.00    +0.000 OA
ATOM      2  C   UNL     1       0.878   9.461  19.587  0.00  0.00    +0.000 C 
ATOM      3  N   UNL     1       1.813   8.603  19.064  0.00  0.00    +0.000 N 
ATOM      4  C   UNL     1       2.590   8.716  17.819  0.00  0.00    +0.000 C 
ATOM      5  C   UNL     1       3.301   7.339  17.657  0.00  0.00    +0.000 C 
ATOM      6  C   UNL     1       2.446   6.474  18.561  0.00  0.00    +0.000 C 
ATOM      7  C   UNL     1       2.223   7.408  19.736  0.00  0.00    +0.000 C 
ATOM      8  C   UNL     1       1.373   6.538  20.635  0.00  0.00    +0.000 C 
ATOM      9  C   UNL     1       2.076   5.197  20.418  0.00  0.00    +0.000 C 
ATOM     10  O   UNL     1       1.956   4.211  21.125  0.00  0.00    +0.000 OA
ATOM     11  N   UNL     1       2.836   5.278  19.235  0.00  0.00    +0.000 N 
ENDROOT
BRANCH   2  12
ATOM     12  C   UNL     1       0.480  10.663  18.753  0.00  0.00    +0.000 C 
BRANCH  12  13
ATOM     13  C   UNL     1      -0.982  10.694  18.362  0.00  0.00    +0.000 A 
ATOM     14  C   UNL     1      -1.521   9.816  17.409  0.00  0.00    +0.000 A 
ATOM     15  C   UNL     1      -2.876   9.879  17.074  0.00  0.00    +0.000 A 
ATOM     16  C   UNL     1      -3.711  10.798  17.703  0.00  0.00    +0.000 A 
ATOM     17  C   UNL     1      -3.196  11.647  18.680  0.00  0.00    +0.000 A 
ATOM     18  C   UNL     1      -1.842  11.591  19.012  0.00  0.00    +0.000 A 
ENDBRANCH  12  13
ENDBRANCH   2  12
BRANCH  11  19
ATOM     19  C   UNL     1       3.382   4.112  18.568  0.00  0.00    +0.000 C 
BRANCH  19  20
ATOM     20  C   UNL     1       4.803   4.339  18.139  0.00  0.00    +0.000 A 
ATOM     21  C   UNL     1       5.191   4.198  16.803  0.00  0.00    +0.000 A 
ATOM     22  C   UNL     1       6.528   4.364  16.451  0.00  0.00    +0.000 A 
ATOM     23  C   UNL     1       7.433   4.681  17.449  0.00  0.00    +0.000 A 
ATOM     24  N   UNL     1       7.092   4.859  18.743  0.00  0.00    +0.000 NA
ATOM     25  C   UNL     1       5.786   4.691  19.056  0.00  0.00    +0.000 A 
ENDBRANCH  19  20
ENDBRANCH  11  19
TORSDOF 4
ENDMDL
MODEL 2
REMARK VINA RESULT:      -8.2      0.538      1.090
REMARK  Name = 
REMARK  4 active torsions:
REMARK  status: ('A' for Active; 'I' for Inactive)
REMARK    1  A    between atoms: C_2  and  C_3
REMARK    2  A    between atoms: C_3  and  C_4
REMARK    3  A    between atoms: N_18  and  C_19
REMARK    4  A    between atoms: C_19  and  C_20
REMARK                            x       y       z     vdW  Elec       q    Type
REMARK                         _______ _______ _______ _____ _____    ______ ____
ROOT
ATOM      1  O   UNL     1       0.470   8.768  21.159  0.00  0.00    +0.000 OA
ATOM      2  C   UNL     1       0.970   9.218  20.127  0.00  0.00    +0.000 C 
ATOM      3  N   UNL     1       1.861   8.487  19.381  0.00  0.00    +0.000 N 
ATOM      4  C   UNL     1       2.587   8.866  18.158  0.00  0.00    +0.000 C 
ATOM      5  C   UNL     1       3.258   7.552  17.659  0.00  0.00    +0.000 C 
ATOM      6  C   UNL     1       2.422   6.517  18.386  0.00  0.00    +0.000 C 
ATOM      7  C   UNL     1       2.271   7.166  19.749  0.00  0.00    +0.000 C 
ATOM      8  C   UNL     1       1.440   6.128  20.469  0.00  0.00    +0.000 C 
ATOM      9  C   UNL     1       2.101   4.861  19.924  0.00  0.00    +0.000 C 
ATOM     10  O   UNL     1       1.987   3.743  20.398  0.00  0.00    +0.000 OA
ATOM     11  N   UNL     1       2.811   5.194  18.756  0.00  0.00    +0.000 N 
ENDROOT
BRANCH   2  12
ATOM     12  C   UNL     1       0.566  10.582  19.602  0.00  0.00    +0.000 C 
BRANCH  12  13
ATOM     13  C   UNL     1      -0.756  10.600  18.865  0.00  0.00    +0.000 A 
ATOM     14  C   UNL     1      -1.828  11.411  19.269  0.00  0.00    +0.000 A 
ATOM     15  C   UNL     1      -3.033  11.397  18.563  0.00  0.00    +0.000 A 
ATOM     16  C   UNL     1      -3.173  10.595  17.433  0.00  0.00    +0.000 A 
ATOM     17  C   UNL     1      -2.103   9.817  16.998  0.00  0.00    +0.000 A 
ATOM     18  C   UNL     1      -0.900   9.824  17.706  0.00  0.00    +0.000 A 
ENDBRANCH  12  13
ENDBRANCH   2  12
BRANCH  11  19
ATOM     19  C   UNL     1       3.300   4.202  17.820  0.00  0.00    +0.000 C 
BRANCH  19  20
ATOM     20  C   UNL     1       4.775   4.348  17.583  0.00  0.00    +0.000 A 
ATOM     21  C   UNL     1       5.313   4.311  16.293  0.00  0.00    +0.000 A 
ATOM     22  C   UNL     1       6.691   4.397  16.115  0.00  0.00    +0.000 A 
ATOM     23  C   UNL     1       7.488   4.532  17.238  0.00  0.00    +0.000 A 
ATOM     24  N   UNL     1       7.005   4.606  18.497  0.00  0.00    +0.000 NA
ATOM     25  C   UNL     1       5.663   4.520  18.639  0.00  0.00    +0.000 A 
ENDBRANCH  19  20
ENDBRANCH  11  19
TORSDOF 4
ENDMDL
MODEL 3
REMARK VINA RESULT:      -8.2      0.664      1.064
REMARK  Name = 
REMARK  4 active torsions:
REMARK  status: ('A' for Active; 'I' for Inactive)
REMARK    1  A    between atoms: C_2  and  C_3
REMARK    2  A    between atoms: C_3  and  C_4
REMARK    3  A    between atoms: N_18  and  C_19
REMARK    4  A    between atoms: C_19  and  C_20
REMARK                            x       y       z     vdW  Elec       q    Type
REMARK                         _______ _______ _______ _____ _____    ______ ____
ROOT
ATOM      1  O   UNL     1       0.166   9.603  20.849  0.00  0.00    +0.000 OA
ATOM      2  C   UNL     1       0.620   9.854  19.732  0.00  0.00    +0.000 C 
ATOM      3  N   UNL     1       1.554   9.044  19.136  0.00  0.00    +0.000 N 
ATOM      4  C   UNL     1       2.236   9.201  17.841  0.00  0.00    +0.000 C 
ATOM      5  C   UNL     1       2.997   7.860  17.617  0.00  0.00    +0.000 C 
ATOM      6  C   UNL     1       2.248   6.950  18.570  0.00  0.00    +0.000 C 
ATOM      7  C   UNL     1       2.065   7.865  19.767  0.00  0.00    +0.000 C 
ATOM      8  C   UNL     1       1.321   6.950  20.714  0.00  0.00    +0.000 C 
ATOM      9  C   UNL     1       2.068   5.646  20.436  0.00  0.00    +0.000 C 
ATOM     10  O   UNL     1       2.043   4.650  21.140  0.00  0.00    +0.000 OA
ATOM     11  N   UNL     1       2.738   5.769  19.204  0.00  0.00    +0.000 N 
ENDROOT
BRANCH   2  12
ATOM     12  C   UNL     1       0.109  11.041  18.939  0.00  0.00    +0.000 C 
BRANCH  12  13
ATOM     13  C   UNL     1      -1.309  10.890  18.432  0.00  0.00    +0.000 A 
ATOM     14  C   UNL     1      -1.674   9.895  17.512  0.00  0.00    +0.000 A 
ATOM     15  C   UNL     1      -2.994   9.790  17.067  0.00  0.00    +0.000 A 
ATOM     16  C   UNL     1      -3.968  10.657  17.554  0.00  0.00    +0.000 A 
ATOM     17  C   UNL     1      -3.627  11.623  18.499  0.00  0.00    +0.000 A 
ATOM     18  C   UNL     1      -2.307  11.734  18.940  0.00  0.00    +0.000 A 
ENDBRANCH  12  13
ENDBRANCH   2  12
BRANCH  11  19
ATOM     19  C   UNL     1       3.290   4.634  18.490  0.00  0.00    +0.000 C 
BRANCH  19  20
ATOM     20  C   UNL     1       4.774   4.767  18.307  0.00  0.00    +0.000 A 
ATOM     21  C   UNL     1       5.582   5.331  19.299  0.00  0.00    +0.000 A 
ATOM     22  C   UNL     1       6.947   5.486  19.073  0.00  0.00    +0.000 A 
ATOM     23  C   UNL     1       7.463   5.055  17.864  0.00  0.00    +0.000 A 
ATOM     24  N   UNL     1       6.722   4.474  16.895  0.00  0.00    +0.000 NA
ATOM     25  C   UNL     1       5.399   4.337  17.143  0.00  0.00    +0.000 A 
ENDBRANCH  19  20
ENDBRANCH  11  19
TORSDOF 4
ENDMDL
MODEL 4
REMARK VINA RESULT:      -8.1      0.609      1.369
REMARK  Name = 
REMARK  4 active torsions:
REMARK  status: ('A' for Active; 'I' for Inactive)
REMARK    1  A    between atoms: C_2  and  C_3
REMARK    2  A    between atoms: C_3  and  C_4
REMARK    3  A    between atoms: N_18  and  C_19
REMARK    4  A    between atoms: C_19  and  C_20
REMARK                            x       y       z     vdW  Elec       q    Type
REMARK                         _______ _______ _______ _____ _____    ______ ____
ROOT
ATOM      1  O   UNL     1       0.472   9.343  20.626  0.00  0.00    +0.000 OA
ATOM      2  C   UNL     1       0.955   9.497  19.503  0.00  0.00    +0.000 C 
ATOM      3  N   UNL     1       1.854   8.603  18.978  0.00  0.00    +0.000 N 
ATOM      4  C   UNL     1       2.563   8.640  17.688  0.00  0.00    +0.000 C 
ATOM      5  C   UNL     1       3.254   7.249  17.563  0.00  0.00    +0.000 C 
ATOM      6  C   UNL     1       2.444   6.443  18.559  0.00  0.00    +0.000 C 
ATOM      7  C   UNL     1       2.292   7.441  19.691  0.00  0.00    +0.000 C 
ATOM      8  C   UNL     1       1.485   6.630  20.681  0.00  0.00    +0.000 C 
ATOM      9  C   UNL     1       2.165   5.273  20.500  0.00  0.00    +0.000 C 
ATOM     10  O   UNL     1       2.076   4.328  21.266  0.00  0.00    +0.000 OA
ATOM     11  N   UNL     1       2.860   5.281  19.276  0.00  0.00    +0.000 N 
ENDROOT
BRANCH   2  12
ATOM     12  C   UNL     1       0.521  10.656  18.627  0.00  0.00    +0.000 C 
BRANCH  12  13
ATOM     13  C   UNL     1      -0.964  10.697  18.337  0.00  0.00    +0.000 A 
ATOM     14  C   UNL     1      -1.825  11.607  18.968  0.00  0.00    +0.000 A 
ATOM     15  C   UNL     1      -3.191  11.612  18.675  0.00  0.00    +0.000 A 
ATOM     16  C   UNL     1      -3.707  10.727  17.731  0.00  0.00    +0.000 A 
ATOM     17  C   UNL     1      -2.856   9.846  17.069  0.00  0.00    +0.000 A 
ATOM     18  C   UNL     1      -1.492   9.835  17.364  0.00  0.00    +0.000 A 
ENDBRANCH  12  13
ENDBRANCH   2  12
BRANCH  11  19
ATOM     19  C   UNL     1       3.361   4.076  18.645  0.00  0.00    +0.000 C 
BRANCH  19  20
ATOM     20  C   UNL     1       4.743   4.275  18.096  0.00  0.00    +0.000 A 
ATOM     21  C   UNL     1       5.773   4.796  18.885  0.00  0.00    +0.000 A 
ATOM     22  C   UNL     1       7.029   5.016  18.327  0.00  0.00    +0.000 A 
ATOM     23  C   UNL     1       7.218   4.692  16.995  0.00  0.00    +0.000 A 
ATOM     24  N   UNL     1       6.260   4.156  16.209  0.00  0.00    +0.000 NA
ATOM     25  C   UNL     1       5.050   3.953  16.779  0.00  0.00    +0.000 A 
ENDBRANCH  19  20
ENDBRANCH  11  19
TORSDOF 4
ENDMDL
MODEL 5
REMARK VINA RESULT:      -8.0      1.169      1.561
REMARK  Name = 
REMARK  4 active torsions:
REMARK  status: ('A' for Active; 'I' for Inactive)
REMARK    1  A    between atoms: C_2  and  C_3
REMARK    2  A    between atoms: C_3  and  C_4
REMARK    3  A    between atoms: N_18  and  C_19
REMARK    4  A    between atoms: C_19  and  C_20
REMARK                            x       y       z     vdW  Elec       q    Type
REMARK                         _______ _______ _______ _____ _____    ______ ____
ROOT
ATOM      1  O   UNL     1      -0.324   9.669  21.096  0.00  0.00    +0.000 OA
ATOM      2  C   UNL     1       0.124  10.132  20.046  0.00  0.00    +0.000 C 
ATOM      3  N   UNL     1       1.170   9.538  19.386  0.00  0.00    +0.000 N 
ATOM      4  C   UNL     1       1.861   9.962  18.157  0.00  0.00    +0.000 C 
ATOM      5  C   UNL     1       2.794   8.773  17.783  0.00  0.00    +0.000 C 
ATOM      6  C   UNL     1       2.144   7.649  18.566  0.00  0.00    +0.000 C 
ATOM      7  C   UNL     1       1.812   8.353  19.869  0.00  0.00    +0.000 C 
ATOM      8  C   UNL     1       1.168   7.227  20.645  0.00  0.00    +0.000 C 
ATOM      9  C   UNL     1       2.084   6.078  20.222  0.00  0.00    +0.000 C 
ATOM     10  O   UNL     1       2.168   4.996  20.779  0.00  0.00    +0.000 OA
ATOM     11  N   UNL     1       2.766   6.459  19.051  0.00  0.00    +0.000 N 
ENDROOT
BRANCH   2  12
ATOM     12  C   UNL     1      -0.514  11.348  19.404  0.00  0.00    +0.000 C 
BRANCH  12  13
ATOM     13  C   UNL     1      -1.762  11.048  18.602  0.00  0.00    +0.000 A 
ATOM     14  C   UNL     1      -2.971  11.728  18.814  0.00  0.00    +0.000 A 
ATOM     15  C   UNL     1      -4.102  11.419  18.054  0.00  0.00    +0.000 A 
ATOM     16  C   UNL     1      -4.032  10.449  17.058  0.00  0.00    +0.000 A 
ATOM     17  C   UNL     1      -2.828   9.796  16.810  0.00  0.00    +0.000 A 
ATOM     18  C   UNL     1      -1.698  10.097  17.572  0.00  0.00    +0.000 A 
ENDBRANCH  12  13
ENDBRANCH   2  12
BRANCH  11  19
ATOM     19  C   UNL     1       3.478   5.517  18.211  0.00  0.00    +0.000 C 
BRANCH  19  20
ATOM     20  C   UNL     1       4.964   5.706  18.307  0.00  0.00    +0.000 A 
ATOM     21  C   UNL     1       5.662   6.477  17.373  0.00  0.00    +0.000 A 
ATOM     22  C   UNL     1       7.047   6.587  17.464  0.00  0.00    +0.000 A 
ATOM     23  C   UNL     1       7.688   5.931  18.500  0.00  0.00    +0.000 A 
ATOM     24  N   UNL     1       7.047   5.206  19.441  0.00  0.00    +0.000 NA
ATOM     25  C   UNL     1       5.702   5.117  19.327  0.00  0.00    +0.000 A 
ENDBRANCH  19  20
ENDBRANCH  11  19
TORSDOF 4
ENDMDL
MODEL 6
REMARK VINA RESULT:      -7.8      3.427      7.636
REMARK  Name = 
REMARK  4 active torsions:
REMARK  status: ('A' for Active; 'I' for Inactive)
REMARK    1  A    between atoms: C_2  and  C_3
REMARK    2  A    between atoms: C_3  and  C_4
REMARK    3  A    between atoms: N_18  and  C_19
REMARK    4  A    between atoms: C_19  and  C_20
REMARK                            x       y       z     vdW  Elec       q    Type
REMARK                         _______ _______ _______ _____ _____    ______ ____
ROOT
ATOM      1  O   UNL     1       5.543   6.834  15.294  0.00  0.00    +0.000 OA
ATOM      2  C   UNL     1       5.967   5.965  16.057  0.00  0.00    +0.000 C 
ATOM      3  N   UNL     1       5.529   5.870  17.354  0.00  0.00    +0.000 N 
ATOM      4  C   UNL     1       5.945   4.938  18.415  0.00  0.00    +0.000 C 
ATOM      5  C   UNL     1       4.936   5.168  19.578  0.00  0.00    +0.000 C 
ATOM      6  C   UNL     1       3.798   5.839  18.834  0.00  0.00    +0.000 C 
ATOM      7  C   UNL     1       4.560   6.767  17.907  0.00  0.00    +0.000 C 
ATOM      8  C   UNL     1       3.420   7.434  17.171  0.00  0.00    +0.000 C 
ATOM      9  C   UNL     1       2.441   7.606  18.333  0.00  0.00    +0.000 C 
ATOM     10  O   UNL     1       1.468   8.341  18.338  0.00  0.00    +0.000 OA
ATOM     11  N   UNL     1       2.820   6.731  19.369  0.00  0.00    +0.000 N 
ENDROOT
BRANCH   2  12
ATOM     12  C   UNL     1       6.950   4.919  15.568  0.00  0.00    +0.000 C 
BRANCH  12  13
ATOM     13  C   UNL     1       6.724   4.471  14.140  0.00  0.00    +0.000 A 
ATOM     14  C   UNL     1       5.636   3.664  13.770  0.00  0.00    +0.000 A 
ATOM     15  C   UNL     1       5.464   3.270  12.441  0.00  0.00    +0.000 A 
ATOM     16  C   UNL     1       6.358   3.697  11.463  0.00  0.00    +0.000 A 
ATOM     17  C   UNL     1       7.418   4.532  11.810  0.00  0.00    +0.000 A 
ATOM     18  C   UNL     1       7.596   4.922  13.138  0.00  0.00    +0.000 A 
ENDBRANCH  12  13
ENDBRANCH   2  12
BRANCH  11  19
ATOM     19  C   UNL     1       1.955   6.410  20.486  0.00  0.00    +0.000 C 
BRANCH  19  20
ATOM     20  C   UNL     1       1.782   4.927  20.641  0.00  0.00    +0.000 A 
ATOM     21  C   UNL     1       1.064   4.175  19.705  0.00  0.00    +0.000 A 
ATOM     22  C   UNL     1       0.880   2.810  19.909  0.00  0.00    +0.000 A 
ATOM     23  C   UNL     1       1.435   2.238  21.040  0.00  0.00    +0.000 A 
ATOM     24  N   UNL     1       2.163   2.922  21.948  0.00  0.00    +0.000 NA
ATOM     25  C   UNL     1       2.326   4.246  21.724  0.00  0.00    +0.000 A 
ENDBRANCH  19  20
ENDBRANCH  11  19
TORSDOF 4
ENDMDL
MODEL 7
REMARK VINA RESULT:      -7.7      2.743      8.554
REMARK  Name = 
REMARK  4 active torsions:
REMARK  status: ('A' for Active; 'I' for Inactive)
REMARK    1  A    between atoms: C_2  and  C_3
REMARK    2  A    between atoms: C_3  and  C_4
REMARK    3  A    between atoms: N_18  and  C_19
REMARK    4  A    between atoms: C_19  and  C_20
REMARK                            x       y       z     vdW  Elec       q    Type
REMARK                         _______ _______ _______ _____ _____    ______ ____
ROOT
ATOM      1  O   UNL     1       2.295   6.815  20.243  0.00  0.00    +0.000 OA
ATOM      2  C   UNL     1       2.205   7.578  19.280  0.00  0.00    +0.000 C 
ATOM      3  N   UNL     1       1.412   8.697  19.320  0.00  0.00    +0.000 N 
ATOM      4  C   UNL     1       1.146   9.691  18.267  0.00  0.00    +0.000 C 
ATOM      5  C   UNL     1       0.365  10.837  18.977  0.00  0.00    +0.000 C 
ATOM      6  C   UNL     1       0.724  10.566  20.425  0.00  0.00    +0.000 C 
ATOM      7  C   UNL     1       0.638   9.052  20.471  0.00  0.00    +0.000 C 
ATOM      8  C   UNL     1       0.995   8.789  21.917  0.00  0.00    +0.000 C 
ATOM      9  C   UNL     1       0.246   9.950  22.571  0.00  0.00    +0.000 C 
ATOM     10  O   UNL     1      -0.022  10.043  23.757  0.00  0.00    +0.000 OA
ATOM     11  N   UNL     1      -0.031  10.916  21.585  0.00  0.00    +0.000 N 
ENDROOT
BRANCH   2  12
ATOM     12  C   UNL     1       3.025   7.340  18.027  0.00  0.00    +0.000 C 
BRANCH  12  13
ATOM     13  C   UNL     1       3.324   5.884  17.743  0.00  0.00    +0.000 A 
ATOM     14  C   UNL     1       2.323   4.900  17.743  0.00  0.00    +0.000 A 
ATOM     15  C   UNL     1       2.640   3.565  17.478  0.00  0.00    +0.000 A 
ATOM     16  C   UNL     1       3.953   3.202  17.187  0.00  0.00    +0.000 A 
ATOM     17  C   UNL     1       4.948   4.176  17.145  0.00  0.00    +0.000 A 
ATOM     18  C   UNL     1       4.635   5.509  17.414  0.00  0.00    +0.000 A 
ENDBRANCH  12  13
ENDBRANCH   2  12
BRANCH  11  19
ATOM     19  C   UNL     1      -0.453  12.266  21.899  0.00  0.00    +0.000 C 
BRANCH  19  20
ATOM     20  C   UNL     1      -1.945  12.410  21.816  0.00  0.00    +0.000 A 
ATOM     21  C   UNL     1      -2.579  12.739  20.613  0.00  0.00    +0.000 A 
ATOM     22  C   UNL     1      -3.960  12.916  20.585  0.00  0.00    +0.000 A 
ATOM     23  C   UNL     1      -4.665  12.743  21.763  0.00  0.00    +0.000 A 
ATOM     24  N   UNL     1      -4.095  12.392  22.935  0.00  0.00    +0.000 NA
ATOM     25  C   UNL     1      -2.752  12.227  22.932  0.00  0.00    +0.000 A 
ENDBRANCH  19  20
ENDBRANCH  11  19
TORSDOF 4
ENDMDL
MODEL 8
REMARK VINA RESULT:      -7.7      1.638      2.707
REMARK  Name = 
REMARK  4 active torsions:
REMARK  status: ('A' for Active; 'I' for Inactive)
REMARK    1  A    between atoms: C_2  and  C_3
REMARK    2  A    between atoms: C_3  and  C_4
REMARK    3  A    between atoms: N_18  and  C_19
REMARK    4  A    between atoms: C_19  and  C_20
REMARK                            x       y       z     vdW  Elec       q    Type
REMARK                         _______ _______ _______ _____ _____    ______ ____
ROOT
ATOM      1  O   UNL     1       0.511   9.087  20.921  0.00  0.00    +0.000 OA
ATOM      2  C   UNL     1       0.953   9.339  19.799  0.00  0.00    +0.000 C 
ATOM      3  N   UNL     1       1.840   8.502  19.170  0.00  0.00    +0.000 N 
ATOM      4  C   UNL     1       2.503   8.653  17.864  0.00  0.00    +0.000 C 
ATOM      5  C   UNL     1       3.200   7.286  17.600  0.00  0.00    +0.000 C 
ATOM      6  C   UNL     1       2.431   6.391  18.552  0.00  0.00    +0.000 C 
ATOM      7  C   UNL     1       2.311   7.290  19.768  0.00  0.00    +0.000 C 
ATOM      8  C   UNL     1       1.547   6.390  20.714  0.00  0.00    +0.000 C 
ATOM      9  C   UNL     1       2.231   5.060  20.397  0.00  0.00    +0.000 C 
ATOM     10  O   UNL     1       2.177   4.053  21.083  0.00  0.00    +0.000 OA
ATOM     11  N   UNL     1       2.882   5.178  19.154  0.00  0.00    +0.000 N 
ENDROOT
BRANCH   2  12
ATOM     12  C   UNL     1       0.480  10.562  19.038  0.00  0.00    +0.000 C 
BRANCH  12  13
ATOM     13  C   UNL     1       1.323  11.800  19.259  0.00  0.00    +0.000 A 
ATOM     14  C   UNL     1       2.114  12.358  18.243  0.00  0.00    +0.000 A 
ATOM     15  C   UNL     1       2.881  13.500  18.487  0.00  0.00    +0.000 A 
ATOM     16  C   UNL     1       2.847  14.111  19.738  0.00  0.00    +0.000 A 
ATOM     17  C   UNL     1       2.035  13.590  20.742  0.00  0.00    +0.000 A 
ATOM     18  C   UNL     1       1.273  12.445  20.503  0.00  0.00    +0.000 A 
ENDBRANCH  12  13
ENDBRANCH   2  12
BRANCH  11  19
ATOM     19  C   UNL     1       3.370   4.034  18.408  0.00  0.00    +0.000 C 
BRANCH  19  20
ATOM     20  C   UNL     1       4.779   4.245  17.936  0.00  0.00    +0.000 A 
ATOM     21  C   UNL     1       5.127   4.089  16.590  0.00  0.00    +0.000 A 
ATOM     22  C   UNL     1       6.454   4.240  16.197  0.00  0.00    +0.000 A 
ATOM     23  C   UNL     1       7.390   4.560  17.165  0.00  0.00    +0.000 A 
ATOM     24  N   UNL     1       7.088   4.753  18.467  0.00  0.00    +0.000 NA
ATOM     25  C   UNL     1       5.791   4.599  18.819  0.00  0.00    +0.000 A 
ENDBRANCH  19  20
ENDBRANCH  11  19
TORSDOF 4
ENDMDL
MODEL 9
REMARK VINA RESULT:      -7.5      3.452      7.598
REMARK  Name = 
REMARK  4 active torsions:
REMARK  status: ('A' for Active; 'I' for Inactive)
REMARK    1  A    between atoms: C_2  and  C_3
REMARK    2  A    between atoms: C_3  and  C_4
REMARK    3  A    between atoms: N_18  and  C_19
REMARK    4  A    between atoms: C_19  and  C_20
REMARK                            x       y       z     vdW  Elec       q    Type
REMARK                         _______ _______ _______ _____ _____    ______ ____
ROOT
ATOM      1  O   UNL     1       5.563   6.938  15.330  0.00  0.00    +0.000 OA
ATOM      2  C   UNL     1       5.987   6.024  16.039  0.00  0.00    +0.000 C 
ATOM      3  N   UNL     1       5.560   5.859  17.333  0.00  0.00    +0.000 N 
ATOM      4  C   UNL     1       5.979   4.866  18.335  0.00  0.00    +0.000 C 
ATOM      5  C   UNL     1       4.982   5.038  19.520  0.00  0.00    +0.000 C 
ATOM      6  C   UNL     1       3.844   5.759  18.826  0.00  0.00    +0.000 C 
ATOM      7  C   UNL     1       4.605   6.732  17.945  0.00  0.00    +0.000 C 
ATOM      8  C   UNL     1       3.464   7.449  17.259  0.00  0.00    +0.000 C 
ATOM      9  C   UNL     1       2.498   7.563  18.439  0.00  0.00    +0.000 C 
ATOM     10  O   UNL     1       1.532   8.306  18.495  0.00  0.00    +0.000 OA
ATOM     11  N   UNL     1       2.879   6.628  19.420  0.00  0.00    +0.000 N 
ENDROOT
BRANCH   2  12
ATOM     12  C   UNL     1       6.955   4.998  15.481  0.00  0.00    +0.000 C 
BRANCH  12  13
ATOM     13  C   UNL     1       6.571   4.452  14.123  0.00  0.00    +0.000 A 
ATOM     14  C   UNL     1       7.449   4.480  13.028  0.00  0.00    +0.000 A 
ATOM     15  C   UNL     1       7.056   3.968  11.790  0.00  0.00    +0.000 A 
ATOM     16  C   UNL     1       5.794   3.399  11.637  0.00  0.00    +0.000 A 
ATOM     17  C   UNL     1       4.929   3.328  12.726  0.00  0.00    +0.000 A 
ATOM     18  C   UNL     1       5.317   3.845  13.963  0.00  0.00    +0.000 A 
ENDBRANCH  12  13
ENDBRANCH   2  12
BRANCH  11  19
ATOM     19  C   UNL     1       2.022   6.252  20.526  0.00  0.00    +0.000 C 
BRANCH  19  20
ATOM     20  C   UNL     1       1.750   4.776  20.535  0.00  0.00    +0.000 A 
ATOM     21  C   UNL     1       2.183   3.962  21.587  0.00  0.00    +0.000 A 
ATOM     22  C   UNL     1       1.959   2.588  21.536  0.00  0.00    +0.000 A 
ATOM     23  C   UNL     1       1.293   2.075  20.437  0.00  0.00    +0.000 A 
ATOM     24  N   UNL     1       0.829   2.831  19.419  0.00  0.00    +0.000 NA
ATOM     25  C   UNL     1       1.061   4.162  19.496  0.00  0.00    +0.000 A 
ENDBRANCH  19  20
ENDBRANCH  11  19
TORSDOF 4
ENDMDL
