MODEL 1
REMARK VINA RESULT:      -7.7      0.000      0.000
REMARK  Name = 
REMARK  6 active torsions:
REMARK  status: ('A' for Active; 'I' for Inactive)
REMARK    1  A    between atoms: C_1  and  C_2
REMARK    2  A    between atoms: C_5  and  C_6
REMARK    3  A    between atoms: C_6  and  N_7
REMARK    4  A    between atoms: C_8  and  C_10
REMARK    5  A    between atoms: N_18  and  C_19
REMARK    6  A    between atoms: C_20  and  C_21
REMARK                            x       y       z     vdW  Elec       q    Type
REMARK                         _______ _______ _______ _____ _____    ______ ____
ROOT
ATOM      1  N   UNL     1       2.244   7.264  20.287  0.00  0.00    +0.000 N 
ATOM      2  C   UNL     1       2.332   5.912  20.029  0.00  0.00    +0.000 C 
ATOM      3  O   UNL     1       1.570   5.077  20.501  0.00  0.00    +0.000 OA
ATOM      4  H   UNL     1       2.749   7.928  19.719  0.00  0.00    +0.000 HD
ENDROOT
BRANCH   2   5
ATOM      5  C   UNL     1       3.413   5.486  19.112  0.00  0.00    +0.000 A 
ATOM      6  C   UNL     1       3.081   5.102  17.810  0.00  0.00    +0.000 A 
ATOM      7  N   UNL     1       3.958   4.712  16.844  0.00  0.00    +0.000 NA
ATOM      8  C   UNL     1       5.230   4.709  17.289  0.00  0.00    +0.000 A 
ATOM      9  C   UNL     1       5.689   5.035  18.562  0.00  0.00    +0.000 A 
ATOM     10  C   UNL     1       4.752   5.432  19.520  0.00  0.00    +0.000 A 
ATOM     11  N   UNL     1       7.053   4.899  18.643  0.00  0.00    +0.000 NA
ATOM     12  C   UNL     1       7.425   4.511  17.441  0.00  0.00    +0.000 A 
ATOM     13  N   UNL     1       6.360   4.388  16.592  0.00  0.00    +0.000 N 
ATOM     14  C   UNL     1       6.414   4.006  15.206  0.00  0.00    +0.000 C 
ENDBRANCH   2   5
BRANCH   1  15
ATOM     15  C   UNL     1       1.241   7.789  21.186  0.00  0.00    +0.000 C 
BRANCH  15  20
ATOM     16  C   UNL     1      -1.019  12.768  19.121  0.00  0.00    +0.000 C 
ATOM     17  C   UNL     1      -0.408  11.509  19.661  0.00  0.00    +0.000 A 
ATOM     18  C   UNL     1       0.349  10.665  18.849  0.00  0.00    +0.000 A 
ATOM     19  C   UNL     1       0.890   9.486  19.368  0.00  0.00    +0.000 A 
ATOM     20  C   UNL     1       0.686   9.113  20.710  0.00  0.00    +0.000 A 
ATOM     21  C   UNL     1      -0.074   9.966  21.537  0.00  0.00    +0.000 A 
ATOM     22  C   UNL     1      -0.380   9.674  22.983  0.00  0.00    +0.000 C 
ATOM     23  C   UNL     1      -0.606  11.155  21.001  0.00  0.00    +0.000 A 
ENDBRANCH  15  20
ENDBRANCH   1  15
TORSDOF 3
ENDMDL
MODEL 2
REMARK VINA RESULT:      -7.6      1.686      7.837
REMARK  Name = 
REMARK  6 active torsions:
REMARK  status: ('A' for Active; 'I' for Inactive)
REMARK    1  A    between atoms: C_1  and  C_2
REMARK    2  A    between atoms: C_5  and  C_6
REMARK    3  A    between atoms: C_6  and  N_7
REMARK    4  A    between atoms: C_8  and  C_10
REMARK    5  A    between atoms: N_18  and  C_19
REMARK    6  A    between atoms: C_20  and  C_21
REMARK                            x       y       z     vdW  Elec       q    Type
REMARK                         _______ _______ _______ _____ _____    ______ ____
ROOT
ATOM      1  N   UNL     1       4.091   5.893  19.558  0.00  0.00    +0.000 N 
ATOM      2  C   UNL     1       2.712   5.921  19.506  0.00  0.00    +0.000 C 
ATOM      3  O   UNL     1       2.018   4.930  19.313  0.00  0.00    +0.000 OA
ATOM      4  H   UNL     1       4.605   6.679  19.926  0.00  0.00    +0.000 HD
ENDROOT
BRANCH   2   5
ATOM      5  C   UNL     1       2.073   7.239  19.715  0.00  0.00    +0.000 A 
ATOM      6  C   UNL     1       2.085   8.168  18.670  0.00  0.00    +0.000 A 
ATOM      7  N   UNL     1       1.520   9.407  18.696  0.00  0.00    +0.000 NA
ATOM      8  C   UNL     1       0.944   9.674  19.885  0.00  0.00    +0.000 A 
ATOM      9  C   UNL     1       0.891   8.855  21.010  0.00  0.00    +0.000 A 
ATOM     10  C   UNL     1       1.483   7.592  20.936  0.00  0.00    +0.000 A 
ATOM     11  N   UNL     1       0.231   9.477  22.040  0.00  0.00    +0.000 NA
ATOM     12  C   UNL     1      -0.126  10.648  21.554  0.00  0.00    +0.000 A 
ATOM     13  N   UNL     1       0.278  10.807  20.257  0.00  0.00    +0.000 N 
ATOM     14  C   UNL     1       0.035  11.952  19.422  0.00  0.00    +0.000 C 
ENDBRANCH   2   5
BRANCH   1  15
ATOM     15  C   UNL     1       4.821   4.665  19.345  0.00  0.00    +0.000 C 
BRANCH  15  20
ATOM     16  C   UNL     1       6.878   4.502  13.877  0.00  0.00    +0.000 C 
ATOM     17  C   UNL     1       6.363   4.509  15.286  0.00  0.00    +0.000 A 
ATOM     18  C   UNL     1       5.067   4.091  15.585  0.00  0.00    +0.000 A 
ATOM     19  C   UNL     1       4.601   4.127  16.902  0.00  0.00    +0.000 A 
ATOM     20  C   UNL     1       5.414   4.586  17.956  0.00  0.00    +0.000 A 
ATOM     21  C   UNL     1       6.728   5.004  17.659  0.00  0.00    +0.000 A 
ATOM     22  C   UNL     1       7.690   5.532  18.690  0.00  0.00    +0.000 C 
ATOM     23  C   UNL     1       7.185   4.954  16.328  0.00  0.00    +0.000 A 
ENDBRANCH  15  20
ENDBRANCH   1  15
TORSDOF 3
ENDMDL
MODEL 3
REMARK VINA RESULT:      -7.5      1.705      7.832
REMARK  Name = 
REMARK  6 active torsions:
REMARK  status: ('A' for Active; 'I' for Inactive)
REMARK    1  A    between atoms: C_1  and  C_2
REMARK    2  A    between atoms: C_5  and  C_6
REMARK    3  A    between atoms: C_6  and  N_7
REMARK    4  A    between atoms: C_8  and  C_10
REMARK    5  A    between atoms: N_18  and  C_19
REMARK    6  A    between atoms: C_20  and  C_21
REMARK                            x       y       z     vdW  Elec       q    Type
REMARK                         _______ _______ _______ _____ _____    ______ ____
ROOT
ATOM      1  N   UNL     1       4.117   5.756  19.594  0.00  0.00    +0.000 N 
ATOM      2  C   UNL     1       2.758   5.835  19.369  0.00  0.00    +0.000 C 
ATOM      3  O   UNL     1       2.080   4.899  18.964  0.00  0.00    +0.000 OA
ATOM      4  H   UNL     1       4.592   6.474  20.122  0.00  0.00    +0.000 HD
ENDROOT
BRANCH   2   5
ATOM      5  C   UNL     1       2.118   7.137  19.661  0.00  0.00    +0.000 A 
ATOM      6  C   UNL     1       1.532   7.334  20.915  0.00  0.00    +0.000 A 
ATOM      7  N   UNL     1       0.929   8.477  21.344  0.00  0.00    +0.000 NA
ATOM      8  C   UNL     1       0.930   9.435  20.396  0.00  0.00    +0.000 A 
ATOM      9  C   UNL     1       1.447   9.356  19.105  0.00  0.00    +0.000 A 
ATOM     10  C   UNL     1       2.058   8.163  18.710  0.00  0.00    +0.000 A 
ATOM     11  N   UNL     1       1.248  10.531  18.424  0.00  0.00    +0.000 NA
ATOM     12  C   UNL     1       0.635  11.319  19.282  0.00  0.00    +0.000 A 
ATOM     13  N   UNL     1       0.427  10.702  20.484  0.00  0.00    +0.000 N 
ATOM     14  C   UNL     1      -0.193  11.281  21.645  0.00  0.00    +0.000 C 
ENDBRANCH   2   5
BRANCH   1  15
ATOM     15  C   UNL     1       4.850   4.541  19.321  0.00  0.00    +0.000 C 
BRANCH  15  20
ATOM     16  C   UNL     1       7.056   4.711  13.912  0.00  0.00    +0.000 C 
ATOM     17  C   UNL     1       6.505   4.633  15.305  0.00  0.00    +0.000 A 
ATOM     18  C   UNL     1       5.233   4.120  15.552  0.00  0.00    +0.000 A 
ATOM     19  C   UNL     1       4.731   4.078  16.856  0.00  0.00    +0.000 A 
ATOM     20  C   UNL     1       5.483   4.552  17.948  0.00  0.00    +0.000 A 
ATOM     21  C   UNL     1       6.773   5.067  17.703  0.00  0.00    +0.000 A 
ATOM     22  C   UNL     1       7.670   5.620  18.778  0.00  0.00    +0.000 C 
ATOM     23  C   UNL     1       7.268   5.095  16.385  0.00  0.00    +0.000 A 
ENDBRANCH  15  20
ENDBRANCH   1  15
TORSDOF 3
ENDMDL
MODEL 4
REMARK VINA RESULT:      -7.3      2.103      3.133
REMARK  Name = 
REMARK  6 active torsions:
REMARK  status: ('A' for Active; 'I' for Inactive)
REMARK    1  A    between atoms: C_1  and  C_2
REMARK    2  A    between atoms: C_5  and  C_6
REMARK    3  A    between atoms: C_6  and  N_7
REMARK    4  A    between atoms: C_8  and  C_10
REMARK    5  A    between atoms: N_18  and  C_19
REMARK    6  A    between atoms: C_20  and  C_21
REMARK                            x       y       z     vdW  Elec       q    Type
REMARK                         _______ _______ _______ _____ _____    ______ ____
ROOT
ATOM      1  N   UNL     1       1.303   9.085  19.246  0.00  0.00    +0.000 N 
ATOM      2  C   UNL     1       1.602   8.133  20.198  0.00  0.00    +0.000 C 
ATOM      3  O   UNL     1       1.397   8.279  21.397  0.00  0.00    +0.000 OA
ATOM      4  H   UNL     1       1.289   8.844  18.266  0.00  0.00    +0.000 HD
ENDROOT
BRANCH   2   5
ATOM      5  C   UNL     1       2.190   6.869  19.701  0.00  0.00    +0.000 A 
ATOM      6  C   UNL     1       2.009   5.701  20.448  0.00  0.00    +0.000 A 
ATOM      7  N   UNL     1       2.463   4.461  20.114  0.00  0.00    +0.000 NA
ATOM      8  C   UNL     1       3.153   4.471  18.957  0.00  0.00    +0.000 A 
ATOM      9  C   UNL     1       3.432   5.563  18.140  0.00  0.00    +0.000 A 
ATOM     10  C   UNL     1       2.945   6.816  18.522  0.00  0.00    +0.000 A 
ATOM     11  N   UNL     1       4.176   5.184  17.050  0.00  0.00    +0.000 NA
ATOM     12  C   UNL     1       4.339   3.885  17.188  0.00  0.00    +0.000 A 
ATOM     13  N   UNL     1       3.735   3.412  18.320  0.00  0.00    +0.000 N 
ATOM     14  C   UNL     1       3.700   2.043  18.760  0.00  0.00    +0.000 C 
ENDBRANCH   2   5
BRANCH   1  15
ATOM     15  C   UNL     1       0.747  10.366  19.620  0.00  0.00    +0.000 C 
BRANCH  15  20
ATOM     16  C   UNL     1      -4.354  11.171  16.882  0.00  0.00    +0.000 C 
ATOM     17  C   UNL     1      -3.030  10.992  17.564  0.00  0.00    +0.000 A 
ATOM     18  C   UNL     1      -2.074  10.107  17.069  0.00  0.00    +0.000 A 
ATOM     19  C   UNL     1      -0.856   9.940  17.734  0.00  0.00    +0.000 A 
ATOM     20  C   UNL     1      -0.561  10.648  18.915  0.00  0.00    +0.000 A 
ATOM     21  C   UNL     1      -1.523  11.549  19.417  0.00  0.00    +0.000 A 
ATOM     22  C   UNL     1      -1.339  12.351  20.678  0.00  0.00    +0.000 C 
ATOM     23  C   UNL     1      -2.742  11.712  18.730  0.00  0.00    +0.000 A 
ENDBRANCH  15  20
ENDBRANCH   1  15
TORSDOF 3
ENDMDL
MODEL 5
REMARK VINA RESULT:      -7.3      2.030      7.928
REMARK  Name = 
REMARK  6 active torsions:
REMARK  status: ('A' for Active; 'I' for Inactive)
REMARK    1  A    between atoms: C_1  and  C_2
REMARK    2  A    between atoms: C_5  and  C_6
REMARK    3  A    between atoms: C_6  and  N_7
REMARK    4  A    between atoms: C_8  and  C_10
REMARK    5  A    between atoms: N_18  and  C_19
REMARK    6  A    between atoms: C_20  and  C_21
REMARK                            x       y       z     vdW  Elec       q    Type
REMARK                         _______ _______ _______ _____ _____    ______ ____
ROOT
ATOM      1  N   UNL     1       3.186   6.565  19.680  0.00  0.00    +0.000 N 
ATOM      2  C   UNL     1       2.002   6.705  20.374  0.00  0.00    +0.000 C 
ATOM      3  O   UNL     1       1.402   5.772  20.894  0.00  0.00    +0.000 OA
ATOM      4  H   UNL     1       3.747   7.373  19.455  0.00  0.00    +0.000 HD
ENDROOT
BRANCH   2   5
ATOM      5  C   UNL     1       1.464   8.080  20.487  0.00  0.00    +0.000 A 
ATOM      6  C   UNL     1       1.436   8.889  19.348  0.00  0.00    +0.000 A 
ATOM      7  N   UNL     1       0.952  10.160  19.282  0.00  0.00    +0.000 NA
ATOM      8  C   UNL     1       0.504  10.592  20.478  0.00  0.00    +0.000 A 
ATOM      9  C   UNL     1       0.506   9.903  21.688  0.00  0.00    +0.000 A 
ATOM     10  C   UNL     1       1.012   8.600  21.707  0.00  0.00    +0.000 A 
ATOM     11  N   UNL     1      -0.018  10.676  22.694  0.00  0.00    +0.000 NA
ATOM     12  C   UNL     1      -0.347  11.810  22.112  0.00  0.00    +0.000 A 
ATOM     13  N   UNL     1      -0.055  11.802  20.776  0.00  0.00    +0.000 N 
ATOM     14  C   UNL     1      -0.305  12.865  19.841  0.00  0.00    +0.000 C 
ENDBRANCH   2   5
BRANCH   1  15
ATOM     15  C   UNL     1       3.789   5.266  19.487  0.00  0.00    +0.000 C 
BRANCH  15  20
ATOM     16  C   UNL     1       6.397   4.813  14.276  0.00  0.00    +0.000 C 
ATOM     17  C   UNL     1       5.696   4.939  15.597  0.00  0.00    +0.000 A 
ATOM     18  C   UNL     1       5.709   6.136  16.311  0.00  0.00    +0.000 A 
ATOM     19  C   UNL     1       5.068   6.225  17.550  0.00  0.00    +0.000 A 
ATOM     20  C   UNL     1       4.401   5.120  18.112  0.00  0.00    +0.000 A 
ATOM     21  C   UNL     1       4.380   3.908  17.390  0.00  0.00    +0.000 A 
ATOM     22  C   UNL     1       3.718   2.650  17.887  0.00  0.00    +0.000 C 
ATOM     23  C   UNL     1       5.024   3.837  16.139  0.00  0.00    +0.000 A 
ENDBRANCH  15  20
ENDBRANCH   1  15
TORSDOF 3
ENDMDL
MODEL 6
REMARK VINA RESULT:      -7.3      2.730      3.654
REMARK  Name = 
REMARK  6 active torsions:
REMARK  status: ('A' for Active; 'I' for Inactive)
REMARK    1  A    between atoms: C_1  and  C_2
REMARK    2  A    between atoms: C_5  and  C_6
REMARK    3  A    between atoms: C_6  and  N_7
REMARK    4  A    between atoms: C_8  and  C_10
REMARK    5  A    between atoms: N_18  and  C_19
REMARK    6  A    between atoms: C_20  and  C_21
REMARK                            x       y       z     vdW  Elec       q    Type
REMARK                         _______ _______ _______ _____ _____    ______ ____
ROOT
ATOM      1  N   UNL     1       1.386   9.120  19.329  0.00  0.00    +0.000 N 
ATOM      2  C   UNL     1       2.130   8.381  18.433  0.00  0.00    +0.000 C 
ATOM      3  O   UNL     1       2.588   8.833  17.391  0.00  0.00    +0.000 OA
ATOM      4  H   UNL     1       1.213   8.774  20.261  0.00  0.00    +0.000 HD
ENDROOT
BRANCH   2   5
ATOM      5  C   UNL     1       2.382   6.968  18.796  0.00  0.00    +0.000 A 
ATOM      6  C   UNL     1       2.979   6.126  17.853  0.00  0.00    +0.000 A 
ATOM      7  N   UNL     1       3.298   4.815  18.042  0.00  0.00    +0.000 NA
ATOM      8  C   UNL     1       2.947   4.382  19.269  0.00  0.00    +0.000 A 
ATOM      9  C   UNL     1       2.321   5.104  20.281  0.00  0.00    +0.000 A 
ATOM     10  C   UNL     1       2.014   6.446  20.043  0.00  0.00    +0.000 A 
ATOM     11  N   UNL     1       2.111   4.318  21.387  0.00  0.00    +0.000 NA
ATOM     12  C   UNL     1       2.608   3.143  21.066  0.00  0.00    +0.000 A 
ATOM     13  N   UNL     1       3.127   3.136  19.800  0.00  0.00    +0.000 N 
ATOM     14  C   UNL     1       3.765   2.027  19.146  0.00  0.00    +0.000 C 
ENDBRANCH   2   5
BRANCH   1  15
ATOM     15  C   UNL     1       1.060  10.503  19.066  0.00  0.00    +0.000 C 
BRANCH  15  20
ATOM     16  C   UNL     1      -4.579  10.913  17.584  0.00  0.00    +0.000 C 
ATOM     17  C   UNL     1      -3.124  10.834  17.939  0.00  0.00    +0.000 A 
ATOM     18  C   UNL     1      -2.270   9.939  17.297  0.00  0.00    +0.000 A 
ATOM     19  C   UNL     1      -0.922   9.867  17.660  0.00  0.00    +0.000 A 
ATOM     20  C   UNL     1      -0.391  10.683  18.677  0.00  0.00    +0.000 A 
ATOM     21  C   UNL     1      -1.250  11.595  19.325  0.00  0.00    +0.000 A 
ATOM     22  C   UNL     1      -0.812  12.510  20.438  0.00  0.00    +0.000 C 
ATOM     23  C   UNL     1      -2.604  11.661  18.942  0.00  0.00    +0.000 A 
ENDBRANCH  15  20
ENDBRANCH   1  15
TORSDOF 3
ENDMDL
MODEL 7
REMARK VINA RESULT:      -7.3      2.659      3.851
REMARK  Name = 
REMARK  6 active torsions:
REMARK  status: ('A' for Active; 'I' for Inactive)
REMARK    1  A    between atoms: C_1  and  C_2
REMARK    2  A    between atoms: C_5  and  C_6
REMARK    3  A    between atoms: C_6  and  N_7
REMARK    4  A    between atoms: C_8  and  C_10
REMARK    5  A    between atoms: N_18  and  C_19
REMARK    6  A    between atoms: C_20  and  C_21
REMARK                            x       y       z     vdW  Elec       q    Type
REMARK                         _______ _______ _______ _____ _____    ______ ____
ROOT
ATOM      1  N   UNL     1       1.235   9.415  19.195  0.00  0.00    +0.000 N 
ATOM      2  C   UNL     1       1.993   8.606  18.374  0.00  0.00    +0.000 C 
ATOM      3  O   UNL     1       2.433   8.960  17.286  0.00  0.00    +0.000 OA
ATOM      4  H   UNL     1       1.077   9.163  20.159  0.00  0.00    +0.000 HD
ENDROOT
BRANCH   2   5
ATOM      5  C   UNL     1       2.284   7.245  18.878  0.00  0.00    +0.000 A 
ATOM      6  C   UNL     1       1.810   6.879  20.142  0.00  0.00    +0.000 A 
ATOM      7  N   UNL     1       1.971   5.663  20.733  0.00  0.00    +0.000 NA
ATOM      8  C   UNL     1       2.681   4.816  19.961  0.00  0.00    +0.000 A 
ATOM      9  C   UNL     1       3.234   5.065  18.708  0.00  0.00    +0.000 A 
ATOM     10  C   UNL     1       3.042   6.327  18.140  0.00  0.00    +0.000 A 
ATOM     11  N   UNL     1       3.902   3.962  18.238  0.00  0.00    +0.000 NA
ATOM     12  C   UNL     1       3.752   3.051  19.176  0.00  0.00    +0.000 A 
ATOM     13  N   UNL     1       3.019   3.521  20.231  0.00  0.00    +0.000 N 
ATOM     14  C   UNL     1       2.650   2.783  21.409  0.00  0.00    +0.000 C 
ENDBRANCH   2   5
BRANCH   1  15
ATOM     15  C   UNL     1       0.871  10.755  18.793  0.00  0.00    +0.000 C 
BRANCH  15  20
ATOM     16  C   UNL     1      -4.879  10.974  17.767  0.00  0.00    +0.000 C 
ATOM     17  C   UNL     1      -3.398  10.942  18.003  0.00  0.00    +0.000 A 
ATOM     18  C   UNL     1      -2.583  10.009  17.363  0.00  0.00    +0.000 A 
ATOM     19  C   UNL     1      -1.208   9.983  17.614  0.00  0.00    +0.000 A 
ATOM     20  C   UNL     1      -0.610  10.885  18.516  0.00  0.00    +0.000 A 
ATOM     21  C   UNL     1      -1.429  11.834  19.161  0.00  0.00    +0.000 A 
ATOM     22  C   UNL     1      -0.918  12.840  20.158  0.00  0.00    +0.000 C 
ATOM     23  C   UNL     1      -2.812  11.853  18.890  0.00  0.00    +0.000 A 
ENDBRANCH  15  20
ENDBRANCH   1  15
TORSDOF 3
ENDMDL
MODEL 8
REMARK VINA RESULT:      -7.3      2.066      2.849
REMARK  Name = 
REMARK  6 active torsions:
REMARK  status: ('A' for Active; 'I' for Inactive)
REMARK    1  A    between atoms: C_1  and  C_2
REMARK    2  A    between atoms: C_5  and  C_6
REMARK    3  A    between atoms: C_6  and  N_7
REMARK    4  A    between atoms: C_8  and  C_10
REMARK    5  A    between atoms: N_18  and  C_19
REMARK    6  A    between atoms: C_20  and  C_21
REMARK                            x       y       z     vdW  Elec       q    Type
REMARK                         _______ _______ _______ _____ _____    ______ ____
ROOT
ATOM      1  N   UNL     1       1.435   9.205  18.903  0.00  0.00    +0.000 N 
ATOM      2  C   UNL     1       1.810   8.099  19.638  0.00  0.00    +0.000 C 
ATOM      3  O   UNL     1       1.562   7.956  20.829  0.00  0.00    +0.000 OA
ATOM      4  H   UNL     1       1.470   9.187  17.895  0.00  0.00    +0.000 HD
ENDROOT
BRANCH   2   5
ATOM      5  C   UNL     1       2.538   7.039  18.905  0.00  0.00    +0.000 A 
ATOM      6  C   UNL     1       3.413   7.408  17.879  0.00  0.00    +0.000 A 
ATOM      7  N   UNL     1       4.172   6.559  17.132  0.00  0.00    +0.000 NA
ATOM      8  C   UNL     1       3.973   5.271  17.475  0.00  0.00    +0.000 A 
ATOM      9  C   UNL     1       3.112   4.771  18.448  0.00  0.00    +0.000 A 
ATOM     10  C   UNL     1       2.354   5.680  19.190  0.00  0.00    +0.000 A 
ATOM     11  N   UNL     1       3.171   3.400  18.499  0.00  0.00    +0.000 NA
ATOM     12  C   UNL     1       4.059   3.067  17.586  0.00  0.00    +0.000 A 
ATOM     13  N   UNL     1       4.572   4.162  16.948  0.00  0.00    +0.000 N 
ATOM     14  C   UNL     1       5.575   4.158  15.918  0.00  0.00    +0.000 C 
ENDBRANCH   2   5
BRANCH   1  15
ATOM     15  C   UNL     1       0.739  10.311  19.521  0.00  0.00    +0.000 C 
BRANCH  15  20
ATOM     16  C   UNL     1      -4.411  11.162  16.892  0.00  0.00    +0.000 C 
ATOM     17  C   UNL     1      -3.075  10.971  17.546  0.00  0.00    +0.000 A 
ATOM     18  C   UNL     1      -2.137  10.078  17.030  0.00  0.00    +0.000 A 
ATOM     19  C   UNL     1      -0.907   9.899  17.669  0.00  0.00    +0.000 A 
ATOM     20  C   UNL     1      -0.581  10.605  18.844  0.00  0.00    +0.000 A 
ATOM     21  C   UNL     1      -1.524  11.514  19.366  0.00  0.00    +0.000 A 
ATOM     22  C   UNL     1      -1.306  12.315  20.623  0.00  0.00    +0.000 C 
ATOM     23  C   UNL     1      -2.756  11.688  18.706  0.00  0.00    +0.000 A 
ENDBRANCH  15  20
ENDBRANCH   1  15
TORSDOF 3
ENDMDL
MODEL 9
REMARK VINA RESULT:      -7.2      2.814      8.427
REMARK  Name = 
REMARK  6 active torsions:
REMARK  status: ('A' for Active; 'I' for Inactive)
REMARK    1  A    between atoms: C_1  and  C_2
REMARK    2  A    between atoms: C_5  and  C_6
REMARK    3  A    between atoms: C_6  and  N_7
REMARK    4  A    between atoms: C_8  and  C_10
REMARK    5  A    between atoms: N_18  and  C_19
REMARK    6  A    between atoms: C_20  and  C_21
REMARK                            x       y       z     vdW  Elec       q    Type
REMARK                         _______ _______ _______ _____ _____    ______ ____
ROOT
ATOM      1  N   UNL     1       2.221   8.271  18.537  0.00  0.00    +0.000 N 
ATOM      2  C   UNL     1       1.788   9.564  18.329  0.00  0.00    +0.000 C 
ATOM      3  O   UNL     1       2.111  10.243  17.362  0.00  0.00    +0.000 OA
ATOM      4  H   UNL     1       1.769   7.683  19.222  0.00  0.00    +0.000 HD
ENDROOT
BRANCH   2   5
ATOM      5  C   UNL     1       0.870  10.122  19.347  0.00  0.00    +0.000 A 
ATOM      6  C   UNL     1      -0.145  10.990  18.936  0.00  0.00    +0.000 A 
ATOM      7  N   UNL     1      -1.081  11.564  19.743  0.00  0.00    +0.000 NA
ATOM      8  C   UNL     1      -0.913  11.219  21.035  0.00  0.00    +0.000 A 
ATOM      9  C   UNL     1       0.070  10.395  21.576  0.00  0.00    +0.000 A 
ATOM     10  C   UNL     1       1.008   9.828  20.710  0.00  0.00    +0.000 A 
ATOM     11  N   UNL     1      -0.073  10.289  22.938  0.00  0.00    +0.000 NA
ATOM     12  C   UNL     1      -1.129  11.020  23.224  0.00  0.00    +0.000 A 
ATOM     13  N   UNL     1      -1.670  11.595  22.107  0.00  0.00    +0.000 N 
ATOM     14  C   UNL     1      -2.838  12.433  22.060  0.00  0.00    +0.000 C 
ENDBRANCH   2   5
BRANCH   1  15
ATOM     15  C   UNL     1       3.137   7.633  17.619  0.00  0.00    +0.000 C 
BRANCH  15  20
ATOM     16  C   UNL     1       2.948   1.812  18.107  0.00  0.00    +0.000 C 
ATOM     17  C   UNL     1       3.011   3.308  18.016  0.00  0.00    +0.000 A 
ATOM     18  C   UNL     1       1.925   4.101  18.386  0.00  0.00    +0.000 A 
ATOM     19  C   UNL     1       1.997   5.492  18.272  0.00  0.00    +0.000 A 
ATOM     20  C   UNL     1       3.154   6.129  17.782  0.00  0.00    +0.000 A 
ATOM     21  C   UNL     1       4.256   5.332  17.413  0.00  0.00    +0.000 A 
ATOM     22  C   UNL     1       5.542   5.887  16.859  0.00  0.00    +0.000 C 
ATOM     23  C   UNL     1       4.171   3.931  17.541  0.00  0.00    +0.000 A 
ENDBRANCH  15  20
ENDBRANCH   1  15
TORSDOF 3
ENDMDL
