MODEL 1
REMARK VINA RESULT:      -8.5      0.000      0.000
REMARK  Name = 
REMARK  7 active torsions:
REMARK  status: ('A' for Active; 'I' for Inactive)
REMARK    1  A    between atoms: C_1  and  C_2
REMARK    2  A    between atoms: C_2  and  C_3
REMARK    3  A    between atoms: C_2  and  N_9
REMARK    4  A    between atoms: C_3  and  C_4
REMARK    5  A    between atoms: C_10  and  C_11
REMARK    6  A    between atoms: C_10  and  C_17
REMARK    7  A    between atoms: C_23  and  O_24
REMARK                            x       y       z     vdW  Elec       q    Type
REMARK                         _______ _______ _______ _____ _____    ______ ____
ROOT
ATOM      1  N   UNL     1       4.173   6.313  18.512  0.00  0.00    +0.000 NA
ATOM      2  C   UNL     1       2.939   6.261  18.899  0.00  0.00    +0.000 C 
ENDROOT
BRANCH   2   3
ATOM      3  C   UNL     1       2.216   7.591  18.975  0.00  0.00    +0.000 A 
ATOM      4  C   UNL     1       2.023   8.291  17.770  0.00  0.00    +0.000 A 
ATOM      5  C   UNL     1       1.276   9.473  17.739  0.00  0.00    +0.000 A 
ATOM      6  C   UNL     1       0.713   9.962  18.915  0.00  0.00    +0.000 A 
ATOM      7 BR   UNL     1      -0.323  11.543  18.875  0.00  0.00    +0.000 Br
ATOM      8  C   UNL     1       0.908   9.296  20.124  0.00  0.00    +0.000 A 
ATOM      9  C   UNL     1       1.669   8.123  20.153  0.00  0.00    +0.000 A 
BRANCH   9  10
ATOM     10  O   UNL     1       1.877   7.514  21.359  0.00  0.00    +0.000 OA
ATOM     11  H   UNL     1       1.792   8.164  22.074  0.00  0.00    +0.000 HD
ENDBRANCH   9  10
ENDBRANCH   2   3
BRANCH   2  12
ATOM     12  C   UNL     1       2.147   5.027  19.225  0.00  0.00    +0.000 A 
ATOM     13  C   UNL     1       1.597   4.261  18.195  0.00  0.00    +0.000 A 
ATOM     14  C   UNL     1       0.947   3.054  18.458  0.00  0.00    +0.000 A 
ATOM     15  C   UNL     1       0.921   2.551  19.755  0.00  0.00    +0.000 A 
ATOM     16  C   UNL     1       1.503   3.278  20.791  0.00  0.00    +0.000 A 
ATOM     17  C   UNL     1       2.082   4.525  20.537  0.00  0.00    +0.000 A 
ENDBRANCH   2  12
BRANCH   1  19
ATOM     18  C   UNL     1       5.674   4.501  19.292  0.00  0.00    +0.000 C 
ATOM     19  C   UNL     1       5.011   5.183  18.087  0.00  0.00    +0.000 C 
BRANCH  19  20
ATOM     20  C   UNL     1       6.167   5.739  17.216  0.00  0.00    +0.000 C 
BRANCH  20  21
ATOM     21  C   UNL     1       6.395   5.031  15.928  0.00  0.00    +0.000 A 
ATOM     22  C   UNL     1       5.877   3.823  15.518  0.00  0.00    +0.000 A 
ATOM     23  N   UNL     1       6.345   3.641  14.249  0.00  0.00    +0.000 N 
ATOM     24  C   UNL     1       7.102   4.737  13.937  0.00  0.00    +0.000 A 
ATOM     25  N   UNL     1       7.142   5.598  14.924  0.00  0.00    +0.000 NA
ATOM     26  H   UNL     1       6.159   2.860  13.646  0.00  0.00    +0.000 HD
ENDBRANCH  20  21
ENDBRANCH  19  20
ENDBRANCH   1  19
TORSDOF 6
ENDMDL
MODEL 2
REMARK VINA RESULT:      -8.5      1.080      1.477
REMARK  Name = 
REMARK  7 active torsions:
REMARK  status: ('A' for Active; 'I' for Inactive)
REMARK    1  A    between atoms: C_1  and  C_2
REMARK    2  A    between atoms: C_2  and  C_3
REMARK    3  A    between atoms: C_2  and  N_9
REMARK    4  A    between atoms: C_3  and  C_4
REMARK    5  A    between atoms: C_10  and  C_11
REMARK    6  A    between atoms: C_10  and  C_17
REMARK    7  A    between atoms: C_23  and  O_24
REMARK                            x       y       z     vdW  Elec       q    Type
REMARK                         _______ _______ _______ _____ _____    ______ ____
ROOT
ATOM      1  N   UNL     1       4.036   6.599  18.821  0.00  0.00    +0.000 NA
ATOM      2  C   UNL     1       2.838   6.398  19.269  0.00  0.00    +0.000 C 
ENDROOT
BRANCH   2   3
ATOM      3  C   UNL     1       2.015   7.644  19.526  0.00  0.00    +0.000 A 
ATOM      4  C   UNL     1       1.444   7.790  20.804  0.00  0.00    +0.000 A 
ATOM      5  C   UNL     1       0.757   8.958  21.154  0.00  0.00    +0.000 A 
ATOM      6  C   UNL     1       0.641   9.991  20.227  0.00  0.00    +0.000 A 
ATOM      7 BR   UNL     1      -0.259  11.584  20.704  0.00  0.00    +0.000 Br
ATOM      8  C   UNL     1       1.181   9.861  18.949  0.00  0.00    +0.000 A 
ATOM      9  C   UNL     1       1.852   8.685  18.598  0.00  0.00    +0.000 A 
BRANCH   9  10
ATOM     10  O   UNL     1       2.337   8.570  17.325  0.00  0.00    +0.000 OA
ATOM     11  H   UNL     1       2.178   9.393  16.837  0.00  0.00    +0.000 HD
ENDBRANCH   9  10
ENDBRANCH   2   3
BRANCH   2  12
ATOM     12  C   UNL     1       2.174   5.072  19.505  0.00  0.00    +0.000 A 
ATOM     13  C   UNL     1       1.659   4.350  18.427  0.00  0.00    +0.000 A 
ATOM     14  C   UNL     1       1.132   3.070  18.600  0.00  0.00    +0.000 A 
ATOM     15  C   UNL     1       1.198   2.456  19.846  0.00  0.00    +0.000 A 
ATOM     16  C   UNL     1       1.748   3.142  20.926  0.00  0.00    +0.000 A 
ATOM     17  C   UNL     1       2.201   4.456  20.769  0.00  0.00    +0.000 A 
ENDBRANCH   2  12
BRANCH   1  19
ATOM     18  C   UNL     1       6.025   5.176  19.229  0.00  0.00    +0.000 C 
ATOM     19  C   UNL     1       4.936   5.597  18.232  0.00  0.00    +0.000 C 
BRANCH  19  20
ATOM     20  C   UNL     1       5.674   6.253  17.037  0.00  0.00    +0.000 C 
BRANCH  20  21
ATOM     21  C   UNL     1       6.101   5.321  15.960  0.00  0.00    +0.000 A 
ATOM     22  C   UNL     1       5.522   4.130  15.585  0.00  0.00    +0.000 A 
ATOM     23  N   UNL     1       6.255   3.689  14.522  0.00  0.00    +0.000 N 
ATOM     24  C   UNL     1       7.225   4.625  14.285  0.00  0.00    +0.000 A 
ATOM     25  N   UNL     1       7.152   5.626  15.128  0.00  0.00    +0.000 NA
ATOM     26  H   UNL     1       6.106   2.847  13.997  0.00  0.00    +0.000 HD
ENDBRANCH  20  21
ENDBRANCH  19  20
ENDBRANCH   1  19
TORSDOF 6
ENDMDL
MODEL 3
REMARK VINA RESULT:      -8.4      1.081      1.766
REMARK  Name = 
REMARK  7 active torsions:
REMARK  status: ('A' for Active; 'I' for Inactive)
REMARK    1  A    between atoms: C_1  and  C_2
REMARK    2  A    between atoms: C_2  and  C_3
REMARK    3  A    between atoms: C_2  and  N_9
REMARK    4  A    between atoms: C_3  and  C_4
REMARK    5  A    between atoms: C_10  and  C_11
REMARK    6  A    between atoms: C_10  and  C_17
REMARK    7  A    between atoms: C_23  and  O_24
REMARK                            x       y       z     vdW  Elec       q    Type
REMARK                         _______ _______ _______ _____ _____    ______ ____
ROOT
ATOM      1  N   UNL     1       4.166   6.617  18.735  0.00  0.00    +0.000 NA
ATOM      2  C   UNL     1       2.988   6.386  19.219  0.00  0.00    +0.000 C 
ENDROOT
BRANCH   2   3
ATOM      3  C   UNL     1       2.109   7.604  19.418  0.00  0.00    +0.000 A 
ATOM      4  C   UNL     1       1.499   7.762  20.676  0.00  0.00    +0.000 A 
ATOM      5  C   UNL     1       0.757   8.910  20.975  0.00  0.00    +0.000 A 
ATOM      6  C   UNL     1       0.624   9.912  20.016  0.00  0.00    +0.000 A 
ATOM      7 BR   UNL     1      -0.351  11.479  20.423  0.00  0.00    +0.000 Br
ATOM      8  C   UNL     1       1.203   9.768  18.756  0.00  0.00    +0.000 A 
ATOM      9  C   UNL     1       1.929   8.611  18.457  0.00  0.00    +0.000 A 
BRANCH   9  10
ATOM     10  O   UNL     1       2.452   8.480  17.200  0.00  0.00    +0.000 OA
ATOM     11  H   UNL     1       3.417   8.394  17.253  0.00  0.00    +0.000 HD
ENDBRANCH   9  10
ENDBRANCH   2   3
BRANCH   2  12
ATOM     12  C   UNL     1       2.394   5.046  19.547  0.00  0.00    +0.000 A 
ATOM     13  C   UNL     1       2.409   4.582  20.863  0.00  0.00    +0.000 A 
ATOM     14  C   UNL     1       1.773   3.391  21.218  0.00  0.00    +0.000 A 
ATOM     15  C   UNL     1       1.032   2.694  20.270  0.00  0.00    +0.000 A 
ATOM     16  C   UNL     1       0.968   3.163  18.960  0.00  0.00    +0.000 A 
ATOM     17  C   UNL     1       1.673   4.312  18.589  0.00  0.00    +0.000 A 
ENDBRANCH   2  12
BRANCH   1  19
ATOM     18  C   UNL     1       6.162   5.232  19.227  0.00  0.00    +0.000 C 
ATOM     19  C   UNL     1       5.103   5.626  18.187  0.00  0.00    +0.000 C 
BRANCH  19  20
ATOM     20  C   UNL     1       5.873   6.284  17.014  0.00  0.00    +0.000 C 
BRANCH  20  21
ATOM     21  C   UNL     1       6.143   5.400  15.850  0.00  0.00    +0.000 A 
ATOM     22  C   UNL     1       5.397   4.334  15.400  0.00  0.00    +0.000 A 
ATOM     23  N   UNL     1       6.037   3.892  14.278  0.00  0.00    +0.000 N 
ATOM     24  C   UNL     1       7.118   4.707  14.084  0.00  0.00    +0.000 A 
ATOM     25  N   UNL     1       7.203   5.632  15.007  0.00  0.00    +0.000 NA
ATOM     26  H   UNL     1       5.762   3.125  13.693  0.00  0.00    +0.000 HD
ENDBRANCH  20  21
ENDBRANCH  19  20
ENDBRANCH   1  19
TORSDOF 6
ENDMDL
MODEL 4
REMARK VINA RESULT:      -8.4      2.021      4.952
REMARK  Name = 
REMARK  7 active torsions:
REMARK  status: ('A' for Active; 'I' for Inactive)
REMARK    1  A    between atoms: C_1  and  C_2
REMARK    2  A    between atoms: C_2  and  C_3
REMARK    3  A    between atoms: C_2  and  N_9
REMARK    4  A    between atoms: C_3  and  C_4
REMARK    5  A    between atoms: C_10  and  C_11
REMARK    6  A    between atoms: C_10  and  C_17
REMARK    7  A    between atoms: C_23  and  O_24
REMARK                            x       y       z     vdW  Elec       q    Type
REMARK                         _______ _______ _______ _____ _____    ______ ____
ROOT
ATOM      1  N   UNL     1       3.414   4.762  17.727  0.00  0.00    +0.000 NA
ATOM      2  C   UNL     1       4.011   5.844  18.112  0.00  0.00    +0.000 C 
ENDROOT
BRANCH   2   3
ATOM      3  C   UNL     1       3.105   6.967  18.573  0.00  0.00    +0.000 A 
ATOM      4  C   UNL     1       2.899   8.038  17.684  0.00  0.00    +0.000 A 
ATOM      5  C   UNL     1       1.997   9.062  17.991  0.00  0.00    +0.000 A 
ATOM      6  C   UNL     1       1.291   9.020  19.191  0.00  0.00    +0.000 A 
ATOM      7 BR   UNL     1       0.048  10.384  19.599  0.00  0.00    +0.000 Br
ATOM      8  C   UNL     1       1.494   7.979  20.096  0.00  0.00    +0.000 A 
ATOM      9  C   UNL     1       2.409   6.967  19.792  0.00  0.00    +0.000 A 
BRANCH   9  10
ATOM     10  O   UNL     1       2.617   5.981  20.716  0.00  0.00    +0.000 OA
ATOM     11  H   UNL     1       3.486   6.099  21.132  0.00  0.00    +0.000 HD
ENDBRANCH   9  10
ENDBRANCH   2   3
BRANCH   2  12
ATOM     12  C   UNL     1       5.493   6.074  18.196  0.00  0.00    +0.000 A 
ATOM     13  C   UNL     1       6.100   7.013  17.360  0.00  0.00    +0.000 A 
ATOM     14  C   UNL     1       7.454   7.326  17.486  0.00  0.00    +0.000 A 
ATOM     15  C   UNL     1       8.201   6.766  18.517  0.00  0.00    +0.000 A 
ATOM     16  C   UNL     1       7.603   5.860  19.390  0.00  0.00    +0.000 A 
ATOM     17  C   UNL     1       6.268   5.486  19.211  0.00  0.00    +0.000 A 
ENDBRANCH   2  12
BRANCH   1  19
ATOM     18  C   UNL     1       4.462   3.281  16.037  0.00  0.00    +0.000 C 
ATOM     19  C   UNL     1       4.030   3.447  17.502  0.00  0.00    +0.000 C 
BRANCH  19  20
ATOM     20  C   UNL     1       2.959   2.358  17.762  0.00  0.00    +0.000 C 
BRANCH  20  21
ATOM     21  C   UNL     1       2.083   2.592  18.941  0.00  0.00    +0.000 A 
ATOM     22  C   UNL     1       0.711   2.711  18.972  0.00  0.00    +0.000 A 
ATOM     23  N   UNL     1       0.391   2.864  20.290  0.00  0.00    +0.000 N 
ATOM     24  C   UNL     1       1.560   2.814  20.997  0.00  0.00    +0.000 A 
ATOM     25  N   UNL     1       2.596   2.640  20.215  0.00  0.00    +0.000 NA
ATOM     26  H   UNL     1      -0.529   2.975  20.675  0.00  0.00    +0.000 HD
ENDBRANCH  20  21
ENDBRANCH  19  20
ENDBRANCH   1  19
TORSDOF 6
ENDMDL
MODEL 5
REMARK VINA RESULT:      -8.2      0.568      1.108
REMARK  Name = 
REMARK  7 active torsions:
REMARK  status: ('A' for Active; 'I' for Inactive)
REMARK    1  A    between atoms: C_1  and  C_2
REMARK    2  A    between atoms: C_2  and  C_3
REMARK    3  A    between atoms: C_2  and  N_9
REMARK    4  A    between atoms: C_3  and  C_4
REMARK    5  A    between atoms: C_10  and  C_11
REMARK    6  A    between atoms: C_10  and  C_17
REMARK    7  A    between atoms: C_23  and  O_24
REMARK                            x       y       z     vdW  Elec       q    Type
REMARK                         _______ _______ _______ _____ _____    ______ ____
ROOT
ATOM      1  N   UNL     1       4.674   6.449  18.602  0.00  0.00    +0.000 NA
ATOM      2  C   UNL     1       3.415   6.247  18.823  0.00  0.00    +0.000 C 
ENDROOT
BRANCH   2   3
ATOM      3  C   UNL     1       2.555   7.491  18.914  0.00  0.00    +0.000 A 
ATOM      4  C   UNL     1       2.447   8.288  17.760  0.00  0.00    +0.000 A 
ATOM      5  C   UNL     1       1.592   9.395  17.730  0.00  0.00    +0.000 A 
ATOM      6  C   UNL     1       0.834   9.710  18.856  0.00  0.00    +0.000 A 
ATOM      7 BR   UNL     1      -0.346  11.186  18.812  0.00  0.00    +0.000 Br
ATOM      8  C   UNL     1       0.940   8.946  20.017  0.00  0.00    +0.000 A 
ATOM      9  C   UNL     1       1.809   7.851  20.048  0.00  0.00    +0.000 A 
BRANCH   9  10
ATOM     10  O   UNL     1       1.922   7.144  21.213  0.00  0.00    +0.000 OA
ATOM     11  H   UNL     1       2.638   7.514  21.752  0.00  0.00    +0.000 HD
ENDBRANCH   9  10
ENDBRANCH   2   3
BRANCH   2  12
ATOM     12  C   UNL     1       2.722   4.920  18.943  0.00  0.00    +0.000 A 
ATOM     13  C   UNL     1       2.864   4.164  20.109  0.00  0.00    +0.000 A 
ATOM     14  C   UNL     1       2.151   2.978  20.293  0.00  0.00    +0.000 A 
ATOM     15  C   UNL     1       1.212   2.581  19.347  0.00  0.00    +0.000 A 
ATOM     16  C   UNL     1       1.023   3.344  18.198  0.00  0.00    +0.000 A 
ATOM     17  C   UNL     1       1.798   4.488  17.976  0.00  0.00    +0.000 A 
ENDBRANCH   2  12
BRANCH   1  19
ATOM     18  C   UNL     1       6.676   5.178  19.324  0.00  0.00    +0.000 C 
ATOM     19  C   UNL     1       5.670   5.447  18.196  0.00  0.00    +0.000 C 
BRANCH  19  20
ATOM     20  C   UNL     1       6.489   6.029  17.016  0.00  0.00    +0.000 C 
BRANCH  20  21
ATOM     21  C   UNL     1       6.418   5.258  15.746  0.00  0.00    +0.000 A 
ATOM     22  C   UNL     1       5.413   4.423  15.313  0.00  0.00    +0.000 A 
ATOM     23  N   UNL     1       5.800   4.004  14.072  0.00  0.00    +0.000 N 
ATOM     24  C   UNL     1       6.997   4.607  13.799  0.00  0.00    +0.000 A 
ATOM     25  N   UNL     1       7.391   5.377  14.783  0.00  0.00    +0.000 NA
ATOM     26  H   UNL     1       5.297   3.384  13.464  0.00  0.00    +0.000 HD
ENDBRANCH  20  21
ENDBRANCH  19  20
ENDBRANCH   1  19
TORSDOF 6
ENDMDL
MODEL 6
REMARK VINA RESULT:      -8.2      2.078      4.982
REMARK  Name = 
REMARK  7 active torsions:
REMARK  status: ('A' for Active; 'I' for Inactive)
REMARK    1  A    between atoms: C_1  and  C_2
REMARK    2  A    between atoms: C_2  and  C_3
REMARK    3  A    between atoms: C_2  and  N_9
REMARK    4  A    between atoms: C_3  and  C_4
REMARK    5  A    between atoms: C_10  and  C_11
REMARK    6  A    between atoms: C_10  and  C_17
REMARK    7  A    between atoms: C_23  and  O_24
REMARK                            x       y       z     vdW  Elec       q    Type
REMARK                         _______ _______ _______ _____ _____    ______ ____
ROOT
ATOM      1  N   UNL     1       3.235   4.968  17.799  0.00  0.00    +0.000 NA
ATOM      2  C   UNL     1       3.831   6.046  18.196  0.00  0.00    +0.000 C 
ENDROOT
BRANCH   2   3
ATOM      3  C   UNL     1       2.922   7.180  18.624  0.00  0.00    +0.000 A 
ATOM      4  C   UNL     1       2.723   8.230  17.710  0.00  0.00    +0.000 A 
ATOM      5  C   UNL     1       1.819   9.262  17.987  0.00  0.00    +0.000 A 
ATOM      6  C   UNL     1       1.104   9.246  19.183  0.00  0.00    +0.000 A 
ATOM      7 BR   UNL     1      -0.141  10.620  19.550  0.00  0.00    +0.000 Br
ATOM      8  C   UNL     1       1.300   8.227  20.113  0.00  0.00    +0.000 A 
ATOM      9  C   UNL     1       2.217   7.207  19.838  0.00  0.00    +0.000 A 
BRANCH   9  10
ATOM     10  O   UNL     1       2.417   6.243  20.786  0.00  0.00    +0.000 OA
ATOM     11  H   UNL     1       1.747   6.323  21.483  0.00  0.00    +0.000 HD
ENDBRANCH   9  10
ENDBRANCH   2   3
BRANCH   2  12
ATOM     12  C   UNL     1       5.311   6.264  18.322  0.00  0.00    +0.000 A 
ATOM     13  C   UNL     1       6.031   5.590  19.311  0.00  0.00    +0.000 A 
ATOM     14  C   UNL     1       7.421   5.689  19.388  0.00  0.00    +0.000 A 
ATOM     15  C   UNL     1       8.120   6.394  18.413  0.00  0.00    +0.000 A 
ATOM     16  C   UNL     1       7.424   7.037  17.393  0.00  0.00    +0.000 A 
ATOM     17  C   UNL     1       6.026   7.005  17.365  0.00  0.00    +0.000 A 
ENDBRANCH   2  12
BRANCH   1  19
ATOM     18  C   UNL     1       4.179   3.409  16.118  0.00  0.00    +0.000 C 
ATOM     19  C   UNL     1       3.846   3.646  17.598  0.00  0.00    +0.000 C 
BRANCH  19  20
ATOM     20  C   UNL     1       2.803   2.567  17.985  0.00  0.00    +0.000 C 
BRANCH  20  21
ATOM     21  C   UNL     1       2.188   2.723  19.329  0.00  0.00    +0.000 A 
ATOM     22  C   UNL     1       0.863   2.929  19.640  0.00  0.00    +0.000 A 
ATOM     23  N   UNL     1       0.810   2.953  21.004  0.00  0.00    +0.000 N 
ATOM     24  C   UNL     1       2.083   2.746  21.460  0.00  0.00    +0.000 A 
ATOM     25  N   UNL     1       2.934   2.592  20.476  0.00  0.00    +0.000 NA
ATOM     26  H   UNL     1      -0.008   3.081  21.571  0.00  0.00    +0.000 HD
ENDBRANCH  20  21
ENDBRANCH  19  20
ENDBRANCH   1  19
TORSDOF 6
ENDMDL
MODEL 7
REMARK VINA RESULT:      -8.2      1.490      2.100
REMARK  Name = 
REMARK  7 active torsions:
REMARK  status: ('A' for Active; 'I' for Inactive)
REMARK    1  A    between atoms: C_1  and  C_2
REMARK    2  A    between atoms: C_2  and  C_3
REMARK    3  A    between atoms: C_2  and  N_9
REMARK    4  A    between atoms: C_3  and  C_4
REMARK    5  A    between atoms: C_10  and  C_11
REMARK    6  A    between atoms: C_10  and  C_17
REMARK    7  A    between atoms: C_23  and  O_24
REMARK                            x       y       z     vdW  Elec       q    Type
REMARK                         _______ _______ _______ _____ _____    ______ ____
ROOT
ATOM      1  N   UNL     1       4.181   6.148  18.376  0.00  0.00    +0.000 NA
ATOM      2  C   UNL     1       2.971   6.152  18.836  0.00  0.00    +0.000 C 
ENDROOT
BRANCH   2   3
ATOM      3  C   UNL     1       2.311   7.512  18.940  0.00  0.00    +0.000 A 
ATOM      4  C   UNL     1       2.196   8.266  17.757  0.00  0.00    +0.000 A 
ATOM      5  C   UNL     1       1.508   9.485  17.748  0.00  0.00    +0.000 A 
ATOM      6  C   UNL     1       0.927   9.955  18.923  0.00  0.00    +0.000 A 
ATOM      7 BR   UNL     1      -0.029  11.586  18.911  0.00  0.00    +0.000 Br
ATOM      8  C   UNL     1       1.046   9.235  20.111  0.00  0.00    +0.000 A 
ATOM      9  C   UNL     1       1.749   8.026  20.119  0.00  0.00    +0.000 A 
BRANCH   9  10
ATOM     10  O   UNL     1       1.883   7.361  21.306  0.00  0.00    +0.000 OA
ATOM     11  H   UNL     1       1.589   7.930  22.035  0.00  0.00    +0.000 HD
ENDBRANCH   9  10
ENDBRANCH   2   3
BRANCH   2  12
ATOM     12  C   UNL     1       2.150   4.956  19.222  0.00  0.00    +0.000 A 
ATOM     13  C   UNL     1       1.524   4.193  18.234  0.00  0.00    +0.000 A 
ATOM     14  C   UNL     1       0.842   3.017  18.551  0.00  0.00    +0.000 A 
ATOM     15  C   UNL     1       0.857   2.539  19.857  0.00  0.00    +0.000 A 
ATOM     16  C   UNL     1       1.513   3.262  20.851  0.00  0.00    +0.000 A 
ATOM     17  C   UNL     1       2.126   4.482  20.546  0.00  0.00    +0.000 A 
ENDBRANCH   2  12
BRANCH   1  19
ATOM     18  C   UNL     1       5.608   4.252  19.091  0.00  0.00    +0.000 C 
ATOM     19  C   UNL     1       4.944   4.980  17.913  0.00  0.00    +0.000 C 
BRANCH  19  20
ATOM     20  C   UNL     1       6.099   5.482  17.009  0.00  0.00    +0.000 C 
BRANCH  20  21
ATOM     21  C   UNL     1       6.985   6.511  17.616  0.00  0.00    +0.000 A 
ATOM     22  C   UNL     1       7.850   6.369  18.677  0.00  0.00    +0.000 A 
ATOM     23  N   UNL     1       8.464   7.582  18.808  0.00  0.00    +0.000 N 
ATOM     24  C   UNL     1       7.968   8.392  17.824  0.00  0.00    +0.000 A 
ATOM     25  N   UNL     1       7.084   7.773  17.082  0.00  0.00    +0.000 NA
ATOM     26  H   UNL     1       9.160   7.832  19.486  0.00  0.00    +0.000 HD
ENDBRANCH  20  21
ENDBRANCH  19  20
ENDBRANCH   1  19
TORSDOF 6
ENDMDL
MODEL 8
REMARK VINA RESULT:      -8.1      0.824      1.113
REMARK  Name = 
REMARK  7 active torsions:
REMARK  status: ('A' for Active; 'I' for Inactive)
REMARK    1  A    between atoms: C_1  and  C_2
REMARK    2  A    between atoms: C_2  and  C_3
REMARK    3  A    between atoms: C_2  and  N_9
REMARK    4  A    between atoms: C_3  and  C_4
REMARK    5  A    between atoms: C_10  and  C_11
REMARK    6  A    between atoms: C_10  and  C_17
REMARK    7  A    between atoms: C_23  and  O_24
REMARK                            x       y       z     vdW  Elec       q    Type
REMARK                         _______ _______ _______ _____ _____    ______ ____
ROOT
ATOM      1  N   UNL     1       4.296   6.073  19.084  0.00  0.00    +0.000 NA
ATOM      2  C   UNL     1       3.055   6.087  19.451  0.00  0.00    +0.000 C 
ENDROOT
BRANCH   2   3
ATOM      3  C   UNL     1       2.338   7.412  19.297  0.00  0.00    +0.000 A 
ATOM      4  C   UNL     1       2.269   7.964  18.004  0.00  0.00    +0.000 A 
ATOM      5  C   UNL     1       1.537   9.131  17.760  0.00  0.00    +0.000 A 
ATOM      6  C   UNL     1       0.864   9.753  18.810  0.00  0.00    +0.000 A 
ATOM      7 BR   UNL     1      -0.152  11.313  18.481  0.00  0.00    +0.000 Br
ATOM      8  C   UNL     1       0.935   9.236  20.102  0.00  0.00    +0.000 A 
ATOM      9  C   UNL     1       1.681   8.078  20.344  0.00  0.00    +0.000 A 
BRANCH   9  10
ATOM     10  O   UNL     1       1.765   7.617  21.628  0.00  0.00    +0.000 OA
ATOM     11  H   UNL     1       0.878   7.411  21.962  0.00  0.00    +0.000 HD
ENDBRANCH   9  10
ENDBRANCH   2   3
BRANCH   2  12
ATOM     12  C   UNL     1       2.252   4.923  19.957  0.00  0.00    +0.000 A 
ATOM     13  C   UNL     1       1.394   4.241  19.092  0.00  0.00    +0.000 A 
ATOM     14  C   UNL     1       0.715   3.093  19.503  0.00  0.00    +0.000 A 
ATOM     15  C   UNL     1       0.959   2.558  20.764  0.00  0.00    +0.000 A 
ATOM     16  C   UNL     1       1.845   3.199  21.627  0.00  0.00    +0.000 A 
ATOM     17  C   UNL     1       2.461   4.394  21.243  0.00  0.00    +0.000 A 
ENDBRANCH   2  12
BRANCH   1  19
ATOM     18  C   UNL     1       6.607   5.282  18.665  0.00  0.00    +0.000 C 
ATOM     19  C   UNL     1       5.136   4.888  18.862  0.00  0.00    +0.000 C 
BRANCH  19  20
ATOM     20  C   UNL     1       4.688   4.216  17.539  0.00  0.00    +0.000 C 
BRANCH  20  21
ATOM     21  C   UNL     1       5.420   4.650  16.320  0.00  0.00    +0.000 A 
ATOM     22  C   UNL     1       5.412   5.889  15.719  0.00  0.00    +0.000 A 
ATOM     23  N   UNL     1       6.280   5.788  14.670  0.00  0.00    +0.000 N 
ATOM     24  C   UNL     1       6.788   4.517  14.688  0.00  0.00    +0.000 A 
ATOM     25  N   UNL     1       6.298   3.811  15.677  0.00  0.00    +0.000 NA
ATOM     26  H   UNL     1       6.519   6.511  14.016  0.00  0.00    +0.000 HD
ENDBRANCH  20  21
ENDBRANCH  19  20
ENDBRANCH   1  19
TORSDOF 6
ENDMDL
MODEL 9
REMARK VINA RESULT:      -8.1      1.237      1.754
REMARK  Name = 
REMARK  7 active torsions:
REMARK  status: ('A' for Active; 'I' for Inactive)
REMARK    1  A    between atoms: C_1  and  C_2
REMARK    2  A    between atoms: C_2  and  C_3
REMARK    3  A    between atoms: C_2  and  N_9
REMARK    4  A    between atoms: C_3  and  C_4
REMARK    5  A    between atoms: C_10  and  C_11
REMARK    6  A    between atoms: C_10  and  C_17
REMARK    7  A    between atoms: C_23  and  O_24
REMARK                            x       y       z     vdW  Elec       q    Type
REMARK                         _______ _______ _______ _____ _____    ______ ____
ROOT
ATOM      1  N   UNL     1       4.260   6.134  19.049  0.00  0.00    +0.000 NA
ATOM      2  C   UNL     1       3.032   6.123  19.458  0.00  0.00    +0.000 C 
ENDROOT
BRANCH   2   3
ATOM      3  C   UNL     1       2.281   7.431  19.321  0.00  0.00    +0.000 A 
ATOM      4  C   UNL     1       1.557   7.882  20.440  0.00  0.00    +0.000 A 
ATOM      5  C   UNL     1       0.923   9.129  20.429  0.00  0.00    +0.000 A 
ATOM      6  C   UNL     1       1.012   9.937  19.297  0.00  0.00    +0.000 A 
ATOM      7 BR   UNL     1       0.183  11.635  19.287  0.00  0.00    +0.000 Br
ATOM      8  C   UNL     1       1.707   9.502  18.170  0.00  0.00    +0.000 A 
ATOM      9  C   UNL     1       2.325   8.248  18.179  0.00  0.00    +0.000 A 
BRANCH   9  10
ATOM     10  O   UNL     1       2.965   7.831  17.045  0.00  0.00    +0.000 OA
ATOM     11  H   UNL     1       2.896   6.866  16.965  0.00  0.00    +0.000 HD
ENDBRANCH   9  10
ENDBRANCH   2   3
BRANCH   2  12
ATOM     12  C   UNL     1       2.272   4.945  19.998  0.00  0.00    +0.000 A 
ATOM     13  C   UNL     1       1.445   4.204  19.151  0.00  0.00    +0.000 A 
ATOM     14  C   UNL     1       0.809   3.044  19.596  0.00  0.00    +0.000 A 
ATOM     15  C   UNL     1       1.068   2.558  20.873  0.00  0.00    +0.000 A 
ATOM     16  C   UNL     1       1.925   3.259  21.718  0.00  0.00    +0.000 A 
ATOM     17  C   UNL     1       2.497   4.464  21.299  0.00  0.00    +0.000 A 
ENDBRANCH   2  12
BRANCH   1  19
ATOM     18  C   UNL     1       6.578   5.389  18.582  0.00  0.00    +0.000 C 
ATOM     19  C   UNL     1       5.119   4.966  18.806  0.00  0.00    +0.000 C 
BRANCH  19  20
ATOM     20  C   UNL     1       4.657   4.291  17.490  0.00  0.00    +0.000 C 
BRANCH  20  21
ATOM     21  C   UNL     1       5.421   4.672  16.273  0.00  0.00    +0.000 A 
ATOM     22  C   UNL     1       5.486   5.903  15.660  0.00  0.00    +0.000 A 
ATOM     23  N   UNL     1       6.354   5.745  14.619  0.00  0.00    +0.000 N 
ATOM     24  C   UNL     1       6.791   4.448  14.652  0.00  0.00    +0.000 A 
ATOM     25  N   UNL     1       6.255   3.780  15.644  0.00  0.00    +0.000 NA
ATOM     26  H   UNL     1       6.637   6.447  13.960  0.00  0.00    +0.000 HD
ENDBRANCH  20  21
ENDBRANCH  19  20
ENDBRANCH   1  19
TORSDOF 6
ENDMDL
