MODEL 1
REMARK VINA RESULT:      -6.5      0.000      0.000
REMARK  Name = 
REMARK  11 active torsions:
REMARK  status: ('A' for Active; 'I' for Inactive)
REMARK    1  A    between atoms: C_1  and  C_2
REMARK    2  A    between atoms: C_2  and  C_3
REMARK    3  A    between atoms: C_3  and  C_5
REMARK    4  A    between atoms: C_7  and  O_8
REMARK    5  A    between atoms: O_8  and  C_9
REMARK    6  A    between atoms: C_10  and  O_11
REMARK    7  A    between atoms: O_11  and  C_12
REMARK    8  A    between atoms: C_12  and  C_13
REMARK    9  A    between atoms: C_13  and  O_15
REMARK   10  A    between atoms: C_16  and  O_17
REMARK   11  A    between atoms: O_17  and  C_18
REMARK                            x       y       z     vdW  Elec       q    Type
REMARK                         _______ _______ _______ _____ _____    ______ ____
ROOT
ATOM      1  C   UNL     1       4.984   5.085  16.449  0.00  0.00    +0.000 A 
ATOM      2  C   UNL     1       4.329   3.896  16.771  0.00  0.00    +0.000 A 
ATOM      3  C   UNL     1       3.263   3.894  17.670  0.00  0.00    +0.000 A 
ATOM      4  C   UNL     1       2.887   5.097  18.311  0.00  0.00    +0.000 A 
ATOM      5  C   UNL     1       3.536   6.307  17.969  0.00  0.00    +0.000 A 
ATOM      6  C   UNL     1       4.591   6.285  17.045  0.00  0.00    +0.000 A 
ENDROOT
BRANCH   1   7
ATOM      7  C   UNL     1       6.083   5.015  15.449  0.00  0.00    +0.000 C 
ATOM      8  O   UNL     1       7.130   5.620  15.671  0.00  0.00    +0.000 OA
BRANCH   7  10
ATOM      9  C   UNL     1       6.959   4.447  13.173  0.00  0.00    +0.000 C 
ATOM     10  C   UNL     1       5.869   4.184  14.198  0.00  0.00    +0.000 C 
ENDBRANCH   7  10
ENDBRANCH   1   7
BRANCH   3  11
ATOM     11  O   UNL     1       2.589   2.748  18.021  0.00  0.00    +0.000 OA
ATOM     12  C   UNL     1       3.396   1.652  18.460  0.00  0.00    +0.000 C 
ENDBRANCH   3  11
BRANCH   5  13
ATOM     13  O   UNL     1       3.069   7.467  18.533  0.00  0.00    +0.000 OA
ATOM     14  C   UNL     1       2.399   8.403  17.694  0.00  0.00    +0.000 C 
ENDBRANCH   5  13
BRANCH   4  15
ATOM     15  O   UNL     1       1.848   4.972  19.209  0.00  0.00    +0.000 OA
BRANCH  15  16
ATOM     16  C   UNL     1       2.192   4.871  20.596  0.00  0.00    +0.000 C 
BRANCH  16  17
ATOM     17  C   UNL     1       1.635   3.569  21.155  0.00  0.00    +0.000 C 
ATOM     18  O   UNL     1       2.038   3.037  22.178  0.00  0.00    +0.000 OA
BRANCH  17  19
ATOM     19  O   UNL     1       0.650   3.040  20.395  0.00  0.00    +0.000 OA
ATOM     20  H   UNL     1       1.009   2.781  19.516  0.00  0.00    +0.000 HD
ENDBRANCH  17  19
ENDBRANCH  16  17
ENDBRANCH  15  16
ENDBRANCH   4  15
TORSDOF 8
ENDMDL
MODEL 2
REMARK VINA RESULT:      -6.5      0.576      3.007
REMARK  Name = 
REMARK  11 active torsions:
REMARK  status: ('A' for Active; 'I' for Inactive)
REMARK    1  A    between atoms: C_1  and  C_2
REMARK    2  A    between atoms: C_2  and  C_3
REMARK    3  A    between atoms: C_3  and  C_5
REMARK    4  A    between atoms: C_7  and  O_8
REMARK    5  A    between atoms: O_8  and  C_9
REMARK    6  A    between atoms: C_10  and  O_11
REMARK    7  A    between atoms: O_11  and  C_12
REMARK    8  A    between atoms: C_12  and  C_13
REMARK    9  A    between atoms: C_13  and  O_15
REMARK   10  A    between atoms: C_16  and  O_17
REMARK   11  A    between atoms: O_17  and  C_18
REMARK                            x       y       z     vdW  Elec       q    Type
REMARK                         _______ _______ _______ _____ _____    ______ ____
ROOT
ATOM      1  C   UNL     1       4.647   5.011  16.546  0.00  0.00    +0.000 A 
ATOM      2  C   UNL     1       4.208   6.170  17.187  0.00  0.00    +0.000 A 
ATOM      3  C   UNL     1       3.245   6.102  18.194  0.00  0.00    +0.000 A 
ATOM      4  C   UNL     1       2.661   4.857  18.520  0.00  0.00    +0.000 A 
ATOM      5  C   UNL     1       3.121   3.679  17.887  0.00  0.00    +0.000 A 
ATOM      6  C   UNL     1       4.106   3.771  16.892  0.00  0.00    +0.000 A 
ENDROOT
BRANCH   1   7
ATOM      7  C   UNL     1       5.707   5.157  15.513  0.00  0.00    +0.000 C 
ATOM      8  O   UNL     1       6.083   6.284  15.199  0.00  0.00    +0.000 OA
BRANCH   7  10
ATOM      9  C   UNL     1       5.945   3.801  13.421  0.00  0.00    +0.000 C 
ATOM     10  C   UNL     1       6.292   3.900  14.897  0.00  0.00    +0.000 C 
ENDBRANCH   7  10
ENDBRANCH   1   7
BRANCH   3  11
ATOM     11  O   UNL     1       2.779   7.216  18.852  0.00  0.00    +0.000 OA
ATOM     12  C   UNL     1       2.426   8.332  18.030  0.00  0.00    +0.000 C 
ENDBRANCH   3  11
BRANCH   5  13
ATOM     13  O   UNL     1       2.605   2.480  18.309  0.00  0.00    +0.000 OA
ATOM     14  C   UNL     1       3.508   1.408  18.562  0.00  0.00    +0.000 C 
ENDBRANCH   5  13
BRANCH   4  15
ATOM     15  O   UNL     1       1.693   4.913  19.501  0.00  0.00    +0.000 OA
BRANCH  15  16
ATOM     16  C   UNL     1       2.098   4.594  20.837  0.00  0.00    +0.000 C 
BRANCH  16  17
ATOM     17  C   UNL     1       1.438   3.288  21.259  0.00  0.00    +0.000 C 
ATOM     18  O   UNL     1       1.759   2.649  22.251  0.00  0.00    +0.000 OA
BRANCH  17  19
ATOM     19  O   UNL     1       0.462   2.886  20.416  0.00  0.00    +0.000 OA
ATOM     20  H   UNL     1       0.166   3.644  19.862  0.00  0.00    +0.000 HD
ENDBRANCH  17  19
ENDBRANCH  16  17
ENDBRANCH  15  16
ENDBRANCH   4  15
TORSDOF 8
ENDMDL
MODEL 3
REMARK VINA RESULT:      -6.5      1.655      3.522
REMARK  Name = 
REMARK  11 active torsions:
REMARK  status: ('A' for Active; 'I' for Inactive)
REMARK    1  A    between atoms: C_1  and  C_2
REMARK    2  A    between atoms: C_2  and  C_3
REMARK    3  A    between atoms: C_3  and  C_5
REMARK    4  A    between atoms: C_7  and  O_8
REMARK    5  A    between atoms: O_8  and  C_9
REMARK    6  A    between atoms: C_10  and  O_11
REMARK    7  A    between atoms: O_11  and  C_12
REMARK    8  A    between atoms: C_12  and  C_13
REMARK    9  A    between atoms: C_13  and  O_15
REMARK   10  A    between atoms: C_16  and  O_17
REMARK   11  A    between atoms: O_17  and  C_18
REMARK                            x       y       z     vdW  Elec       q    Type
REMARK                         _______ _______ _______ _____ _____    ______ ____
ROOT
ATOM      1  C   UNL     1       5.656   5.725  17.684  0.00  0.00    +0.000 A 
ATOM      2  C   UNL     1       4.610   6.645  17.765  0.00  0.00    +0.000 A 
ATOM      3  C   UNL     1       3.377   6.271  18.300  0.00  0.00    +0.000 A 
ATOM      4  C   UNL     1       3.165   4.932  18.698  0.00  0.00    +0.000 A 
ATOM      5  C   UNL     1       4.231   4.004  18.636  0.00  0.00    +0.000 A 
ATOM      6  C   UNL     1       5.468   4.410  18.115  0.00  0.00    +0.000 A 
ENDROOT
BRANCH   1   7
ATOM      7  C   UNL     1       6.955   6.208  17.143  0.00  0.00    +0.000 C 
ATOM      8  O   UNL     1       7.247   5.954  15.977  0.00  0.00    +0.000 OA
BRANCH   7  10
ATOM      9  C   UNL     1       7.853   8.483  17.681  0.00  0.00    +0.000 C 
ATOM     10  C   UNL     1       7.862   7.011  18.056  0.00  0.00    +0.000 C 
ENDBRANCH   7  10
ENDBRANCH   1   7
BRANCH   3  11
ATOM     11  O   UNL     1       2.316   7.141  18.399  0.00  0.00    +0.000 OA
ATOM     12  C   UNL     1       2.487   8.416  17.775  0.00  0.00    +0.000 C 
ENDBRANCH   3  11
BRANCH   5  13
ATOM     13  O   UNL     1       4.015   2.744  19.133  0.00  0.00    +0.000 OA
ATOM     14  C   UNL     1       3.510   1.748  18.248  0.00  0.00    +0.000 C 
ENDBRANCH   5  13
BRANCH   4  15
ATOM     15  O   UNL     1       1.898   4.665  19.174  0.00  0.00    +0.000 OA
BRANCH  15  16
ATOM     16  C   UNL     1       1.725   4.645  20.595  0.00  0.00    +0.000 C 
BRANCH  16  17
ATOM     17  C   UNL     1       1.239   3.266  21.019  0.00  0.00    +0.000 C 
ATOM     18  O   UNL     1       1.572   2.713  22.057  0.00  0.00    +0.000 OA
BRANCH  17  19
ATOM     19  O   UNL     1       0.406   2.694  20.122  0.00  0.00    +0.000 OA
ATOM     20  H   UNL     1       0.584   1.728  20.069  0.00  0.00    +0.000 HD
ENDBRANCH  17  19
ENDBRANCH  16  17
ENDBRANCH  15  16
ENDBRANCH   4  15
TORSDOF 8
ENDMDL
MODEL 4
REMARK VINA RESULT:      -6.4      2.023      2.885
REMARK  Name = 
REMARK  11 active torsions:
REMARK  status: ('A' for Active; 'I' for Inactive)
REMARK    1  A    between atoms: C_1  and  C_2
REMARK    2  A    between atoms: C_2  and  C_3
REMARK    3  A    between atoms: C_3  and  C_5
REMARK    4  A    between atoms: C_7  and  O_8
REMARK    5  A    between atoms: O_8  and  C_9
REMARK    6  A    between atoms: C_10  and  O_11
REMARK    7  A    between atoms: O_11  and  C_12
REMARK    8  A    between atoms: C_12  and  C_13
REMARK    9  A    between atoms: C_13  and  O_15
REMARK   10  A    between atoms: C_16  and  O_17
REMARK   11  A    between atoms: O_17  and  C_18
REMARK                            x       y       z     vdW  Elec       q    Type
REMARK                         _______ _______ _______ _____ _____    ______ ____
ROOT
ATOM      1  C   UNL     1       5.996   4.459  15.894  0.00  0.00    +0.000 A 
ATOM      2  C   UNL     1       6.705   4.743  17.062  0.00  0.00    +0.000 A 
ATOM      3  C   UNL     1       6.114   4.561  18.311  0.00  0.00    +0.000 A 
ATOM      4  C   UNL     1       4.763   4.151  18.394  0.00  0.00    +0.000 A 
ATOM      5  C   UNL     1       4.051   3.841  17.212  0.00  0.00    +0.000 A 
ATOM      6  C   UNL     1       4.675   4.012  15.967  0.00  0.00    +0.000 A 
ENDROOT
BRANCH   1   7
ATOM      7  C   UNL     1       6.706   4.635  14.599  0.00  0.00    +0.000 C 
ATOM      8  O   UNL     1       7.697   5.361  14.556  0.00  0.00    +0.000 OA
BRANCH   7  10
ATOM      9  C   UNL     1       7.065   4.141  12.171  0.00  0.00    +0.000 C 
ATOM     10  C   UNL     1       6.182   3.896  13.382  0.00  0.00    +0.000 C 
ENDBRANCH   7  10
ENDBRANCH   1   7
BRANCH   3  11
ATOM     11  O   UNL     1       6.770   4.830  19.490  0.00  0.00    +0.000 OA
ATOM     12  C   UNL     1       7.906   5.694  19.394  0.00  0.00    +0.000 C 
ENDBRANCH   3  11
BRANCH   5  13
ATOM     13  O   UNL     1       2.779   3.343  17.341  0.00  0.00    +0.000 OA
ATOM     14  C   UNL     1       1.705   4.267  17.492  0.00  0.00    +0.000 C 
ENDBRANCH   5  13
BRANCH   4  15
ATOM     15  O   UNL     1       4.271   4.042  19.678  0.00  0.00    +0.000 OA
BRANCH  15  16
ATOM     16  C   UNL     1       4.191   2.726  20.237  0.00  0.00    +0.000 C 
BRANCH  16  17
ATOM     17  C   UNL     1       2.847   2.560  20.933  0.00  0.00    +0.000 C 
ATOM     18  O   UNL     1       2.705   2.521  22.146  0.00  0.00    +0.000 OA
BRANCH  17  19
ATOM     19  O   UNL     1       1.812   2.441  20.072  0.00  0.00    +0.000 OA
ATOM     20  H   UNL     1       1.074   3.029  20.353  0.00  0.00    +0.000 HD
ENDBRANCH  17  19
ENDBRANCH  16  17
ENDBRANCH  15  16
ENDBRANCH   4  15
TORSDOF 8
ENDMDL
MODEL 5
REMARK VINA RESULT:      -6.4      1.931      2.463
REMARK  Name = 
REMARK  11 active torsions:
REMARK  status: ('A' for Active; 'I' for Inactive)
REMARK    1  A    between atoms: C_1  and  C_2
REMARK    2  A    between atoms: C_2  and  C_3
REMARK    3  A    between atoms: C_3  and  C_5
REMARK    4  A    between atoms: C_7  and  O_8
REMARK    5  A    between atoms: O_8  and  C_9
REMARK    6  A    between atoms: C_10  and  O_11
REMARK    7  A    between atoms: O_11  and  C_12
REMARK    8  A    between atoms: C_12  and  C_13
REMARK    9  A    between atoms: C_13  and  O_15
REMARK   10  A    between atoms: C_16  and  O_17
REMARK   11  A    between atoms: O_17  and  C_18
REMARK                            x       y       z     vdW  Elec       q    Type
REMARK                         _______ _______ _______ _____ _____    ______ ____
ROOT
ATOM      1  C   UNL     1       5.989   4.478  16.090  0.00  0.00    +0.000 A 
ATOM      2  C   UNL     1       4.684   3.991  16.167  0.00  0.00    +0.000 A 
ATOM      3  C   UNL     1       4.021   3.930  17.392  0.00  0.00    +0.000 A 
ATOM      4  C   UNL     1       4.702   4.301  18.575  0.00  0.00    +0.000 A 
ATOM      5  C   UNL     1       6.017   4.815  18.496  0.00  0.00    +0.000 A 
ATOM      6  C   UNL     1       6.654   4.886  17.248  0.00  0.00    +0.000 A 
ENDROOT
BRANCH   1   7
ATOM      7  C   UNL     1       6.616   4.554  14.743  0.00  0.00    +0.000 C 
ATOM      8  O   UNL     1       7.635   5.227  14.597  0.00  0.00    +0.000 OA
BRANCH   7  10
ATOM      9  C   UNL     1       6.798   3.901  12.333  0.00  0.00    +0.000 C 
ATOM     10  C   UNL     1       5.975   3.784  13.605  0.00  0.00    +0.000 C 
ENDBRANCH   7  10
ENDBRANCH   1   7
BRANCH   3  11
ATOM     11  O   UNL     1       2.736   3.456  17.519  0.00  0.00    +0.000 OA
ATOM     12  C   UNL     1       1.700   4.442  17.532  0.00  0.00    +0.000 C 
ENDBRANCH   3  11
BRANCH   5  13
ATOM     13  O   UNL     1       6.602   5.264  19.653  0.00  0.00    +0.000 OA
ATOM     14  C   UNL     1       7.967   5.667  19.606  0.00  0.00    +0.000 C 
ENDBRANCH   5  13
BRANCH   4  15
ATOM     15  O   UNL     1       3.964   4.163  19.732  0.00  0.00    +0.000 OA
BRANCH  15  16
ATOM     16  C   UNL     1       3.979   2.879  20.367  0.00  0.00    +0.000 C 
BRANCH  16  17
ATOM     17  C   UNL     1       2.634   2.639  21.039  0.00  0.00    +0.000 C 
ATOM     18  O   UNL     1       2.424   2.812  22.230  0.00  0.00    +0.000 OA
BRANCH  17  19
ATOM     19  O   UNL     1       1.684   2.195  20.186  0.00  0.00    +0.000 OA
ATOM     20  H   UNL     1       1.426   1.275  20.423  0.00  0.00    +0.000 HD
ENDBRANCH  17  19
ENDBRANCH  16  17
ENDBRANCH  15  16
ENDBRANCH   4  15
TORSDOF 8
ENDMDL
MODEL 6
REMARK VINA RESULT:      -6.4      0.967      1.157
REMARK  Name = 
REMARK  11 active torsions:
REMARK  status: ('A' for Active; 'I' for Inactive)
REMARK    1  A    between atoms: C_1  and  C_2
REMARK    2  A    between atoms: C_2  and  C_3
REMARK    3  A    between atoms: C_3  and  C_5
REMARK    4  A    between atoms: C_7  and  O_8
REMARK    5  A    between atoms: O_8  and  C_9
REMARK    6  A    between atoms: C_10  and  O_11
REMARK    7  A    between atoms: O_11  and  C_12
REMARK    8  A    between atoms: C_12  and  C_13
REMARK    9  A    between atoms: C_13  and  O_15
REMARK   10  A    between atoms: C_16  and  O_17
REMARK   11  A    between atoms: O_17  and  C_18
REMARK                            x       y       z     vdW  Elec       q    Type
REMARK                         _______ _______ _______ _____ _____    ______ ____
ROOT
ATOM      1  C   UNL     1       4.474   5.428  16.867  0.00  0.00    +0.000 A 
ATOM      2  C   UNL     1       4.049   4.126  17.129  0.00  0.00    +0.000 A 
ATOM      3  C   UNL     1       3.090   3.877  18.110  0.00  0.00    +0.000 A 
ATOM      4  C   UNL     1       2.595   4.946  18.892  0.00  0.00    +0.000 A 
ATOM      5  C   UNL     1       3.009   6.269  18.613  0.00  0.00    +0.000 A 
ATOM      6  C   UNL     1       3.959   6.496  17.606  0.00  0.00    +0.000 A 
ENDROOT
BRANCH   1   7
ATOM      7  C   UNL     1       5.467   5.621  15.776  0.00  0.00    +0.000 C 
ATOM      8  O   UNL     1       5.504   6.699  15.187  0.00  0.00    +0.000 OA
BRANCH   7  10
ATOM      9  C   UNL     1       6.158   3.954  14.040  0.00  0.00    +0.000 C 
ATOM     10  C   UNL     1       6.406   4.477  15.445  0.00  0.00    +0.000 C 
ENDBRANCH   7  10
ENDBRANCH   1   7
BRANCH   3  11
ATOM     11  O   UNL     1       2.640   2.611  18.406  0.00  0.00    +0.000 OA
ATOM     12  C   UNL     1       3.568   1.545  18.179  0.00  0.00    +0.000 C 
ENDBRANCH   3  11
BRANCH   5  13
ATOM     13  O   UNL     1       2.425   7.288  19.323  0.00  0.00    +0.000 OA
ATOM     14  C   UNL     1       1.977   8.437  18.609  0.00  0.00    +0.000 C 
ENDBRANCH   5  13
BRANCH   4  15
ATOM     15  O   UNL     1       1.682   4.579  19.859  0.00  0.00    +0.000 OA
BRANCH  15  16
ATOM     16  C   UNL     1       2.149   4.524  21.211  0.00  0.00    +0.000 C 
BRANCH  16  17
ATOM     17  C   UNL     1       2.166   3.074  21.675  0.00  0.00    +0.000 C 
ATOM     18  O   UNL     1       1.213   2.512  22.195  0.00  0.00    +0.000 OA
BRANCH  17  19
ATOM     19  O   UNL     1       3.353   2.462  21.470  0.00  0.00    +0.000 OA
ATOM     20  H   UNL     1       4.029   2.832  22.082  0.00  0.00    +0.000 HD
ENDBRANCH  17  19
ENDBRANCH  16  17
ENDBRANCH  15  16
ENDBRANCH   4  15
TORSDOF 8
ENDMDL
MODEL 7
REMARK VINA RESULT:      -6.3      1.798      3.076
REMARK  Name = 
REMARK  11 active torsions:
REMARK  status: ('A' for Active; 'I' for Inactive)
REMARK    1  A    between atoms: C_1  and  C_2
REMARK    2  A    between atoms: C_2  and  C_3
REMARK    3  A    between atoms: C_3  and  C_5
REMARK    4  A    between atoms: C_7  and  O_8
REMARK    5  A    between atoms: O_8  and  C_9
REMARK    6  A    between atoms: C_10  and  O_11
REMARK    7  A    between atoms: O_11  and  C_12
REMARK    8  A    between atoms: C_12  and  C_13
REMARK    9  A    between atoms: C_13  and  O_15
REMARK   10  A    between atoms: C_16  and  O_17
REMARK   11  A    between atoms: O_17  and  C_18
REMARK                            x       y       z     vdW  Elec       q    Type
REMARK                         _______ _______ _______ _____ _____    ______ ____
ROOT
ATOM      1  C   UNL     1       5.961   4.466  15.889  0.00  0.00    +0.000 A 
ATOM      2  C   UNL     1       6.664   4.797  17.048  0.00  0.00    +0.000 A 
ATOM      3  C   UNL     1       6.066   4.665  18.301  0.00  0.00    +0.000 A 
ATOM      4  C   UNL     1       4.716   4.258  18.393  0.00  0.00    +0.000 A 
ATOM      5  C   UNL     1       4.010   3.901  17.220  0.00  0.00    +0.000 A 
ATOM      6  C   UNL     1       4.640   4.022  15.973  0.00  0.00    +0.000 A 
ENDROOT
BRANCH   1   7
ATOM      7  C   UNL     1       6.679   4.590  14.592  0.00  0.00    +0.000 C 
ATOM      8  O   UNL     1       7.663   5.324  14.523  0.00  0.00    +0.000 OA
BRANCH   7  10
ATOM      9  C   UNL     1       7.034   4.024  12.179  0.00  0.00    +0.000 C 
ATOM     10  C   UNL     1       6.171   3.791  13.407  0.00  0.00    +0.000 C 
ENDBRANCH   7  10
ENDBRANCH   1   7
BRANCH   3  11
ATOM     11  O   UNL     1       6.717   4.981  19.472  0.00  0.00    +0.000 OA
ATOM     12  C   UNL     1       7.874   5.812  19.344  0.00  0.00    +0.000 C 
ENDBRANCH   3  11
BRANCH   5  13
ATOM     13  O   UNL     1       2.737   3.409  17.362  0.00  0.00    +0.000 OA
ATOM     14  C   UNL     1       2.580   2.047  17.748  0.00  0.00    +0.000 C 
ENDBRANCH   5  13
BRANCH   4  15
ATOM     15  O   UNL     1       4.216   4.201  19.677  0.00  0.00    +0.000 OA
BRANCH  15  16
ATOM     16  C   UNL     1       3.169   5.118  20.012  0.00  0.00    +0.000 C 
BRANCH  16  17
ATOM     17  C   UNL     1       2.045   4.361  20.707  0.00  0.00    +0.000 C 
ATOM     18  O   UNL     1       0.857   4.553  20.492  0.00  0.00    +0.000 OA
BRANCH  17  19
ATOM     19  O   UNL     1       2.489   3.456  21.607  0.00  0.00    +0.000 OA
ATOM     20  H   UNL     1       2.460   3.842  22.511  0.00  0.00    +0.000 HD
ENDBRANCH  17  19
ENDBRANCH  16  17
ENDBRANCH  15  16
ENDBRANCH   4  15
TORSDOF 8
ENDMDL
MODEL 8
REMARK VINA RESULT:      -6.3      1.176      1.550
REMARK  Name = 
REMARK  11 active torsions:
REMARK  status: ('A' for Active; 'I' for Inactive)
REMARK    1  A    between atoms: C_1  and  C_2
REMARK    2  A    between atoms: C_2  and  C_3
REMARK    3  A    between atoms: C_3  and  C_5
REMARK    4  A    between atoms: C_7  and  O_8
REMARK    5  A    between atoms: O_8  and  C_9
REMARK    6  A    between atoms: C_10  and  O_11
REMARK    7  A    between atoms: O_11  and  C_12
REMARK    8  A    between atoms: C_12  and  C_13
REMARK    9  A    between atoms: C_13  and  O_15
REMARK   10  A    between atoms: C_16  and  O_17
REMARK   11  A    between atoms: O_17  and  C_18
REMARK                            x       y       z     vdW  Elec       q    Type
REMARK                         _______ _______ _______ _____ _____    ______ ____
ROOT
ATOM      1  C   UNL     1       4.703   5.655  16.928  0.00  0.00    +0.000 A 
ATOM      2  C   UNL     1       4.212   4.358  17.084  0.00  0.00    +0.000 A 
ATOM      3  C   UNL     1       3.066   4.121  17.842  0.00  0.00    +0.000 A 
ATOM      4  C   UNL     1       2.435   5.194  18.513  0.00  0.00    +0.000 A 
ATOM      5  C   UNL     1       2.919   6.512  18.337  0.00  0.00    +0.000 A 
ATOM      6  C   UNL     1       4.062   6.727  17.552  0.00  0.00    +0.000 A 
ENDROOT
BRANCH   1   7
ATOM      7  C   UNL     1       5.904   5.836  16.070  0.00  0.00    +0.000 C 
ATOM      8  O   UNL     1       5.754   5.998  14.861  0.00  0.00    +0.000 OA
BRANCH   7  10
ATOM      9  C   UNL     1       7.556   7.154  17.414  0.00  0.00    +0.000 C 
ATOM     10  C   UNL     1       7.270   5.828  16.730  0.00  0.00    +0.000 C 
ENDBRANCH   7  10
ENDBRANCH   1   7
BRANCH   3  11
ATOM     11  O   UNL     1       2.545   2.861  18.027  0.00  0.00    +0.000 OA
ATOM     12  C   UNL     1       3.486   1.834  18.354  0.00  0.00    +0.000 C 
ENDBRANCH   3  11
BRANCH   5  13
ATOM     13  O   UNL     1       2.215   7.536  18.918  0.00  0.00    +0.000 OA
ATOM     14  C   UNL     1       2.000   8.722  18.158  0.00  0.00    +0.000 C 
ENDBRANCH   5  13
BRANCH   4  15
ATOM     15  O   UNL     1       1.335   4.838  19.264  0.00  0.00    +0.000 OA
BRANCH  15  16
ATOM     16  C   UNL     1       1.496   4.814  20.687  0.00  0.00    +0.000 C 
BRANCH  16  17
ATOM     17  C   UNL     1       1.445   3.372  21.171  0.00  0.00    +0.000 C 
ATOM     18  O   UNL     1       2.061   2.953  22.140  0.00  0.00    +0.000 OA
BRANCH  17  19
ATOM     19  O   UNL     1       0.656   2.582  20.409  0.00  0.00    +0.000 OA
ATOM     20  H   UNL     1       0.337   1.817  20.940  0.00  0.00    +0.000 HD
ENDBRANCH  17  19
ENDBRANCH  16  17
ENDBRANCH  15  16
ENDBRANCH   4  15
TORSDOF 8
ENDMDL
MODEL 9
REMARK VINA RESULT:      -6.3      1.845      2.402
REMARK  Name = 
REMARK  11 active torsions:
REMARK  status: ('A' for Active; 'I' for Inactive)
REMARK    1  A    between atoms: C_1  and  C_2
REMARK    2  A    between atoms: C_2  and  C_3
REMARK    3  A    between atoms: C_3  and  C_5
REMARK    4  A    between atoms: C_7  and  O_8
REMARK    5  A    between atoms: O_8  and  C_9
REMARK    6  A    between atoms: C_10  and  O_11
REMARK    7  A    between atoms: O_11  and  C_12
REMARK    8  A    between atoms: C_12  and  C_13
REMARK    9  A    between atoms: C_13  and  O_15
REMARK   10  A    between atoms: C_16  and  O_17
REMARK   11  A    between atoms: O_17  and  C_18
REMARK                            x       y       z     vdW  Elec       q    Type
REMARK                         _______ _______ _______ _____ _____    ______ ____
ROOT
ATOM      1  C   UNL     1       6.011   4.431  16.079  0.00  0.00    +0.000 A 
ATOM      2  C   UNL     1       4.732   3.880  16.159  0.00  0.00    +0.000 A 
ATOM      3  C   UNL     1       4.097   3.742  17.393  0.00  0.00    +0.000 A 
ATOM      4  C   UNL     1       4.781   4.099  18.577  0.00  0.00    +0.000 A 
ATOM      5  C   UNL     1       6.070   4.678  18.494  0.00  0.00    +0.000 A 
ATOM      6  C   UNL     1       6.679   4.826  17.240  0.00  0.00    +0.000 A 
ENDROOT
BRANCH   1   7
ATOM      7  C   UNL     1       6.608   4.587  14.725  0.00  0.00    +0.000 C 
ATOM      8  O   UNL     1       7.588   5.315  14.586  0.00  0.00    +0.000 OA
BRANCH   7  10
ATOM      9  C   UNL     1       6.871   3.881  12.337  0.00  0.00    +0.000 C 
ATOM     10  C   UNL     1       5.985   3.826  13.570  0.00  0.00    +0.000 C 
ENDBRANCH   7  10
ENDBRANCH   1   7
BRANCH   3  11
ATOM     11  O   UNL     1       2.838   3.203  17.524  0.00  0.00    +0.000 OA
ATOM     12  C   UNL     1       2.780   1.818  17.880  0.00  0.00    +0.000 C 
ENDBRANCH   3  11
BRANCH   5  13
ATOM     13  O   UNL     1       6.655   5.110  19.658  0.00  0.00    +0.000 OA
ATOM     14  C   UNL     1       7.926   5.747  19.577  0.00  0.00    +0.000 C 
ENDBRANCH   5  13
BRANCH   4  15
ATOM     15  O   UNL     1       4.074   3.883  19.741  0.00  0.00    +0.000 OA
BRANCH  15  16
ATOM     16  C   UNL     1       3.145   4.898  20.139  0.00  0.00    +0.000 C 
BRANCH  16  17
ATOM     17  C   UNL     1       1.948   4.243  20.814  0.00  0.00    +0.000 C 
ATOM     18  O   UNL     1       0.820   4.231  20.345  0.00  0.00    +0.000 OA
BRANCH  17  19
ATOM     19  O   UNL     1       2.250   3.681  22.005  0.00  0.00    +0.000 OA
ATOM     20  H   UNL     1       3.208   3.797  22.197  0.00  0.00    +0.000 HD
ENDBRANCH  17  19
ENDBRANCH  16  17
ENDBRANCH  15  16
ENDBRANCH   4  15
TORSDOF 8
ENDMDL
