MODEL 1
REMARK VINA RESULT:      -8.6      0.000      0.000
REMARK  Name = 
REMARK  10 active torsions:
REMARK  status: ('A' for Active; 'I' for Inactive)
REMARK    1  A    between atoms: C_1  and  C_2
REMARK    2  A    between atoms: C_2  and  C_3
REMARK    3  A    between atoms: C_2  and  C_4
REMARK    4  A    between atoms: C_8  and  N_9
REMARK    5  A    between atoms: N_9  and  C_10
REMARK    6  A    between atoms: C_13  and  C_14
REMARK    7  A    between atoms: N_16  and  C_17
REMARK    8  A    between atoms: N_16  and  C_18
REMARK    9  A    between atoms: N_24  and  C_25
REMARK   10  A    between atoms: C_30  and  C_31
REMARK                            x       y       z     vdW  Elec       q    Type
REMARK                         _______ _______ _______ _____ _____    ______ ____
ROOT
ATOM      1  C   UNL     1      -2.342  11.170  17.538  0.00  0.00    +0.000 A 
ATOM      2  N   UNL     1      -3.091  11.777  18.474  0.00  0.00    +0.000 NA
ATOM      3  C   UNL     1      -2.556  11.901  19.704  0.00  0.00    +0.000 A 
ATOM      4  C   UNL     1      -1.274  11.462  20.006  0.00  0.00    +0.000 A 
ATOM      5  C   UNL     1      -0.581  10.827  18.977  0.00  0.00    +0.000 A 
ATOM      6  N   UNL     1      -1.116  10.668  17.757  0.00  0.00    +0.000 NA
ATOM      7  C   UNL     1      -0.718  11.665  21.388  0.00  0.00    +0.000 C 
ATOM      8  C   UNL     1      -0.483  13.141  21.719  0.00  0.00    +0.000 C 
ATOM      9  N   UNL     1      -1.694  13.887  22.074  0.00  0.00    +0.000 N 
ATOM     10  C   UNL     1      -2.798  13.973  21.090  0.00  0.00    +0.000 C 
ATOM     11  C   UNL     1      -3.398  12.612  20.736  0.00  0.00    +0.000 C 
ENDROOT
BRANCH   9  12
ATOM     12  C   UNL     1      -1.882  14.514  23.291  0.00  0.00    +0.000 A 
ATOM     13  N   UNL     1      -1.080  15.594  23.499  0.00  0.00    +0.000 NA
ATOM     14  C   UNL     1      -1.185  16.330  24.627  0.00  0.00    +0.000 A 
ATOM     15  C   UNL     1      -2.099  16.072  25.616  0.00  0.00    +0.000 A 
ATOM     16  C   UNL     1      -2.912  14.969  25.437  0.00  0.00    +0.000 A 
ATOM     17  C   UNL     1      -2.793  14.146  24.288  0.00  0.00    +0.000 A 
BRANCH  17  18
ATOM     18  C   UNL     1      -3.665  12.924  24.301  0.00  0.00    +0.000 C 
ATOM     19  F   UNL     1      -4.793  12.956  23.542  0.00  0.00    +0.000 F 
ATOM     20  F   UNL     1      -2.999  11.812  23.866  0.00  0.00    +0.000 F 
ATOM     21  F   UNL     1      -4.079  12.609  25.568  0.00  0.00    +0.000 F 
ENDBRANCH  17  18
ENDBRANCH   9  12
BRANCH   1  23
ATOM     22  C   UNL     1      -2.580   9.781  15.475  0.00  0.00    +0.000 C 
ATOM     23  C   UNL     1      -2.893  11.125  16.134  0.00  0.00    +0.000 C 
ATOM     24  C   UNL     1      -4.394  11.407  16.122  0.00  0.00    +0.000 C 
ENDBRANCH   1  23
BRANCH   5  25
ATOM     25  N   UNL     1       0.755  10.419  19.176  0.00  0.00    +0.000 N 
ATOM     26  H   UNL     1       1.384  11.098  18.759  0.00  0.00    +0.000 HD
BRANCH  25  27
ATOM     27  C   UNL     1       1.262   9.103  19.143  0.00  0.00    +0.000 A 
ATOM     28  C   UNL     1       1.898   8.625  17.997  0.00  0.00    +0.000 A 
ATOM     29  C   UNL     1       2.595   7.410  18.020  0.00  0.00    +0.000 A 
ATOM     30  C   UNL     1       2.716   6.653  19.200  0.00  0.00    +0.000 A 
ATOM     31  C   UNL     1       2.057   7.119  20.339  0.00  0.00    +0.000 A 
ATOM     32  C   UNL     1       1.301   8.307  20.295  0.00  0.00    +0.000 A 
BRANCH  30  33
ATOM     33  C   UNL     1       3.701   5.524  19.158  0.00  0.00    +0.000 C 
ATOM     34  O   UNL     1       4.831   5.834  18.760  0.00  0.00    +0.000 OA
ATOM     35  N   UNL     1       3.430   4.209  19.545  0.00  0.00    +0.000 N 
ATOM     36  C   UNL     1       2.147   3.604  19.864  0.00  0.00    +0.000 C 
ATOM     37  C   UNL     1       4.528   3.249  19.444  0.00  0.00    +0.000 C 
ENDBRANCH  30  33
ENDBRANCH  25  27
ENDBRANCH   5  25
TORSDOF 6
ENDMDL
MODEL 2
REMARK VINA RESULT:      -8.4      0.891      1.406
REMARK  Name = 
REMARK  10 active torsions:
REMARK  status: ('A' for Active; 'I' for Inactive)
REMARK    1  A    between atoms: C_1  and  C_2
REMARK    2  A    between atoms: C_2  and  C_3
REMARK    3  A    between atoms: C_2  and  C_4
REMARK    4  A    between atoms: C_8  and  N_9
REMARK    5  A    between atoms: N_9  and  C_10
REMARK    6  A    between atoms: C_13  and  C_14
REMARK    7  A    between atoms: N_16  and  C_17
REMARK    8  A    between atoms: N_16  and  C_18
REMARK    9  A    between atoms: N_24  and  C_25
REMARK   10  A    between atoms: C_30  and  C_31
REMARK                            x       y       z     vdW  Elec       q    Type
REMARK                         _______ _______ _______ _____ _____    ______ ____
ROOT
ATOM      1  C   UNL     1      -2.228  11.087  17.547  0.00  0.00    +0.000 A 
ATOM      2  N   UNL     1      -3.061  11.686  18.414  0.00  0.00    +0.000 NA
ATOM      3  C   UNL     1      -2.588  11.930  19.652  0.00  0.00    +0.000 A 
ATOM      4  C   UNL     1      -1.288  11.620  20.027  0.00  0.00    +0.000 A 
ATOM      5  C   UNL     1      -0.505  10.984  19.066  0.00  0.00    +0.000 A 
ATOM      6  N   UNL     1      -0.975  10.705  17.841  0.00  0.00    +0.000 NA
ATOM      7  C   UNL     1      -0.807  11.954  21.411  0.00  0.00    +0.000 C 
ATOM      8  C   UNL     1      -0.707  13.463  21.654  0.00  0.00    +0.000 C 
ATOM      9  N   UNL     1      -1.989  14.124  21.917  0.00  0.00    +0.000 N 
ATOM     10  C   UNL     1      -3.054  14.056  20.891  0.00  0.00    +0.000 C 
ATOM     11  C   UNL     1      -3.527  12.630  20.605  0.00  0.00    +0.000 C 
ENDROOT
BRANCH   9  12
ATOM     12  C   UNL     1      -2.276  14.808  23.083  0.00  0.00    +0.000 A 
ATOM     13  N   UNL     1      -1.672  16.023  23.188  0.00  0.00    +0.000 NA
ATOM     14  C   UNL     1      -1.898  16.820  24.256  0.00  0.00    +0.000 A 
ATOM     15  C   UNL     1      -2.748  16.490  25.280  0.00  0.00    +0.000 A 
ATOM     16  C   UNL     1      -3.359  15.252  25.205  0.00  0.00    +0.000 A 
ATOM     17  C   UNL     1      -3.105  14.371  24.124  0.00  0.00    +0.000 A 
BRANCH  17  18
ATOM     18  C   UNL     1      -3.751  13.022  24.251  0.00  0.00    +0.000 C 
ATOM     19  F   UNL     1      -3.023  11.943  23.854  0.00  0.00    +0.000 F 
ATOM     20  F   UNL     1      -4.096  12.736  25.543  0.00  0.00    +0.000 F 
ATOM     21  F   UNL     1      -4.927  12.955  23.553  0.00  0.00    +0.000 F 
ENDBRANCH  17  18
ENDBRANCH   9  12
BRANCH   1  23
ATOM     22  C   UNL     1      -2.390   9.505  15.620  0.00  0.00    +0.000 C 
ATOM     23  C   UNL     1      -2.716  10.910  16.130  0.00  0.00    +0.000 C 
ATOM     24  C   UNL     1      -4.211  11.201  16.022  0.00  0.00    +0.000 C 
ENDBRANCH   1  23
BRANCH   5  25
ATOM     25  N   UNL     1       0.851  10.702  19.338  0.00  0.00    +0.000 N 
ATOM     26  H   UNL     1       1.417  11.518  19.128  0.00  0.00    +0.000 HD
BRANCH  25  27
ATOM     27  C   UNL     1       1.533   9.486  19.122  0.00  0.00    +0.000 A 
ATOM     28  C   UNL     1       1.535   8.499  20.109  0.00  0.00    +0.000 A 
ATOM     29  C   UNL     1       2.016   7.213  19.832  0.00  0.00    +0.000 A 
ATOM     30  C   UNL     1       2.469   6.856  18.548  0.00  0.00    +0.000 A 
ATOM     31  C   UNL     1       2.490   7.851  17.569  0.00  0.00    +0.000 A 
ATOM     32  C   UNL     1       2.069   9.162  17.870  0.00  0.00    +0.000 A 
BRANCH  30  33
ATOM     33  C   UNL     1       2.700   5.394  18.316  0.00  0.00    +0.000 C 
ATOM     34  O   UNL     1       1.722   4.775  17.879  0.00  0.00    +0.000 OA
ATOM     35  N   UNL     1       3.909   4.729  18.538  0.00  0.00    +0.000 N 
ATOM     36  C   UNL     1       5.104   5.218  19.206  0.00  0.00    +0.000 C 
ATOM     37  C   UNL     1       3.943   3.298  18.239  0.00  0.00    +0.000 C 
ENDBRANCH  30  33
ENDBRANCH  25  27
ENDBRANCH   5  25
TORSDOF 6
ENDMDL
MODEL 3
REMARK VINA RESULT:      -8.2      4.281      5.215
REMARK  Name = 
REMARK  10 active torsions:
REMARK  status: ('A' for Active; 'I' for Inactive)
REMARK    1  A    between atoms: C_1  and  C_2
REMARK    2  A    between atoms: C_2  and  C_3
REMARK    3  A    between atoms: C_2  and  C_4
REMARK    4  A    between atoms: C_8  and  N_9
REMARK    5  A    between atoms: N_9  and  C_10
REMARK    6  A    between atoms: C_13  and  C_14
REMARK    7  A    between atoms: N_16  and  C_17
REMARK    8  A    between atoms: N_16  and  C_18
REMARK    9  A    between atoms: N_24  and  C_25
REMARK   10  A    between atoms: C_30  and  C_31
REMARK                            x       y       z     vdW  Elec       q    Type
REMARK                         _______ _______ _______ _____ _____    ______ ____
ROOT
ATOM      1  C   UNL     1      -2.049  10.850  18.279  0.00  0.00    +0.000 A 
ATOM      2  N   UNL     1      -1.860  12.177  18.372  0.00  0.00    +0.000 NA
ATOM      3  C   UNL     1      -0.875  12.601  19.187  0.00  0.00    +0.000 A 
ATOM      4  C   UNL     1      -0.053  11.724  19.881  0.00  0.00    +0.000 A 
ATOM      5  C   UNL     1      -0.338  10.368  19.738  0.00  0.00    +0.000 A 
ATOM      6  N   UNL     1      -1.338   9.933  18.955  0.00  0.00    +0.000 NA
ATOM      7  C   UNL     1       1.055  12.259  20.745  0.00  0.00    +0.000 C 
ATOM      8  C   UNL     1       2.163  12.934  19.932  0.00  0.00    +0.000 C 
ATOM      9  N   UNL     1       1.842  14.288  19.470  0.00  0.00    +0.000 N 
ATOM     10  C   UNL     1       0.665  14.485  18.593  0.00  0.00    +0.000 C 
ATOM     11  C   UNL     1      -0.656  14.093  19.257  0.00  0.00    +0.000 C 
ENDROOT
BRANCH   9  12
ATOM     12  C   UNL     1       2.570  15.411  19.814  0.00  0.00    +0.000 A 
ATOM     13  N   UNL     1       2.054  16.120  20.855  0.00  0.00    +0.000 NA
ATOM     14  C   UNL     1       2.686  17.217  21.328  0.00  0.00    +0.000 A 
ATOM     15  C   UNL     1       3.876  17.678  20.828  0.00  0.00    +0.000 A 
ATOM     16  C   UNL     1       4.410  16.986  19.758  0.00  0.00    +0.000 A 
ATOM     17  C   UNL     1       3.748  15.861  19.206  0.00  0.00    +0.000 A 
BRANCH  17  18
ATOM     18  C   UNL     1       4.396  15.295  17.975  0.00  0.00    +0.000 C 
ATOM     19  F   UNL     1       5.656  15.718  17.685  0.00  0.00    +0.000 F 
ATOM     20  F   UNL     1       4.504  13.933  18.030  0.00  0.00    +0.000 F 
ATOM     21  F   UNL     1       3.653  15.542  16.851  0.00  0.00    +0.000 F 
ENDBRANCH  17  18
ENDBRANCH   9  12
BRANCH   1  23
ATOM     22  C   UNL     1      -4.458  10.934  17.622  0.00  0.00    +0.000 C 
ATOM     23  C   UNL     1      -3.078  10.366  17.286  0.00  0.00    +0.000 C 
ATOM     24  C   UNL     1      -2.673  10.717  15.857  0.00  0.00    +0.000 C 
ENDBRANCH   1  23
BRANCH   5  25
ATOM     25  N   UNL     1       0.495   9.405  20.347  0.00  0.00    +0.000 N 
ATOM     26  H   UNL     1       0.770   9.728  21.270  0.00  0.00    +0.000 HD
BRANCH  25  27
ATOM     27  C   UNL     1       1.477   8.606  19.725  0.00  0.00    +0.000 A 
ATOM     28  C   UNL     1       1.871   7.401  20.308  0.00  0.00    +0.000 A 
ATOM     29  C   UNL     1       2.676   6.496  19.603  0.00  0.00    +0.000 A 
ATOM     30  C   UNL     1       3.077   6.745  18.277  0.00  0.00    +0.000 A 
ATOM     31  C   UNL     1       2.703   7.962  17.705  0.00  0.00    +0.000 A 
ATOM     32  C   UNL     1       1.951   8.899  18.440  0.00  0.00    +0.000 A 
BRANCH  30  33
ATOM     33  C   UNL     1       3.702   5.591  17.552  0.00  0.00    +0.000 C 
ATOM     34  O   UNL     1       2.974   4.598  17.430  0.00  0.00    +0.000 OA
ATOM     35  N   UNL     1       4.992   5.585  17.017  0.00  0.00    +0.000 N 
ATOM     36  C   UNL     1       6.056   6.560  17.201  0.00  0.00    +0.000 C 
ATOM     37  C   UNL     1       5.420   4.367  16.331  0.00  0.00    +0.000 C 
ENDBRANCH  30  33
ENDBRANCH  25  27
ENDBRANCH   5  25
TORSDOF 6
ENDMDL
MODEL 4
REMARK VINA RESULT:      -8.2      0.862      1.304
REMARK  Name = 
REMARK  10 active torsions:
REMARK  status: ('A' for Active; 'I' for Inactive)
REMARK    1  A    between atoms: C_1  and  C_2
REMARK    2  A    between atoms: C_2  and  C_3
REMARK    3  A    between atoms: C_2  and  C_4
REMARK    4  A    between atoms: C_8  and  N_9
REMARK    5  A    between atoms: N_9  and  C_10
REMARK    6  A    between atoms: C_13  and  C_14
REMARK    7  A    between atoms: N_16  and  C_17
REMARK    8  A    between atoms: N_16  and  C_18
REMARK    9  A    between atoms: N_24  and  C_25
REMARK   10  A    between atoms: C_30  and  C_31
REMARK                            x       y       z     vdW  Elec       q    Type
REMARK                         _______ _______ _______ _____ _____    ______ ____
ROOT
ATOM      1  C   UNL     1      -2.264  11.133  17.579  0.00  0.00    +0.000 A 
ATOM      2  N   UNL     1      -3.023  11.758  18.494  0.00  0.00    +0.000 NA
ATOM      3  C   UNL     1      -2.508  11.892  19.732  0.00  0.00    +0.000 A 
ATOM      4  C   UNL     1      -1.235  11.447  20.061  0.00  0.00    +0.000 A 
ATOM      5  C   UNL     1      -0.531  10.793  19.052  0.00  0.00    +0.000 A 
ATOM      6  N   UNL     1      -1.047  10.623  17.824  0.00  0.00    +0.000 NA
ATOM      7  C   UNL     1      -0.701  11.662  21.449  0.00  0.00    +0.000 C 
ATOM      8  C   UNL     1      -0.458  13.140  21.766  0.00  0.00    +0.000 C 
ATOM      9  N   UNL     1      -1.669  13.900  22.091  0.00  0.00    +0.000 N 
ATOM     10  C   UNL     1      -2.754  13.984  21.088  0.00  0.00    +0.000 C 
ATOM     11  C   UNL     1      -3.361  12.624  20.740  0.00  0.00    +0.000 C 
ENDROOT
BRANCH   9  12
ATOM     12  C   UNL     1      -1.871  14.545  23.297  0.00  0.00    +0.000 A 
ATOM     13  N   UNL     1      -1.084  15.638  23.492  0.00  0.00    +0.000 NA
ATOM     14  C   UNL     1      -1.205  16.390  24.608  0.00  0.00    +0.000 A 
ATOM     15  C   UNL     1      -2.121  16.136  25.595  0.00  0.00    +0.000 A 
ATOM     16  C   UNL     1      -2.919  15.020  25.430  0.00  0.00    +0.000 A 
ATOM     17  C   UNL     1      -2.783  14.181  24.295  0.00  0.00    +0.000 A 
BRANCH  17  18
ATOM     18  C   UNL     1      -3.639  12.948  24.323  0.00  0.00    +0.000 C 
ATOM     19  F   UNL     1      -4.145  12.569  25.527  0.00  0.00    +0.000 F 
ATOM     20  F   UNL     1      -4.740  13.066  23.520  0.00  0.00    +0.000 F 
ATOM     21  F   UNL     1      -2.970  11.855  23.840  0.00  0.00    +0.000 F 
ENDBRANCH  17  18
ENDBRANCH   9  12
BRANCH   1  23
ATOM     22  C   UNL     1      -2.497   9.713  15.536  0.00  0.00    +0.000 C 
ATOM     23  C   UNL     1      -2.792  11.075  16.166  0.00  0.00    +0.000 C 
ATOM     24  C   UNL     1      -4.286  11.389  16.123  0.00  0.00    +0.000 C 
ENDBRANCH   1  23
BRANCH   5  25
ATOM     25  N   UNL     1       0.798  10.376  19.278  0.00  0.00    +0.000 N 
ATOM     26  H   UNL     1       1.439  11.109  18.990  0.00  0.00    +0.000 HD
BRANCH  25  27
ATOM     27  C   UNL     1       1.328   9.079  19.109  0.00  0.00    +0.000 A 
ATOM     28  C   UNL     1       1.860   8.695  17.877  0.00  0.00    +0.000 A 
ATOM     29  C   UNL     1       2.582   7.501  17.753  0.00  0.00    +0.000 A 
ATOM     30  C   UNL     1       2.836   6.673  18.863  0.00  0.00    +0.000 A 
ATOM     31  C   UNL     1       2.282   7.047  20.089  0.00  0.00    +0.000 A 
ATOM     32  C   UNL     1       1.499   8.213  20.196  0.00  0.00    +0.000 A 
BRANCH  30  33
ATOM     33  C   UNL     1       3.838   5.579  18.651  0.00  0.00    +0.000 C 
ATOM     34  O   UNL     1       3.548   4.499  19.181  0.00  0.00    +0.000 OA
ATOM     35  N   UNL     1       5.013   5.702  17.906  0.00  0.00    +0.000 N 
ATOM     36  C   UNL     1       5.620   6.906  17.361  0.00  0.00    +0.000 C 
ATOM     37  C   UNL     1       5.860   4.514  17.802  0.00  0.00    +0.000 C 
ENDBRANCH  30  33
ENDBRANCH  25  27
ENDBRANCH   5  25
TORSDOF 6
ENDMDL
MODEL 5
REMARK VINA RESULT:      -8.1      0.837      1.220
REMARK  Name = 
REMARK  10 active torsions:
REMARK  status: ('A' for Active; 'I' for Inactive)
REMARK    1  A    between atoms: C_1  and  C_2
REMARK    2  A    between atoms: C_2  and  C_3
REMARK    3  A    between atoms: C_2  and  C_4
REMARK    4  A    between atoms: C_8  and  N_9
REMARK    5  A    between atoms: N_9  and  C_10
REMARK    6  A    between atoms: C_13  and  C_14
REMARK    7  A    between atoms: N_16  and  C_17
REMARK    8  A    between atoms: N_16  and  C_18
REMARK    9  A    between atoms: N_24  and  C_25
REMARK   10  A    between atoms: C_30  and  C_31
REMARK                            x       y       z     vdW  Elec       q    Type
REMARK                         _______ _______ _______ _____ _____    ______ ____
ROOT
ATOM      1  C   UNL     1      -2.389  11.178  17.455  0.00  0.00    +0.000 A 
ATOM      2  N   UNL     1      -3.163  11.727  18.407  0.00  0.00    +0.000 NA
ATOM      3  C   UNL     1      -2.605  11.913  19.620  0.00  0.00    +0.000 A 
ATOM      4  C   UNL     1      -1.281  11.596  19.887  0.00  0.00    +0.000 A 
ATOM      5  C   UNL     1      -0.564  11.014  18.844  0.00  0.00    +0.000 A 
ATOM      6  N   UNL     1      -1.117  10.792  17.642  0.00  0.00    +0.000 NA
ATOM      7  C   UNL     1      -0.705  11.865  21.249  0.00  0.00    +0.000 C 
ATOM      8  C   UNL     1      -0.596  13.361  21.559  0.00  0.00    +0.000 C 
ATOM      9  N   UNL     1      -1.859  13.998  21.943  0.00  0.00    +0.000 N 
ATOM     10  C   UNL     1      -2.993  13.972  20.992  0.00  0.00    +0.000 C 
ATOM     11  C   UNL     1      -3.478  12.558  20.670  0.00  0.00    +0.000 C 
ENDROOT
BRANCH   9  12
ATOM     12  C   UNL     1      -2.067  14.621  23.159  0.00  0.00    +0.000 A 
ATOM     13  N   UNL     1      -1.347  15.762  23.339  0.00  0.00    +0.000 NA
ATOM     14  C   UNL     1      -1.484  16.499  24.464  0.00  0.00    +0.000 A 
ATOM     15  C   UNL     1      -2.352  16.179  25.476  0.00  0.00    +0.000 A 
ATOM     16  C   UNL     1      -3.080  15.014  25.325  0.00  0.00    +0.000 A 
ATOM     17  C   UNL     1      -2.923  14.192  24.181  0.00  0.00    +0.000 A 
BRANCH  17  18
ATOM     18  C   UNL     1      -3.696  12.906  24.224  0.00  0.00    +0.000 C 
ATOM     19  F   UNL     1      -4.823  12.831  23.466  0.00  0.00    +0.000 F 
ATOM     20  F   UNL     1      -2.945  11.840  23.814  0.00  0.00    +0.000 F 
ATOM     21  F   UNL     1      -4.084  12.590  25.499  0.00  0.00    +0.000 F 
ENDBRANCH  17  18
ENDBRANCH   9  12
BRANCH   1  23
ATOM     22  C   UNL     1      -2.654   9.702  15.457  0.00  0.00    +0.000 C 
ATOM     23  C   UNL     1      -2.975  11.066  16.068  0.00  0.00    +0.000 C 
ATOM     24  C   UNL     1      -4.480  11.322  16.084  0.00  0.00    +0.000 C 
ENDBRANCH   1  23
BRANCH   5  25
ATOM     25  N   UNL     1       0.809  10.731  19.006  0.00  0.00    +0.000 N 
ATOM     26  H   UNL     1       1.353  11.298  18.362  0.00  0.00    +0.000 HD
BRANCH  25  27
ATOM     27  C   UNL     1       1.399   9.477  19.271  0.00  0.00    +0.000 A 
ATOM     28  C   UNL     1       1.177   8.842  20.494  0.00  0.00    +0.000 A 
ATOM     29  C   UNL     1       1.570   7.512  20.690  0.00  0.00    +0.000 A 
ATOM     30  C   UNL     1       2.159   6.757  19.658  0.00  0.00    +0.000 A 
ATOM     31  C   UNL     1       2.404   7.402  18.444  0.00  0.00    +0.000 A 
ATOM     32  C   UNL     1       2.069   8.759  18.272  0.00  0.00    +0.000 A 
BRANCH  30  33
ATOM     33  C   UNL     1       2.284   5.286  19.911  0.00  0.00    +0.000 C 
ATOM     34  O   UNL     1       2.016   4.931  21.065  0.00  0.00    +0.000 OA
ATOM     35  N   UNL     1       2.650   4.337  18.952  0.00  0.00    +0.000 N 
ATOM     36  C   UNL     1       3.170   4.555  17.612  0.00  0.00    +0.000 C 
ATOM     37  C   UNL     1       2.704   2.942  19.387  0.00  0.00    +0.000 C 
ENDBRANCH  30  33
ENDBRANCH  25  27
ENDBRANCH   5  25
TORSDOF 6
ENDMDL
MODEL 6
REMARK VINA RESULT:      -8.1      4.204      5.095
REMARK  Name = 
REMARK  10 active torsions:
REMARK  status: ('A' for Active; 'I' for Inactive)
REMARK    1  A    between atoms: C_1  and  C_2
REMARK    2  A    between atoms: C_2  and  C_3
REMARK    3  A    between atoms: C_2  and  C_4
REMARK    4  A    between atoms: C_8  and  N_9
REMARK    5  A    between atoms: N_9  and  C_10
REMARK    6  A    between atoms: C_13  and  C_14
REMARK    7  A    between atoms: N_16  and  C_17
REMARK    8  A    between atoms: N_16  and  C_18
REMARK    9  A    between atoms: N_24  and  C_25
REMARK   10  A    between atoms: C_30  and  C_31
REMARK                            x       y       z     vdW  Elec       q    Type
REMARK                         _______ _______ _______ _____ _____    ______ ____
ROOT
ATOM      1  C   UNL     1      -2.137  10.963  18.192  0.00  0.00    +0.000 A 
ATOM      2  N   UNL     1      -1.906  12.285  18.254  0.00  0.00    +0.000 NA
ATOM      3  C   UNL     1      -0.942  12.701  19.098  0.00  0.00    +0.000 A 
ATOM      4  C   UNL     1      -0.181  11.819  19.852  0.00  0.00    +0.000 A 
ATOM      5  C   UNL     1      -0.506  10.469  19.735  0.00  0.00    +0.000 A 
ATOM      6  N   UNL     1      -1.487  10.044  18.924  0.00  0.00    +0.000 NA
ATOM      7  C   UNL     1       0.908  12.342  20.746  0.00  0.00    +0.000 C 
ATOM      8  C   UNL     1       2.072  12.956  19.962  0.00  0.00    +0.000 C 
ATOM      9  N   UNL     1       1.816  14.305  19.447  0.00  0.00    +0.000 N 
ATOM     10  C   UNL     1       0.684  14.514  18.516  0.00  0.00    +0.000 C 
ATOM     11  C   UNL     1      -0.675  14.187  19.135  0.00  0.00    +0.000 C 
ENDROOT
BRANCH   9  12
ATOM     12  C   UNL     1       2.567  15.413  19.790  0.00  0.00    +0.000 A 
ATOM     13  N   UNL     1       2.067  16.134  20.831  0.00  0.00    +0.000 NA
ATOM     14  C   UNL     1       2.722  17.219  21.302  0.00  0.00    +0.000 A 
ATOM     15  C   UNL     1       3.921  17.655  20.801  0.00  0.00    +0.000 A 
ATOM     16  C   UNL     1       4.440  16.951  19.731  0.00  0.00    +0.000 A 
ATOM     17  C   UNL     1       3.754  15.838  19.180  0.00  0.00    +0.000 A 
BRANCH  17  18
ATOM     18  C   UNL     1       4.390  15.258  17.950  0.00  0.00    +0.000 C 
ATOM     19  F   UNL     1       5.682  15.598  17.698  0.00  0.00    +0.000 F 
ATOM     20  F   UNL     1       4.401  13.891  17.972  0.00  0.00    +0.000 F 
ATOM     21  F   UNL     1       3.692  15.583  16.817  0.00  0.00    +0.000 F 
ENDBRANCH  17  18
ENDBRANCH   9  12
BRANCH   1  23
ATOM     22  C   UNL     1      -4.553  10.923  17.556  0.00  0.00    +0.000 C 
ATOM     23  C   UNL     1      -3.140  10.484  17.170  0.00  0.00    +0.000 C 
ATOM     24  C   UNL     1      -2.776  10.971  15.770  0.00  0.00    +0.000 C 
ENDBRANCH   1  23
BRANCH   5  25
ATOM     25  N   UNL     1       0.267   9.498  20.407  0.00  0.00    +0.000 N 
ATOM     26  H   UNL     1       0.467   9.815  21.351  0.00  0.00    +0.000 HD
BRANCH  25  27
ATOM     27  C   UNL     1       1.293   8.696  19.865  0.00  0.00    +0.000 A 
ATOM     28  C   UNL     1       1.687   7.527  20.518  0.00  0.00    +0.000 A 
ATOM     29  C   UNL     1       2.542   6.612  19.890  0.00  0.00    +0.000 A 
ATOM     30  C   UNL     1       2.998   6.812  18.574  0.00  0.00    +0.000 A 
ATOM     31  C   UNL     1       2.623   7.994  17.932  0.00  0.00    +0.000 A 
ATOM     32  C   UNL     1       1.819   8.944  18.591  0.00  0.00    +0.000 A 
BRANCH  30  33
ATOM     33  C   UNL     1       3.679   5.643  17.929  0.00  0.00    +0.000 C 
ATOM     34  O   UNL     1       4.874   5.819  17.662  0.00  0.00    +0.000 OA
ATOM     35  N   UNL     1       3.070   4.417  17.647  0.00  0.00    +0.000 N 
ATOM     36  C   UNL     1       1.660   4.068  17.713  0.00  0.00    +0.000 C 
ATOM     37  C   UNL     1       3.905   3.390  17.026  0.00  0.00    +0.000 C 
ENDBRANCH  30  33
ENDBRANCH  25  27
ENDBRANCH   5  25
TORSDOF 6
ENDMDL
MODEL 7
REMARK VINA RESULT:      -8.0      4.263      5.074
REMARK  Name = 
REMARK  10 active torsions:
REMARK  status: ('A' for Active; 'I' for Inactive)
REMARK    1  A    between atoms: C_1  and  C_2
REMARK    2  A    between atoms: C_2  and  C_3
REMARK    3  A    between atoms: C_2  and  C_4
REMARK    4  A    between atoms: C_8  and  N_9
REMARK    5  A    between atoms: N_9  and  C_10
REMARK    6  A    between atoms: C_13  and  C_14
REMARK    7  A    between atoms: N_16  and  C_17
REMARK    8  A    between atoms: N_16  and  C_18
REMARK    9  A    between atoms: N_24  and  C_25
REMARK   10  A    between atoms: C_30  and  C_31
REMARK                            x       y       z     vdW  Elec       q    Type
REMARK                         _______ _______ _______ _____ _____    ______ ____
ROOT
ATOM      1  C   UNL     1      -2.000  10.889  18.417  0.00  0.00    +0.000 A 
ATOM      2  N   UNL     1      -1.845  12.216  18.565  0.00  0.00    +0.000 NA
ATOM      3  C   UNL     1      -0.823  12.632  19.337  0.00  0.00    +0.000 A 
ATOM      4  C   UNL     1       0.068  11.751  19.932  0.00  0.00    +0.000 A 
ATOM      5  C   UNL     1      -0.184  10.394  19.738  0.00  0.00    +0.000 A 
ATOM      6  N   UNL     1      -1.219   9.966  18.999  0.00  0.00    +0.000 NA
ATOM      7  C   UNL     1       1.213  12.279  20.750  0.00  0.00    +0.000 C 
ATOM      8  C   UNL     1       2.245  13.031  19.904  0.00  0.00    +0.000 C 
ATOM      9  N   UNL     1       1.854  14.394  19.532  0.00  0.00    +0.000 N 
ATOM     10  C   UNL     1       0.617  14.594  18.743  0.00  0.00    +0.000 C 
ATOM     11  C   UNL     1      -0.645  14.126  19.469  0.00  0.00    +0.000 C 
ENDROOT
BRANCH   9  12
ATOM     12  C   UNL     1       2.568  15.522  19.887  0.00  0.00    +0.000 A 
ATOM     13  N   UNL     1       2.049  16.211  20.940  0.00  0.00    +0.000 NA
ATOM     14  C   UNL     1       2.669  17.311  21.423  0.00  0.00    +0.000 A 
ATOM     15  C   UNL     1       3.849  17.795  20.922  0.00  0.00    +0.000 A 
ATOM     16  C   UNL     1       4.386  17.124  19.839  0.00  0.00    +0.000 A 
ATOM     17  C   UNL     1       3.736  15.997  19.277  0.00  0.00    +0.000 A 
BRANCH  17  18
ATOM     18  C   UNL     1       4.384  15.456  18.036  0.00  0.00    +0.000 C 
ATOM     19  F   UNL     1       3.721  15.629  16.861  0.00  0.00    +0.000 F 
ATOM     20  F   UNL     1       5.613  16.012  17.811  0.00  0.00    +0.000 F 
ATOM     21  F   UNL     1       4.623  14.111  18.133  0.00  0.00    +0.000 F 
ENDBRANCH  17  18
ENDBRANCH   9  12
BRANCH   1  23
ATOM     22  C   UNL     1      -4.252  11.398  17.463  0.00  0.00    +0.000 C 
ATOM     23  C   UNL     1      -3.077  10.421  17.468  0.00  0.00    +0.000 C 
ATOM     24  C   UNL     1      -2.521  10.221  16.060  0.00  0.00    +0.000 C 
ENDBRANCH   1  23
BRANCH   5  25
ATOM     25  N   UNL     1       0.715   9.432  20.244  0.00  0.00    +0.000 N 
ATOM     26  H   UNL     1       1.238   9.828  21.019  0.00  0.00    +0.000 HD
BRANCH  25  27
ATOM     27  C   UNL     1       1.452   8.479  19.509  0.00  0.00    +0.000 A 
ATOM     28  C   UNL     1       1.905   8.782  18.225  0.00  0.00    +0.000 A 
ATOM     29  C   UNL     1       2.815   7.942  17.571  0.00  0.00    +0.000 A 
ATOM     30  C   UNL     1       3.338   6.793  18.195  0.00  0.00    +0.000 A 
ATOM     31  C   UNL     1       2.864   6.478  19.471  0.00  0.00    +0.000 A 
ATOM     32  C   UNL     1       1.898   7.289  20.098  0.00  0.00    +0.000 A 
BRANCH  30  33
ATOM     33  C   UNL     1       4.492   6.137  17.502  0.00  0.00    +0.000 C 
ATOM     34  O   UNL     1       5.445   6.887  17.253  0.00  0.00    +0.000 OA
ATOM     35  N   UNL     1       4.556   4.784  17.158  0.00  0.00    +0.000 N 
ATOM     36  C   UNL     1       3.497   3.787  17.196  0.00  0.00    +0.000 C 
ATOM     37  C   UNL     1       5.776   4.325  16.496  0.00  0.00    +0.000 C 
ENDBRANCH  30  33
ENDBRANCH  25  27
ENDBRANCH   5  25
TORSDOF 6
ENDMDL
MODEL 8
REMARK VINA RESULT:      -7.9      1.732      2.352
REMARK  Name = 
REMARK  10 active torsions:
REMARK  status: ('A' for Active; 'I' for Inactive)
REMARK    1  A    between atoms: C_1  and  C_2
REMARK    2  A    between atoms: C_2  and  C_3
REMARK    3  A    between atoms: C_2  and  C_4
REMARK    4  A    between atoms: C_8  and  N_9
REMARK    5  A    between atoms: N_9  and  C_10
REMARK    6  A    between atoms: C_13  and  C_14
REMARK    7  A    between atoms: N_16  and  C_17
REMARK    8  A    between atoms: N_16  and  C_18
REMARK    9  A    between atoms: N_24  and  C_25
REMARK   10  A    between atoms: C_30  and  C_31
REMARK                            x       y       z     vdW  Elec       q    Type
REMARK                         _______ _______ _______ _____ _____    ______ ____
ROOT
ATOM      1  C   UNL     1      -2.609  10.933  17.990  0.00  0.00    +0.000 A 
ATOM      2  N   UNL     1      -3.008  11.837  18.900  0.00  0.00    +0.000 NA
ATOM      3  C   UNL     1      -2.066  12.333  19.727  0.00  0.00    +0.000 A 
ATOM      4  C   UNL     1      -0.730  11.971  19.635  0.00  0.00    +0.000 A 
ATOM      5  C   UNL     1      -0.415  11.014  18.673  0.00  0.00    +0.000 A 
ATOM      6  N   UNL     1      -1.349  10.486  17.867  0.00  0.00    +0.000 NA
ATOM      7  C   UNL     1       0.280  12.591  20.560  0.00  0.00    +0.000 C 
ATOM      8  C   UNL     1       0.482  14.086  20.297  0.00  0.00    +0.000 C 
ATOM      9  N   UNL     1      -0.573  14.948  20.837  0.00  0.00    +0.000 N 
ATOM     10  C   UNL     1      -1.967  14.749  20.377  0.00  0.00    +0.000 C 
ATOM     11  C   UNL     1      -2.526  13.369  20.724  0.00  0.00    +0.000 C 
ENDROOT
BRANCH   9  12
ATOM     12  C   UNL     1      -0.351  15.942  21.771  0.00  0.00    +0.000 A 
ATOM     13  N   UNL     1       0.275  17.047  21.281  0.00  0.00    +0.000 NA
ATOM     14  C   UNL     1       0.517  18.116  22.073  0.00  0.00    +0.000 A 
ATOM     15  C   UNL     1       0.141  18.182  23.389  0.00  0.00    +0.000 A 
ATOM     16  C   UNL     1      -0.479  17.064  23.915  0.00  0.00    +0.000 A 
ATOM     17  C   UNL     1      -0.703  15.908  23.126  0.00  0.00    +0.000 A 
BRANCH  17  18
ATOM     18  C   UNL     1      -1.278  14.741  23.876  0.00  0.00    +0.000 C 
ATOM     19  F   UNL     1      -1.196  14.772  25.233  0.00  0.00    +0.000 F 
ATOM     20  F   UNL     1      -2.611  14.573  23.624  0.00  0.00    +0.000 F 
ATOM     21  F   UNL     1      -0.699  13.559  23.495  0.00  0.00    +0.000 F 
ENDBRANCH  17  18
ENDBRANCH   9  12
BRANCH   1  23
ATOM     22  C   UNL     1      -4.911  11.297  17.088  0.00  0.00    +0.000 C 
ATOM     23  C   UNL     1      -3.638  10.455  16.993  0.00  0.00    +0.000 C 
ATOM     24  C   UNL     1      -3.076  10.465  15.574  0.00  0.00    +0.000 C 
ENDBRANCH   1  23
BRANCH   5  25
ATOM     25  N   UNL     1       0.930  10.645  18.461  0.00  0.00    +0.000 N 
ATOM     26  H   UNL     1       1.253  11.025  17.577  0.00  0.00    +0.000 HD
BRANCH  25  27
ATOM     27  C   UNL     1       1.545   9.419  18.792  0.00  0.00    +0.000 A 
ATOM     28  C   UNL     1       1.401   8.886  20.074  0.00  0.00    +0.000 A 
ATOM     29  C   UNL     1       1.816   7.578  20.355  0.00  0.00    +0.000 A 
ATOM     30  C   UNL     1       2.346   6.742  19.355  0.00  0.00    +0.000 A 
ATOM     31  C   UNL     1       2.512   7.285  18.079  0.00  0.00    +0.000 A 
ATOM     32  C   UNL     1       2.158   8.622  17.816  0.00  0.00    +0.000 A 
BRANCH  30  33
ATOM     33  C   UNL     1       2.497   5.296  19.719  0.00  0.00    +0.000 C 
ATOM     34  O   UNL     1       1.481   4.769  20.187  0.00  0.00    +0.000 OA
ATOM     35  N   UNL     1       3.662   4.544  19.547  0.00  0.00    +0.000 N 
ATOM     36  C   UNL     1       4.995   5.004  19.189  0.00  0.00    +0.000 C 
ATOM     37  C   UNL     1       3.611   3.140  19.951  0.00  0.00    +0.000 C 
ENDBRANCH  30  33
ENDBRANCH  25  27
ENDBRANCH   5  25
TORSDOF 6
ENDMDL
MODEL 9
REMARK VINA RESULT:      -7.9      3.529      4.213
REMARK  Name = 
REMARK  10 active torsions:
REMARK  status: ('A' for Active; 'I' for Inactive)
REMARK    1  A    between atoms: C_1  and  C_2
REMARK    2  A    between atoms: C_2  and  C_3
REMARK    3  A    between atoms: C_2  and  C_4
REMARK    4  A    between atoms: C_8  and  N_9
REMARK    5  A    between atoms: N_9  and  C_10
REMARK    6  A    between atoms: C_13  and  C_14
REMARK    7  A    between atoms: N_16  and  C_17
REMARK    8  A    between atoms: N_16  and  C_18
REMARK    9  A    between atoms: N_24  and  C_25
REMARK   10  A    between atoms: C_30  and  C_31
REMARK                            x       y       z     vdW  Elec       q    Type
REMARK                         _______ _______ _______ _____ _____    ______ ____
ROOT
ATOM      1  C   UNL     1      -1.959  10.208  17.908  0.00  0.00    +0.000 A 
ATOM      2  N   UNL     1      -2.172  11.244  18.737  0.00  0.00    +0.000 NA
ATOM      3  C   UNL     1      -1.088  11.807  19.306  0.00  0.00    +0.000 A 
ATOM      4  C   UNL     1       0.203  11.380  19.032  0.00  0.00    +0.000 A 
ATOM      5  C   UNL     1       0.323  10.288  18.176  0.00  0.00    +0.000 A 
ATOM      6  N   UNL     1      -0.751   9.695  17.630  0.00  0.00    +0.000 NA
ATOM      7  C   UNL     1       1.374  12.076  19.668  0.00  0.00    +0.000 C 
ATOM      8  C   UNL     1       1.552  13.511  19.164  0.00  0.00    +0.000 C 
ATOM      9  N   UNL     1       0.627  14.483  19.754  0.00  0.00    +0.000 N 
ATOM     10  C   UNL     1      -0.830  14.283  19.580  0.00  0.00    +0.000 C 
ATOM     11  C   UNL     1      -1.342  12.989  20.212  0.00  0.00    +0.000 C 
ENDROOT
BRANCH   9  12
ATOM     12  C   UNL     1       1.031  15.585  20.484  0.00  0.00    +0.000 A 
ATOM     13  N   UNL     1       1.042  15.396  21.832  0.00  0.00    +0.000 NA
ATOM     14  C   UNL     1       1.459  16.374  22.666  0.00  0.00    +0.000 A 
ATOM     15  C   UNL     1       1.914  17.593  22.235  0.00  0.00    +0.000 A 
ATOM     16  C   UNL     1       1.894  17.816  20.871  0.00  0.00    +0.000 A 
ATOM     17  C   UNL     1       1.417  16.830  19.971  0.00  0.00    +0.000 A 
BRANCH  17  18
ATOM     18  C   UNL     1       1.350  17.271  18.538  0.00  0.00    +0.000 C 
ATOM     19  F   UNL     1       2.264  16.742  17.681  0.00  0.00    +0.000 F 
ATOM     20  F   UNL     1       0.144  16.978  17.964  0.00  0.00    +0.000 F 
ATOM     21  F   UNL     1       1.472  18.630  18.419  0.00  0.00    +0.000 F 
ENDBRANCH  17  18
ENDBRANCH   9  12
BRANCH   1  23
ATOM     22  C   UNL     1      -4.442  10.330  17.656  0.00  0.00    +0.000 C 
ATOM     23  C   UNL     1      -3.159   9.643  17.187  0.00  0.00    +0.000 C 
ATOM     24  C   UNL     1      -2.996   9.758  15.673  0.00  0.00    +0.000 C 
ENDBRANCH   1  23
BRANCH   5  25
ATOM     25  N   UNL     1       1.601   9.837  17.785  0.00  0.00    +0.000 N 
ATOM     26  H   UNL     1       1.745  10.031  16.798  0.00  0.00    +0.000 HD
BRANCH  25  27
ATOM     27  C   UNL     1       2.269   8.673  18.221  0.00  0.00    +0.000 A 
ATOM     28  C   UNL     1       1.890   8.052  19.412  0.00  0.00    +0.000 A 
ATOM     29  C   UNL     1       2.389   6.787  19.748  0.00  0.00    +0.000 A 
ATOM     30  C   UNL     1       3.247   6.080  18.886  0.00  0.00    +0.000 A 
ATOM     31  C   UNL     1       3.645   6.713  17.707  0.00  0.00    +0.000 A 
ATOM     32  C   UNL     1       3.196   8.013  17.404  0.00  0.00    +0.000 A 
BRANCH  30  33
ATOM     33  C   UNL     1       3.489   4.642  19.233  0.00  0.00    +0.000 C 
ATOM     34  O   UNL     1       4.597   4.407  19.731  0.00  0.00    +0.000 OA
ATOM     35  N   UNL     1       2.568   3.608  19.052  0.00  0.00    +0.000 N 
ATOM     36  C   UNL     1       1.304   3.634  18.332  0.00  0.00    +0.000 C 
ATOM     37  C   UNL     1       2.984   2.269  19.466  0.00  0.00    +0.000 C 
ENDBRANCH  30  33
ENDBRANCH  25  27
ENDBRANCH   5  25
TORSDOF 6
ENDMDL
