MODEL 1
REMARK VINA RESULT:      -6.9      0.000      0.000
REMARK  Name = 
REMARK  4 active torsions:
REMARK  status: ('A' for Active; 'I' for Inactive)
REMARK    1  A    between atoms: C_1  and  S_2
REMARK    2  A    between atoms: S_2  and  N_5
REMARK    3  A    between atoms: N_5  and  C_6
REMARK    4  A    between atoms: C_6  and  C_7
REMARK                            x       y       z     vdW  Elec       q    Type
REMARK                         _______ _______ _______ _____ _____    ______ ____
ROOT
ATOM      1  C   UNL     1       4.221   5.641  18.642  0.00  0.00    +0.000 C 
ATOM      2  C   UNL     1       3.094   5.208  17.694  0.00  0.00    +0.000 C 
ATOM      3  C   UNL     1       2.326   4.356  18.627  0.00  0.00    +0.000 A 
ATOM      4  C   UNL     1       1.357   3.409  18.357  0.00  0.00    +0.000 A 
ATOM      5  C   UNL     1       0.759   2.761  19.439  0.00  0.00    +0.000 A 
ATOM      6  C   UNL     1       1.125   3.080  20.759  0.00  0.00    +0.000 A 
ATOM      7  C   UNL     1       2.102   4.045  21.013  0.00  0.00    +0.000 A 
ATOM      8  C   UNL     1       2.695   4.656  19.929  0.00  0.00    +0.000 A 
ATOM      9  O   UNL     1       3.703   5.586  20.006  0.00  0.00    +0.000 OA
ENDROOT
BRANCH   1  10
ATOM     10  C   UNL     1       5.457   4.727  18.567  0.00  0.00    +0.000 C 
BRANCH  10  11
ATOM     11  N   UNL     1       5.614   4.094  17.234  0.00  0.00    +0.000 NA
ATOM     12  H   UNL     1       5.817   3.093  17.251  0.00  0.00    +0.000 HD
BRANCH  11  14
ATOM     13  C   UNL     1       6.428   4.006  14.662  0.00  0.00    +0.000 C 
ATOM     14  S   UNL     1       6.764   4.807  16.219  0.00  0.00    +0.000 S 
ATOM     15  O   UNL     1       8.052   4.360  16.706  0.00  0.00    +0.000 OA
ATOM     16  O   UNL     1       6.441   6.208  16.115  0.00  0.00    +0.000 OA
ENDBRANCH  11  14
ENDBRANCH  10  11
ENDBRANCH   1  10
TORSDOF 3
ENDMDL
MODEL 2
REMARK VINA RESULT:      -6.8      1.500      1.724
REMARK  Name = 
REMARK  4 active torsions:
REMARK  status: ('A' for Active; 'I' for Inactive)
REMARK    1  A    between atoms: C_1  and  S_2
REMARK    2  A    between atoms: S_2  and  N_5
REMARK    3  A    between atoms: N_5  and  C_6
REMARK    4  A    between atoms: C_6  and  C_7
REMARK                            x       y       z     vdW  Elec       q    Type
REMARK                         _______ _______ _______ _____ _____    ______ ____
ROOT
ATOM      1  C   UNL     1       5.314   4.352  18.758  0.00  0.00    +0.000 C 
ATOM      2  C   UNL     1       4.468   5.535  19.249  0.00  0.00    +0.000 C 
ATOM      3  C   UNL     1       3.289   4.788  19.736  0.00  0.00    +0.000 A 
ATOM      4  C   UNL     1       2.019   5.244  20.029  0.00  0.00    +0.000 A 
ATOM      5  C   UNL     1       1.088   4.320  20.508  0.00  0.00    +0.000 A 
ATOM      6  C   UNL     1       1.447   2.974  20.700  0.00  0.00    +0.000 A 
ATOM      7  C   UNL     1       2.738   2.531  20.405  0.00  0.00    +0.000 A 
ATOM      8  C   UNL     1       3.634   3.456  19.912  0.00  0.00    +0.000 A 
ATOM      9  O   UNL     1       4.921   3.174  19.526  0.00  0.00    +0.000 OA
ENDROOT
BRANCH   1  10
ATOM     10  C   UNL     1       5.102   4.037  17.266  0.00  0.00    +0.000 C 
BRANCH  10  11
ATOM     11  N   UNL     1       6.373   4.038  16.501  0.00  0.00    +0.000 NA
ATOM     12  H   UNL     1       7.208   4.256  17.048  0.00  0.00    +0.000 HD
BRANCH  11  14
ATOM     13  C   UNL     1       5.827   3.951  13.859  0.00  0.00    +0.000 C 
ATOM     14  S   UNL     1       6.406   5.045  15.142  0.00  0.00    +0.000 S 
ATOM     15  O   UNL     1       7.801   5.344  14.906  0.00  0.00    +0.000 OA
ATOM     16  O   UNL     1       5.434   6.089  15.354  0.00  0.00    +0.000 OA
ENDBRANCH  11  14
ENDBRANCH  10  11
ENDBRANCH   1  10
TORSDOF 3
ENDMDL
MODEL 3
REMARK VINA RESULT:      -6.8      1.509      2.039
REMARK  Name = 
REMARK  4 active torsions:
REMARK  status: ('A' for Active; 'I' for Inactive)
REMARK    1  A    between atoms: C_1  and  S_2
REMARK    2  A    between atoms: S_2  and  N_5
REMARK    3  A    between atoms: N_5  and  C_6
REMARK    4  A    between atoms: C_6  and  C_7
REMARK                            x       y       z     vdW  Elec       q    Type
REMARK                         _______ _______ _______ _____ _____    ______ ____
ROOT
ATOM      1  C   UNL     1       3.472   3.792  16.951  0.00  0.00    +0.000 C 
ATOM      2  C   UNL     1       2.591   2.623  17.411  0.00  0.00    +0.000 C 
ATOM      3  C   UNL     1       2.179   3.153  18.729  0.00  0.00    +0.000 A 
ATOM      4  C   UNL     1       1.625   2.492  19.808  0.00  0.00    +0.000 A 
ATOM      5  C   UNL     1       1.296   3.246  20.936  0.00  0.00    +0.000 A 
ATOM      6  C   UNL     1       1.508   4.636  20.957  0.00  0.00    +0.000 A 
ATOM      7  C   UNL     1       2.062   5.289  19.854  0.00  0.00    +0.000 A 
ATOM      8  C   UNL     1       2.400   4.521  18.760  0.00  0.00    +0.000 A 
ATOM      9  O   UNL     1       2.998   5.000  17.620  0.00  0.00    +0.000 OA
ENDROOT
BRANCH   1  10
ATOM     10  C   UNL     1       4.958   3.604  17.308  0.00  0.00    +0.000 C 
BRANCH  10  11
ATOM     11  N   UNL     1       5.848   3.761  16.132  0.00  0.00    +0.000 NA
ATOM     12  H   UNL     1       6.245   2.892  15.769  0.00  0.00    +0.000 HD
BRANCH  11  14
ATOM     13  C   UNL     1       6.357   6.195  17.182  0.00  0.00    +0.000 C 
ATOM     14  S   UNL     1       7.138   4.837  16.331  0.00  0.00    +0.000 S 
ATOM     15  O   UNL     1       7.502   5.269  14.999  0.00  0.00    +0.000 OA
ATOM     16  O   UNL     1       8.094   4.210  17.210  0.00  0.00    +0.000 OA
ENDBRANCH  11  14
ENDBRANCH  10  11
ENDBRANCH   1  10
TORSDOF 3
ENDMDL
MODEL 4
REMARK VINA RESULT:      -6.7      1.481      1.858
REMARK  Name = 
REMARK  4 active torsions:
REMARK  status: ('A' for Active; 'I' for Inactive)
REMARK    1  A    between atoms: C_1  and  S_2
REMARK    2  A    between atoms: S_2  and  N_5
REMARK    3  A    between atoms: N_5  and  C_6
REMARK    4  A    between atoms: C_6  and  C_7
REMARK                            x       y       z     vdW  Elec       q    Type
REMARK                         _______ _______ _______ _____ _____    ______ ____
ROOT
ATOM      1  C   UNL     1       3.337   4.693  17.407  0.00  0.00    +0.000 C 
ATOM      2  C   UNL     1       2.080   3.812  17.392  0.00  0.00    +0.000 C 
ATOM      3  C   UNL     1       1.942   3.585  18.846  0.00  0.00    +0.000 A 
ATOM      4  C   UNL     1       1.202   2.633  19.521  0.00  0.00    +0.000 A 
ATOM      5  C   UNL     1       1.224   2.658  20.916  0.00  0.00    +0.000 A 
ATOM      6  C   UNL     1       1.963   3.637  21.605  0.00  0.00    +0.000 A 
ATOM      7  C   UNL     1       2.700   4.596  20.906  0.00  0.00    +0.000 A 
ATOM      8  C   UNL     1       2.682   4.537  19.530  0.00  0.00    +0.000 A 
ATOM      9  O   UNL     1       3.390   5.371  18.699  0.00  0.00    +0.000 OA
ENDROOT
BRANCH   1  10
ATOM     10  C   UNL     1       4.639   3.889  17.240  0.00  0.00    +0.000 C 
BRANCH  10  11
ATOM     11  N   UNL     1       5.762   4.726  16.749  0.00  0.00    +0.000 NA
ATOM     12  H   UNL     1       6.163   4.433  15.857  0.00  0.00    +0.000 HD
BRANCH  11  14
ATOM     13  C   UNL     1       7.365   6.666  17.723  0.00  0.00    +0.000 C 
ATOM     14  S   UNL     1       7.054   4.914  17.825  0.00  0.00    +0.000 S 
ATOM     15  O   UNL     1       8.168   4.207  17.232  0.00  0.00    +0.000 OA
ATOM     16  O   UNL     1       6.570   4.592  19.145  0.00  0.00    +0.000 OA
ENDBRANCH  11  14
ENDBRANCH  10  11
ENDBRANCH   1  10
TORSDOF 3
ENDMDL
MODEL 5
REMARK VINA RESULT:      -6.6      1.547      1.928
REMARK  Name = 
REMARK  4 active torsions:
REMARK  status: ('A' for Active; 'I' for Inactive)
REMARK    1  A    between atoms: C_1  and  S_2
REMARK    2  A    between atoms: S_2  and  N_5
REMARK    3  A    between atoms: N_5  and  C_6
REMARK    4  A    between atoms: C_6  and  C_7
REMARK                            x       y       z     vdW  Elec       q    Type
REMARK                         _______ _______ _______ _____ _____    ______ ____
ROOT
ATOM      1  C   UNL     1       3.349   3.635  17.092  0.00  0.00    +0.000 C 
ATOM      2  C   UNL     1       3.842   2.478  17.971  0.00  0.00    +0.000 C 
ATOM      3  C   UNL     1       3.094   2.796  19.207  0.00  0.00    +0.000 A 
ATOM      4  C   UNL     1       3.293   2.341  20.496  0.00  0.00    +0.000 A 
ATOM      5  C   UNL     1       2.413   2.781  21.486  0.00  0.00    +0.000 A 
ATOM      6  C   UNL     1       1.348   3.644  21.169  0.00  0.00    +0.000 A 
ATOM      7  C   UNL     1       1.158   4.087  19.858  0.00  0.00    +0.000 A 
ATOM      8  C   UNL     1       2.053   3.659  18.902  0.00  0.00    +0.000 A 
ATOM      9  O   UNL     1       2.036   4.041  17.582  0.00  0.00    +0.000 OA
ENDROOT
BRANCH   1  10
ATOM     10  C   UNL     1       4.274   4.864  17.140  0.00  0.00    +0.000 C 
BRANCH  10  11
ATOM     11  N   UNL     1       5.639   4.528  17.614  0.00  0.00    +0.000 NA
ATOM     12  H   UNL     1       5.893   4.924  18.521  0.00  0.00    +0.000 HD
BRANCH  11  14
ATOM     13  C   UNL     1       6.373   4.092  15.053  0.00  0.00    +0.000 C 
ATOM     14  S   UNL     1       6.896   4.910  16.548  0.00  0.00    +0.000 S 
ATOM     15  O   UNL     1       8.069   4.237  17.062  0.00  0.00    +0.000 OA
ATOM     16  O   UNL     1       6.873   6.338  16.344  0.00  0.00    +0.000 OA
ENDBRANCH  11  14
ENDBRANCH  10  11
ENDBRANCH   1  10
TORSDOF 3
ENDMDL
MODEL 6
REMARK VINA RESULT:      -6.6      1.278      1.572
REMARK  Name = 
REMARK  4 active torsions:
REMARK  status: ('A' for Active; 'I' for Inactive)
REMARK    1  A    between atoms: C_1  and  S_2
REMARK    2  A    between atoms: S_2  and  N_5
REMARK    3  A    between atoms: N_5  and  C_6
REMARK    4  A    between atoms: C_6  and  C_7
REMARK                            x       y       z     vdW  Elec       q    Type
REMARK                         _______ _______ _______ _____ _____    ______ ____
ROOT
ATOM      1  C   UNL     1       3.714   5.969  18.456  0.00  0.00    +0.000 C 
ATOM      2  C   UNL     1       2.949   5.078  17.467  0.00  0.00    +0.000 C 
ATOM      3  C   UNL     1       2.161   4.286  18.435  0.00  0.00    +0.000 A 
ATOM      4  C   UNL     1       1.484   3.096  18.252  0.00  0.00    +0.000 A 
ATOM      5  C   UNL     1       0.784   2.570  19.339  0.00  0.00    +0.000 A 
ATOM      6  C   UNL     1       0.759   3.246  20.572  0.00  0.00    +0.000 A 
ATOM      7  C   UNL     1       1.443   4.453  20.737  0.00  0.00    +0.000 A 
ATOM      8  C   UNL     1       2.146   4.941  19.657  0.00  0.00    +0.000 A 
ATOM      9  O   UNL     1       2.909   6.084  19.668  0.00  0.00    +0.000 OA
ENDROOT
BRANCH   1  10
ATOM     10  C   UNL     1       5.086   5.391  18.851  0.00  0.00    +0.000 C 
BRANCH  10  11
ATOM     11  N   UNL     1       5.694   4.584  17.765  0.00  0.00    +0.000 NA
ATOM     12  H   UNL     1       6.053   3.671  18.052  0.00  0.00    +0.000 HD
BRANCH  11  14
ATOM     13  C   UNL     1       7.514   6.554  18.073  0.00  0.00    +0.000 C 
ATOM     14  S   UNL     1       6.934   5.343  16.900  0.00  0.00    +0.000 S 
ATOM     15  O   UNL     1       6.288   6.028  15.802  0.00  0.00    +0.000 OA
ATOM     16  O   UNL     1       7.969   4.363  16.676  0.00  0.00    +0.000 OA
ENDBRANCH  11  14
ENDBRANCH  10  11
ENDBRANCH   1  10
TORSDOF 3
ENDMDL
MODEL 7
REMARK VINA RESULT:      -6.6      1.489      1.702
REMARK  Name = 
REMARK  4 active torsions:
REMARK  status: ('A' for Active; 'I' for Inactive)
REMARK    1  A    between atoms: C_1  and  S_2
REMARK    2  A    between atoms: S_2  and  N_5
REMARK    3  A    between atoms: N_5  and  C_6
REMARK    4  A    between atoms: C_6  and  C_7
REMARK                            x       y       z     vdW  Elec       q    Type
REMARK                         _______ _______ _______ _____ _____    ______ ____
ROOT
ATOM      1  C   UNL     1       4.540   5.776  18.458  0.00  0.00    +0.000 C 
ATOM      2  C   UNL     1       3.050   5.952  18.782  0.00  0.00    +0.000 C 
ATOM      3  C   UNL     1       2.633   4.535  18.718  0.00  0.00    +0.000 A 
ATOM      4  C   UNL     1       1.367   3.995  18.610  0.00  0.00    +0.000 A 
ATOM      5  C   UNL     1       1.248   2.604  18.601  0.00  0.00    +0.000 A 
ATOM      6  C   UNL     1       2.386   1.786  18.717  0.00  0.00    +0.000 A 
ATOM      7  C   UNL     1       3.659   2.349  18.832  0.00  0.00    +0.000 A 
ATOM      8  C   UNL     1       3.754   3.724  18.816  0.00  0.00    +0.000 A 
ATOM      9  O   UNL     1       4.931   4.431  18.868  0.00  0.00    +0.000 OA
ENDROOT
BRANCH   1  10
ATOM     10  C   UNL     1       4.851   5.922  16.957  0.00  0.00    +0.000 C 
BRANCH  10  11
ATOM     11  N   UNL     1       6.289   6.185  16.700  0.00  0.00    +0.000 NA
ATOM     12  H   UNL     1       6.485   7.025  16.152  0.00  0.00    +0.000 HD
BRANCH  11  14
ATOM     13  C   UNL     1       5.837   3.769  15.583  0.00  0.00    +0.000 C 
ATOM     14  S   UNL     1       7.142   4.919  15.971  0.00  0.00    +0.000 S 
ATOM     15  O   UNL     1       7.971   4.351  17.012  0.00  0.00    +0.000 OA
ATOM     16  O   UNL     1       7.710   5.428  14.747  0.00  0.00    +0.000 OA
ENDBRANCH  11  14
ENDBRANCH  10  11
ENDBRANCH   1  10
TORSDOF 3
ENDMDL
MODEL 8
REMARK VINA RESULT:      -6.6      1.695      2.257
REMARK  Name = 
REMARK  4 active torsions:
REMARK  status: ('A' for Active; 'I' for Inactive)
REMARK    1  A    between atoms: C_1  and  S_2
REMARK    2  A    between atoms: S_2  and  N_5
REMARK    3  A    between atoms: N_5  and  C_6
REMARK    4  A    between atoms: C_6  and  C_7
REMARK                            x       y       z     vdW  Elec       q    Type
REMARK                         _______ _______ _______ _____ _____    ______ ____
ROOT
ATOM      1  C   UNL     1       4.877   3.338  18.280  0.00  0.00    +0.000 C 
ATOM      2  C   UNL     1       4.671   4.339  19.424  0.00  0.00    +0.000 C 
ATOM      3  C   UNL     1       3.238   4.088  19.692  0.00  0.00    +0.000 A 
ATOM      4  C   UNL     1       2.328   4.854  20.393  0.00  0.00    +0.000 A 
ATOM      5  C   UNL     1       1.027   4.365  20.524  0.00  0.00    +0.000 A 
ATOM      6  C   UNL     1       0.669   3.121  19.973  0.00  0.00    +0.000 A 
ATOM      7  C   UNL     1       1.605   2.356  19.274  0.00  0.00    +0.000 A 
ATOM      8  C   UNL     1       2.877   2.870  19.137  0.00  0.00    +0.000 A 
ATOM      9  O   UNL     1       3.896   2.269  18.439  0.00  0.00    +0.000 OA
ENDROOT
BRANCH   1  10
ATOM     10  C   UNL     1       4.676   3.963  16.887  0.00  0.00    +0.000 C 
BRANCH  10  11
ATOM     11  N   UNL     1       5.838   3.741  15.993  0.00  0.00    +0.000 NA
ATOM     12  H   UNL     1       6.274   2.820  16.069  0.00  0.00    +0.000 HD
BRANCH  11  14
ATOM     13  C   UNL     1       6.216   6.305  16.749  0.00  0.00    +0.000 C 
ATOM     14  S   UNL     1       7.082   4.880  16.118  0.00  0.00    +0.000 S 
ATOM     15  O   UNL     1       7.505   5.154  14.761  0.00  0.00    +0.000 OA
ATOM     16  O   UNL     1       8.007   4.403  17.116  0.00  0.00    +0.000 OA
ENDBRANCH  11  14
ENDBRANCH  10  11
ENDBRANCH   1  10
TORSDOF 3
ENDMDL
MODEL 9
REMARK VINA RESULT:      -6.5      1.619      1.822
REMARK  Name = 
REMARK  4 active torsions:
REMARK  status: ('A' for Active; 'I' for Inactive)
REMARK    1  A    between atoms: C_1  and  S_2
REMARK    2  A    between atoms: S_2  and  N_5
REMARK    3  A    between atoms: N_5  and  C_6
REMARK    4  A    between atoms: C_6  and  C_7
REMARK                            x       y       z     vdW  Elec       q    Type
REMARK                         _______ _______ _______ _____ _____    ______ ____
ROOT
ATOM      1  C   UNL     1       5.383   4.505  18.869  0.00  0.00    +0.000 C 
ATOM      2  C   UNL     1       4.453   5.654  19.282  0.00  0.00    +0.000 C 
ATOM      3  C   UNL     1       3.312   4.857  19.781  0.00  0.00    +0.000 A 
ATOM      4  C   UNL     1       2.009   5.244  20.025  0.00  0.00    +0.000 A 
ATOM      5  C   UNL     1       1.127   4.287  20.530  0.00  0.00    +0.000 A 
ATOM      6  C   UNL     1       1.565   2.978  20.798  0.00  0.00    +0.000 A 
ATOM      7  C   UNL     1       2.889   2.606  20.552  0.00  0.00    +0.000 A 
ATOM      8  C   UNL     1       3.736   3.560  20.031  0.00  0.00    +0.000 A 
ATOM      9  O   UNL     1       5.047   3.343  19.687  0.00  0.00    +0.000 OA
ENDROOT
BRANCH   1  10
ATOM     10  C   UNL     1       5.227   4.104  17.391  0.00  0.00    +0.000 C 
BRANCH  10  11
ATOM     11  N   UNL     1       6.520   4.106  16.664  0.00  0.00    +0.000 NA
ATOM     12  H   UNL     1       7.339   3.885  17.235  0.00  0.00    +0.000 HD
BRANCH  11  14
ATOM     13  C   UNL     1       5.259   6.171  15.469  0.00  0.00    +0.000 C 
ATOM     14  S   UNL     1       6.883   5.529  15.825  0.00  0.00    +0.000 S 
ATOM     15  O   UNL     1       7.502   5.111  14.586  0.00  0.00    +0.000 OA
ATOM     16  O   UNL     1       7.555   6.415  16.744  0.00  0.00    +0.000 OA
ENDBRANCH  11  14
ENDBRANCH  10  11
ENDBRANCH   1  10
TORSDOF 3
ENDMDL
