MODEL 1
REMARK VINA RESULT:      -7.8      0.000      0.000
REMARK  Name = 
REMARK  8 active torsions:
REMARK  status: ('A' for Active; 'I' for Inactive)
REMARK    1  A    between atoms: N_1  and  CA_2
REMARK    2  A    between atoms: CA_2  and  C_3
REMARK    3  A    between atoms: CA_2  and  C_23
REMARK    4  A    between atoms: C_3  and  C_4
REMARK    5  A    between atoms: N_6  and  C_7
REMARK    6  A    between atoms: C_10  and  O_11
REMARK    7  A    between atoms: O_11  and  C_12
REMARK    8  A    between atoms: C_23  and  OXT_25
REMARK                            x       y       z     vdW  Elec       q    Type
REMARK                         _______ _______ _______ _____ _____    ______ ____
ROOT
ATOM      1  C   UNL     1       2.423   7.197  19.471  0.00  0.00    +0.000 A 
ATOM      2  C   UNL     1       1.634   7.771  20.470  0.00  0.00    +0.000 A 
ATOM      3  C   UNL     1       0.978   8.985  20.250  0.00  0.00    +0.000 A 
ATOM      4  C   UNL     1       1.110   9.643  19.030  0.00  0.00    +0.000 A 
ATOM      5  C   UNL     1       1.865   9.060  18.011  0.00  0.00    +0.000 A 
ATOM      6  C   UNL     1       2.550   7.860  18.245  0.00  0.00    +0.000 A 
ENDROOT
BRANCH   1   9
ATOM      7  C   UNL     1       2.805   4.780  18.991  0.00  0.00    +0.000 C 
ATOM      8  O   UNL     1       1.928   4.603  18.152  0.00  0.00    +0.000 OA
ATOM      9  N   UNL     1       3.107   5.972  19.630  0.00  0.00    +0.000 N 
ATOM     10  H   UNL     1       3.969   6.011  20.160  0.00  0.00    +0.000 HD
BRANCH   7  11
ATOM     11  C   UNL     1       3.636   3.617  19.477  0.00  0.00    +0.000 C 
BRANCH  11  12
ATOM     12  CA  UNL     1       2.716   2.495  19.951  0.00  0.00    +0.000 C 
BRANCH  12  13
ATOM     13  N   UNL     1       1.890   1.898  18.857  0.00  0.00    +0.000 NA
ATOM     14  H1  UNL     1       2.466   1.854  18.009  0.00  0.00    +0.000 HD
ATOM     15  H2  UNL     1       1.125   2.541  18.627  0.00  0.00    +0.000 HD
ENDBRANCH  12  13
BRANCH  12  16
ATOM     16  C   UNL     1       1.757   3.006  21.035  0.00  0.00    +0.000 C 
ATOM     17  O   UNL     1       2.048   3.240  22.198  0.00  0.00    +0.000 OA
BRANCH  16  18
ATOM     18  OXT UNL     1       0.503   3.174  20.534  0.00  0.00    +0.000 OA
ATOM     19  HXT UNL     1       0.476   2.670  19.682  0.00  0.00    +0.000 HD
ENDBRANCH  16  18
ENDBRANCH  12  16
ENDBRANCH  11  12
ENDBRANCH   7  11
ENDBRANCH   1   9
BRANCH   4  20
ATOM     20  O   UNL     1       0.422  10.827  18.910  0.00  0.00    +0.000 OA
BRANCH  20  21
ATOM     21  C   UNL     1      -0.893  10.819  18.500  0.00  0.00    +0.000 A 
ATOM     22  C   UNL     1      -1.351  10.046  17.425  0.00  0.00    +0.000 A 
ATOM     23  C   UNL     1      -2.701  10.042  17.104  0.00  0.00    +0.000 A 
ATOM     24  F   UNL     1      -3.136   9.240  16.121  0.00  0.00    +0.000 F 
ATOM     25  C   UNL     1      -3.595  10.842  17.803  0.00  0.00    +0.000 A 
ATOM     26  F   UNL     1      -4.899  10.819  17.496  0.00  0.00    +0.000 F 
ATOM     27  C   UNL     1      -3.147  11.677  18.819  0.00  0.00    +0.000 A 
ATOM     28  C   UNL     1      -1.794  11.667  19.165  0.00  0.00    +0.000 A 
ATOM     29 BR   UNL     1      -1.220  12.844  20.541  0.00  0.00    +0.000 Br
ENDBRANCH  20  21
ENDBRANCH   4  20
TORSDOF 8
ENDMDL
MODEL 2
REMARK VINA RESULT:      -7.6      1.379      2.144
REMARK  Name = 
REMARK  8 active torsions:
REMARK  status: ('A' for Active; 'I' for Inactive)
REMARK    1  A    between atoms: N_1  and  CA_2
REMARK    2  A    between atoms: CA_2  and  C_3
REMARK    3  A    between atoms: CA_2  and  C_23
REMARK    4  A    between atoms: C_3  and  C_4
REMARK    5  A    between atoms: N_6  and  C_7
REMARK    6  A    between atoms: C_10  and  O_11
REMARK    7  A    between atoms: O_11  and  C_12
REMARK    8  A    between atoms: C_23  and  OXT_25
REMARK                            x       y       z     vdW  Elec       q    Type
REMARK                         _______ _______ _______ _____ _____    ______ ____
ROOT
ATOM      1  C   UNL     1       2.306   7.182  19.685  0.00  0.00    +0.000 A 
ATOM      2  C   UNL     1       2.436   7.727  18.406  0.00  0.00    +0.000 A 
ATOM      3  C   UNL     1       1.805   8.929  18.075  0.00  0.00    +0.000 A 
ATOM      4  C   UNL     1       1.028   9.596  19.019  0.00  0.00    +0.000 A 
ATOM      5  C   UNL     1       0.922   9.081  20.312  0.00  0.00    +0.000 A 
ATOM      6  C   UNL     1       1.527   7.858  20.631  0.00  0.00    +0.000 A 
ENDROOT
BRANCH   1   9
ATOM      7  C   UNL     1       2.529   4.699  19.712  0.00  0.00    +0.000 C 
ATOM      8  O   UNL     1       1.616   4.409  18.945  0.00  0.00    +0.000 OA
ATOM      9  N   UNL     1       2.921   5.975  20.082  0.00  0.00    +0.000 N 
ATOM     10  H   UNL     1       3.801   6.068  20.575  0.00  0.00    +0.000 HD
BRANCH   7  11
ATOM     11  C   UNL     1       3.305   3.610  20.413  0.00  0.00    +0.000 C 
BRANCH  11  12
ATOM     12  CA  UNL     1       4.205   2.896  19.407  0.00  0.00    +0.000 C 
BRANCH  12  13
ATOM     13  N   UNL     1       4.988   1.769  20.002  0.00  0.00    +0.000 NA
ATOM     14  H1  UNL     1       5.967   2.065  20.078  0.00  0.00    +0.000 HD
ATOM     15  H2  UNL     1       4.995   0.983  19.344  0.00  0.00    +0.000 HD
ENDBRANCH  12  13
BRANCH  12  16
ATOM     16  C   UNL     1       5.205   3.882  18.785  0.00  0.00    +0.000 C 
ATOM     17  O   UNL     1       5.881   4.697  19.393  0.00  0.00    +0.000 OA
BRANCH  16  18
ATOM     18  OXT UNL     1       5.251   3.736  17.433  0.00  0.00    +0.000 OA
ATOM     19  HXT UNL     1       6.186   3.503  17.211  0.00  0.00    +0.000 HD
ENDBRANCH  16  18
ENDBRANCH  12  16
ENDBRANCH  11  12
ENDBRANCH   7  11
ENDBRANCH   1   9
BRANCH   4  20
ATOM     20  O   UNL     1       0.454  10.772  18.598  0.00  0.00    +0.000 OA
BRANCH  20  21
ATOM     21  C   UNL     1      -0.891  10.813  18.303  0.00  0.00    +0.000 A 
ATOM     22  C   UNL     1      -1.468  10.056  17.274  0.00  0.00    +0.000 A 
ATOM     23  C   UNL     1      -2.840  10.103  17.071  0.00  0.00    +0.000 A 
ATOM     24  F   UNL     1      -3.388   9.317  16.132  0.00  0.00    +0.000 F 
ATOM     25  C   UNL     1      -3.640  10.936  17.840  0.00  0.00    +0.000 A 
ATOM     26  F   UNL     1      -4.966  10.963  17.647  0.00  0.00    +0.000 F 
ATOM     27  C   UNL     1      -3.076  11.755  18.811  0.00  0.00    +0.000 A 
ATOM     28  C   UNL     1      -1.699  11.695  19.039  0.00  0.00    +0.000 A 
ATOM     29 BR   UNL     1      -0.965  12.851  20.355  0.00  0.00    +0.000 Br
ENDBRANCH  20  21
ENDBRANCH   4  20
TORSDOF 8
ENDMDL
MODEL 3
REMARK VINA RESULT:      -7.6      1.259      1.692
REMARK  Name = 
REMARK  8 active torsions:
REMARK  status: ('A' for Active; 'I' for Inactive)
REMARK    1  A    between atoms: N_1  and  CA_2
REMARK    2  A    between atoms: CA_2  and  C_3
REMARK    3  A    between atoms: CA_2  and  C_23
REMARK    4  A    between atoms: C_3  and  C_4
REMARK    5  A    between atoms: N_6  and  C_7
REMARK    6  A    between atoms: C_10  and  O_11
REMARK    7  A    between atoms: O_11  and  C_12
REMARK    8  A    between atoms: C_23  and  OXT_25
REMARK                            x       y       z     vdW  Elec       q    Type
REMARK                         _______ _______ _______ _____ _____    ______ ____
ROOT
ATOM      1  C   UNL     1       2.283   6.718  19.892  0.00  0.00    +0.000 A 
ATOM      2  C   UNL     1       1.598   7.596  20.734  0.00  0.00    +0.000 A 
ATOM      3  C   UNL     1       1.179   8.846  20.270  0.00  0.00    +0.000 A 
ATOM      4  C   UNL     1       1.447   9.234  18.960  0.00  0.00    +0.000 A 
ATOM      5  C   UNL     1       2.098   8.349  18.098  0.00  0.00    +0.000 A 
ATOM      6  C   UNL     1       2.548   7.111  18.575  0.00  0.00    +0.000 A 
ENDROOT
BRANCH   1   9
ATOM      7  C   UNL     1       1.948   4.304  20.422  0.00  0.00    +0.000 C 
ATOM      8  O   UNL     1       0.754   4.206  20.154  0.00  0.00    +0.000 OA
ATOM      9  N   UNL     1       2.729   5.441  20.299  0.00  0.00    +0.000 N 
ATOM     10  H   UNL     1       3.733   5.328  20.382  0.00  0.00    +0.000 HD
BRANCH   7  11
ATOM     11  C   UNL     1       2.692   3.130  21.010  0.00  0.00    +0.000 C 
BRANCH  11  12
ATOM     12  CA  UNL     1       3.594   2.511  19.946  0.00  0.00    +0.000 C 
BRANCH  12  13
ATOM     13  N   UNL     1       4.767   3.365  19.587  0.00  0.00    +0.000 NA
ATOM     14  H1  UNL     1       4.414   4.258  19.225  0.00  0.00    +0.000 HD
ATOM     15  H2  UNL     1       5.266   2.936  18.801  0.00  0.00    +0.000 HD
ENDBRANCH  12  13
BRANCH  12  16
ATOM     16  C   UNL     1       2.801   2.241  18.658  0.00  0.00    +0.000 C 
ATOM     17  O   UNL     1       3.062   2.682  17.550  0.00  0.00    +0.000 OA
BRANCH  16  18
ATOM     18  OXT UNL     1       1.738   1.429  18.905  0.00  0.00    +0.000 OA
ATOM     19  HXT UNL     1       1.540   0.966  18.053  0.00  0.00    +0.000 HD
ENDBRANCH  16  18
ENDBRANCH  12  16
ENDBRANCH  11  12
ENDBRANCH   7  11
ENDBRANCH   1   9
BRANCH   4  20
ATOM     20  O   UNL     1       0.988  10.479  18.598  0.00  0.00    +0.000 OA
BRANCH  20  21
ATOM     21  C   UNL     1      -0.365  10.704  18.477  0.00  0.00    +0.000 A 
ATOM     22  C   UNL     1      -1.183   9.974  17.604  0.00  0.00    +0.000 A 
ATOM     23  C   UNL     1      -2.549  10.215  17.576  0.00  0.00    +0.000 A 
ATOM     24  F   UNL     1      -3.330   9.458  16.791  0.00  0.00    +0.000 F 
ATOM     25  C   UNL     1      -3.106  11.213  18.363  0.00  0.00    +0.000 A 
ATOM     26  F   UNL     1      -4.429  11.428  18.341  0.00  0.00    +0.000 F 
ATOM     27  C   UNL     1      -2.300  12.003  19.175  0.00  0.00    +0.000 A 
ATOM     28  C   UNL     1      -0.928  11.749  19.228  0.00  0.00    +0.000 A 
ATOM     29 BR   UNL     1       0.141  12.869  20.328  0.00  0.00    +0.000 Br
ENDBRANCH  20  21
ENDBRANCH   4  20
TORSDOF 8
ENDMDL
MODEL 4
REMARK VINA RESULT:      -7.6      1.564      2.083
REMARK  Name = 
REMARK  8 active torsions:
REMARK  status: ('A' for Active; 'I' for Inactive)
REMARK    1  A    between atoms: N_1  and  CA_2
REMARK    2  A    between atoms: CA_2  and  C_3
REMARK    3  A    between atoms: CA_2  and  C_23
REMARK    4  A    between atoms: C_3  and  C_4
REMARK    5  A    between atoms: N_6  and  C_7
REMARK    6  A    between atoms: C_10  and  O_11
REMARK    7  A    between atoms: O_11  and  C_12
REMARK    8  A    between atoms: C_23  and  OXT_25
REMARK                            x       y       z     vdW  Elec       q    Type
REMARK                         _______ _______ _______ _____ _____    ______ ____
ROOT
ATOM      1  C   UNL     1       2.595   6.636  18.481  0.00  0.00    +0.000 A 
ATOM      2  C   UNL     1       2.605   7.675  17.547  0.00  0.00    +0.000 A 
ATOM      3  C   UNL     1       2.114   8.940  17.883  0.00  0.00    +0.000 A 
ATOM      4  C   UNL     1       1.599   9.178  19.155  0.00  0.00    +0.000 A 
ATOM      5  C   UNL     1       1.619   8.158  20.108  0.00  0.00    +0.000 A 
ATOM      6  C   UNL     1       2.079   6.882  19.759  0.00  0.00    +0.000 A 
ENDROOT
BRANCH   1   9
ATOM      7  C   UNL     1       2.340   4.282  17.700  0.00  0.00    +0.000 C 
ATOM      8  O   UNL     1       1.160   4.310  17.367  0.00  0.00    +0.000 OA
ATOM      9  N   UNL     1       3.079   5.340  18.205  0.00  0.00    +0.000 N 
ATOM     10  H   UNL     1       4.083   5.220  18.265  0.00  0.00    +0.000 HD
BRANCH   7  11
ATOM     11  C   UNL     1       3.113   2.987  17.646  0.00  0.00    +0.000 C 
BRANCH  11  12
ATOM     12  CA  UNL     1       3.243   2.410  19.054  0.00  0.00    +0.000 C 
BRANCH  12  13
ATOM     13  N   UNL     1       2.264   2.987  20.027  0.00  0.00    +0.000 NA
ATOM     14  H1  UNL     1       1.335   2.974  19.592  0.00  0.00    +0.000 HD
ATOM     15  H2  UNL     1       2.479   3.979  20.169  0.00  0.00    +0.000 HD
ENDBRANCH  12  13
BRANCH  12  16
ATOM     16  C   UNL     1       4.653   2.655  19.609  0.00  0.00    +0.000 C 
ATOM     17  O   UNL     1       5.282   3.700  19.535  0.00  0.00    +0.000 OA
BRANCH  16  18
ATOM     18  OXT UNL     1       5.138   1.536  20.212  0.00  0.00    +0.000 OA
ATOM     19  HXT UNL     1       5.345   0.898  19.485  0.00  0.00    +0.000 HD
ENDBRANCH  16  18
ENDBRANCH  12  16
ENDBRANCH  11  12
ENDBRANCH   7  11
ENDBRANCH   1   9
BRANCH   4  20
ATOM     20  O   UNL     1       1.146  10.455  19.388  0.00  0.00    +0.000 OA
BRANCH  20  21
ATOM     21  C   UNL     1      -0.159  10.785  19.096  0.00  0.00    +0.000 A 
ATOM     22  C   UNL     1      -0.933  10.079  18.165  0.00  0.00    +0.000 A 
ATOM     23  C   UNL     1      -2.260  10.432  17.964  0.00  0.00    +0.000 A 
ATOM     24  F   UNL     1      -3.010   9.700  17.127  0.00  0.00    +0.000 F 
ATOM     25  C   UNL     1      -2.812  11.515  18.634  0.00  0.00    +0.000 A 
ATOM     26  F   UNL     1      -4.098  11.838  18.445  0.00  0.00    +0.000 F 
ATOM     27  C   UNL     1      -2.037  12.278  19.499  0.00  0.00    +0.000 A 
ATOM     28  C   UNL     1      -0.708  11.913  19.727  0.00  0.00    +0.000 A 
ATOM     29 BR   UNL     1       0.324  12.999  20.895  0.00  0.00    +0.000 Br
ENDBRANCH  20  21
ENDBRANCH   4  20
TORSDOF 8
ENDMDL
MODEL 5
REMARK VINA RESULT:      -7.6      1.400      1.623
REMARK  Name = 
REMARK  8 active torsions:
REMARK  status: ('A' for Active; 'I' for Inactive)
REMARK    1  A    between atoms: N_1  and  CA_2
REMARK    2  A    between atoms: CA_2  and  C_3
REMARK    3  A    between atoms: CA_2  and  C_23
REMARK    4  A    between atoms: C_3  and  C_4
REMARK    5  A    between atoms: N_6  and  C_7
REMARK    6  A    between atoms: C_10  and  O_11
REMARK    7  A    between atoms: O_11  and  C_12
REMARK    8  A    between atoms: C_23  and  OXT_25
REMARK                            x       y       z     vdW  Elec       q    Type
REMARK                         _______ _______ _______ _____ _____    ______ ____
ROOT
ATOM      1  C   UNL     1       2.657   6.524  18.677  0.00  0.00    +0.000 A 
ATOM      2  C   UNL     1       2.119   6.684  19.956  0.00  0.00    +0.000 A 
ATOM      3  C   UNL     1       1.545   7.898  20.341  0.00  0.00    +0.000 A 
ATOM      4  C   UNL     1       1.508   8.970  19.453  0.00  0.00    +0.000 A 
ATOM      5  C   UNL     1       2.007   8.810  18.159  0.00  0.00    +0.000 A 
ATOM      6  C   UNL     1       2.614   7.603  17.786  0.00  0.00    +0.000 A 
ENDROOT
BRANCH   1   9
ATOM      7  C   UNL     1       2.581   4.251  17.655  0.00  0.00    +0.000 C 
ATOM      8  O   UNL     1       1.382   4.186  17.403  0.00  0.00    +0.000 OA
ATOM      9  N   UNL     1       3.247   5.323  18.227  0.00  0.00    +0.000 N 
ATOM     10  H   UNL     1       4.259   5.307  18.208  0.00  0.00    +0.000 HD
BRANCH   7  11
ATOM     11  C   UNL     1       3.474   3.060  17.406  0.00  0.00    +0.000 C 
BRANCH  11  12
ATOM     12  CA  UNL     1       3.203   1.990  18.461  0.00  0.00    +0.000 C 
BRANCH  12  13
ATOM     13  N   UNL     1       1.749   1.710  18.668  0.00  0.00    +0.000 NA
ATOM     14  H1  UNL     1       1.216   2.512  18.314  0.00  0.00    +0.000 HD
ATOM     15  H2  UNL     1       1.554   1.681  19.674  0.00  0.00    +0.000 HD
ENDBRANCH  12  13
BRANCH  12  16
ATOM     16  C   UNL     1       3.796   2.406  19.815  0.00  0.00    +0.000 C 
ATOM     17  O   UNL     1       3.236   3.078  20.667  0.00  0.00    +0.000 OA
BRANCH  16  18
ATOM     18  OXT UNL     1       5.060   1.922  19.960  0.00  0.00    +0.000 OA
ATOM     19  HXT UNL     1       5.004   0.948  19.794  0.00  0.00    +0.000 HD
ENDBRANCH  16  18
ENDBRANCH  12  16
ENDBRANCH  11  12
ENDBRANCH   7  11
ENDBRANCH   1   9
BRANCH   4  20
ATOM     20  O   UNL     1       0.917  10.118  19.924  0.00  0.00    +0.000 OA
BRANCH  20  21
ATOM     21  C   UNL     1      -0.280  10.544  19.391  0.00  0.00    +0.000 A 
ATOM     22  C   UNL     1      -0.833   9.995  18.226  0.00  0.00    +0.000 A 
ATOM     23  C   UNL     1      -2.071  10.433  17.779  0.00  0.00    +0.000 A 
ATOM     24  F   UNL     1      -2.621   9.847  16.705  0.00  0.00    +0.000 F 
ATOM     25  C   UNL     1      -2.743  11.450  18.443  0.00  0.00    +0.000 A 
ATOM     26  F   UNL     1      -3.945  11.855  18.012  0.00  0.00    +0.000 F 
ATOM     27  C   UNL     1      -2.174  12.063  19.553  0.00  0.00    +0.000 A 
ATOM     28  C   UNL     1      -0.939  11.610  20.024  0.00  0.00    +0.000 A 
ATOM     29 BR   UNL     1      -0.184  12.493  21.527  0.00  0.00    +0.000 Br
ENDBRANCH  20  21
ENDBRANCH   4  20
TORSDOF 8
ENDMDL
MODEL 6
REMARK VINA RESULT:      -7.5      1.397      1.740
REMARK  Name = 
REMARK  8 active torsions:
REMARK  status: ('A' for Active; 'I' for Inactive)
REMARK    1  A    between atoms: N_1  and  CA_2
REMARK    2  A    between atoms: CA_2  and  C_3
REMARK    3  A    between atoms: CA_2  and  C_23
REMARK    4  A    between atoms: C_3  and  C_4
REMARK    5  A    between atoms: N_6  and  C_7
REMARK    6  A    between atoms: C_10  and  O_11
REMARK    7  A    between atoms: O_11  and  C_12
REMARK    8  A    between atoms: C_23  and  OXT_25
REMARK                            x       y       z     vdW  Elec       q    Type
REMARK                         _______ _______ _______ _____ _____    ______ ____
ROOT
ATOM      1  C   UNL     1       2.203   7.421  19.697  0.00  0.00    +0.000 A 
ATOM      2  C   UNL     1       1.426   8.149  20.600  0.00  0.00    +0.000 A 
ATOM      3  C   UNL     1       0.786   9.326  20.201  0.00  0.00    +0.000 A 
ATOM      4  C   UNL     1       0.925   9.793  18.897  0.00  0.00    +0.000 A 
ATOM      5  C   UNL     1       1.668   9.053  17.976  0.00  0.00    +0.000 A 
ATOM      6  C   UNL     1       2.336   7.892  18.386  0.00  0.00    +0.000 A 
ENDROOT
BRANCH   1   9
ATOM      7  C   UNL     1       2.387   4.938  19.847  0.00  0.00    +0.000 C 
ATOM      8  O   UNL     1       1.327   4.628  19.315  0.00  0.00    +0.000 OA
ATOM      9  N   UNL     1       2.870   6.223  20.036  0.00  0.00    +0.000 N 
ATOM     10  H   UNL     1       3.837   6.321  20.323  0.00  0.00    +0.000 HD
BRANCH   7  11
ATOM     11  C   UNL     1       3.278   3.874  20.440  0.00  0.00    +0.000 C 
BRANCH  11  12
ATOM     12  CA  UNL     1       4.306   3.431  19.401  0.00  0.00    +0.000 C 
BRANCH  12  13
ATOM     13  N   UNL     1       4.072   4.015  18.045  0.00  0.00    +0.000 NA
ATOM     14  H1  UNL     1       3.990   5.032  18.144  0.00  0.00    +0.000 HD
ATOM     15  H2  UNL     1       3.158   3.705  17.700  0.00  0.00    +0.000 HD
ENDBRANCH  12  13
BRANCH  12  16
ATOM     16  C   UNL     1       4.303   1.902  19.259  0.00  0.00    +0.000 C 
ATOM     17  O   UNL     1       3.597   1.253  18.502  0.00  0.00    +0.000 OA
BRANCH  16  18
ATOM     18  OXT UNL     1       5.207   1.335  20.103  0.00  0.00    +0.000 OA
ATOM     19  HXT UNL     1       5.359   0.416  19.768  0.00  0.00    +0.000 HD
ENDBRANCH  16  18
ENDBRANCH  12  16
ENDBRANCH  11  12
ENDBRANCH   7  11
ENDBRANCH   1   9
BRANCH   4  20
ATOM     20  O   UNL     1       0.253  10.956  18.603  0.00  0.00    +0.000 OA
BRANCH  20  21
ATOM     21  C   UNL     1      -1.081  10.911  18.262  0.00  0.00    +0.000 A 
ATOM     22  C   UNL     1      -1.574  10.125  17.212  0.00  0.00    +0.000 A 
ATOM     23  C   UNL     1      -2.938  10.085  16.962  0.00  0.00    +0.000 A 
ATOM     24  F   UNL     1      -3.402   9.271  16.003  0.00  0.00    +0.000 F 
ATOM     25  C   UNL     1      -3.816  10.859  17.708  0.00  0.00    +0.000 A 
ATOM     26  F   UNL     1      -5.133  10.801  17.470  0.00  0.00    +0.000 F 
ATOM     27  C   UNL     1      -3.338  11.707  18.701  0.00  0.00    +0.000 A 
ATOM     28  C   UNL     1      -1.969  11.734  18.975  0.00  0.00    +0.000 A 
ATOM     29 BR   UNL     1      -1.356  12.927  20.319  0.00  0.00    +0.000 Br
ENDBRANCH  20  21
ENDBRANCH   4  20
TORSDOF 8
ENDMDL
MODEL 7
REMARK VINA RESULT:      -7.5      1.334      2.022
REMARK  Name = 
REMARK  8 active torsions:
REMARK  status: ('A' for Active; 'I' for Inactive)
REMARK    1  A    between atoms: N_1  and  CA_2
REMARK    2  A    between atoms: CA_2  and  C_3
REMARK    3  A    between atoms: CA_2  and  C_23
REMARK    4  A    between atoms: C_3  and  C_4
REMARK    5  A    between atoms: N_6  and  C_7
REMARK    6  A    between atoms: C_10  and  O_11
REMARK    7  A    between atoms: O_11  and  C_12
REMARK    8  A    between atoms: C_23  and  OXT_25
REMARK                            x       y       z     vdW  Elec       q    Type
REMARK                         _______ _______ _______ _____ _____    ______ ____
ROOT
ATOM      1  C   UNL     1       2.216   7.389  19.710  0.00  0.00    +0.000 A 
ATOM      2  C   UNL     1       1.418   8.081  20.624  0.00  0.00    +0.000 A 
ATOM      3  C   UNL     1       0.775   9.265  20.255  0.00  0.00    +0.000 A 
ATOM      4  C   UNL     1       0.929   9.776  18.969  0.00  0.00    +0.000 A 
ATOM      5  C   UNL     1       1.692   9.073  18.035  0.00  0.00    +0.000 A 
ATOM      6  C   UNL     1       2.364   7.905  18.417  0.00  0.00    +0.000 A 
ENDROOT
BRANCH   1   9
ATOM      7  C   UNL     1       2.455   4.907  19.711  0.00  0.00    +0.000 C 
ATOM      8  O   UNL     1       1.445   4.610  19.081  0.00  0.00    +0.000 OA
ATOM      9  N   UNL     1       2.888   6.187  20.019  0.00  0.00    +0.000 N 
ATOM     10  H   UNL     1       3.828   6.286  20.383  0.00  0.00    +0.000 HD
BRANCH   7  11
ATOM     11  C   UNL     1       3.328   3.825  20.298  0.00  0.00    +0.000 C 
BRANCH  11  12
ATOM     12  CA  UNL     1       4.049   3.084  19.175  0.00  0.00    +0.000 C 
BRANCH  12  13
ATOM     13  N   UNL     1       4.891   1.946  19.656  0.00  0.00    +0.000 NA
ATOM     14  H1  UNL     1       4.730   1.831  20.662  0.00  0.00    +0.000 HD
ATOM     15  H2  UNL     1       5.880   2.202  19.571  0.00  0.00    +0.000 HD
ENDBRANCH  12  13
BRANCH  12  16
ATOM     16  C   UNL     1       4.961   4.043  18.395  0.00  0.00    +0.000 C 
ATOM     17  O   UNL     1       4.601   4.836  17.539  0.00  0.00    +0.000 OA
BRANCH  16  18
ATOM     18  OXT UNL     1       6.257   3.902  18.782  0.00  0.00    +0.000 OA
ATOM     19  HXT UNL     1       6.743   3.544  17.997  0.00  0.00    +0.000 HD
ENDBRANCH  16  18
ENDBRANCH  12  16
ENDBRANCH  11  12
ENDBRANCH   7  11
ENDBRANCH   1   9
BRANCH   4  20
ATOM     20  O   UNL     1       0.251  10.943  18.703  0.00  0.00    +0.000 OA
BRANCH  20  21
ATOM     21  C   UNL     1      -1.073  10.897  18.326  0.00  0.00    +0.000 A 
ATOM     22  C   UNL     1      -1.537  10.103  17.268  0.00  0.00    +0.000 A 
ATOM     23  C   UNL     1      -2.894  10.063  16.982  0.00  0.00    +0.000 A 
ATOM     24  F   UNL     1      -3.333   9.241  16.016  0.00  0.00    +0.000 F 
ATOM     25  C   UNL     1      -3.791  10.846  17.696  0.00  0.00    +0.000 A 
ATOM     26  F   UNL     1      -5.101  10.788  17.421  0.00  0.00    +0.000 F 
ATOM     27  C   UNL     1      -3.340  11.701  18.694  0.00  0.00    +0.000 A 
ATOM     28  C   UNL     1      -1.979  11.729  19.005  0.00  0.00    +0.000 A 
ATOM     29 BR   UNL     1      -1.400  12.932  20.356  0.00  0.00    +0.000 Br
ENDBRANCH  20  21
ENDBRANCH   4  20
TORSDOF 8
ENDMDL
MODEL 8
REMARK VINA RESULT:      -7.5      1.439      1.944
REMARK  Name = 
REMARK  8 active torsions:
REMARK  status: ('A' for Active; 'I' for Inactive)
REMARK    1  A    between atoms: N_1  and  CA_2
REMARK    2  A    between atoms: CA_2  and  C_3
REMARK    3  A    between atoms: CA_2  and  C_23
REMARK    4  A    between atoms: C_3  and  C_4
REMARK    5  A    between atoms: N_6  and  C_7
REMARK    6  A    between atoms: C_10  and  O_11
REMARK    7  A    between atoms: O_11  and  C_12
REMARK    8  A    between atoms: C_23  and  OXT_25
REMARK                            x       y       z     vdW  Elec       q    Type
REMARK                         _______ _______ _______ _____ _____    ______ ____
ROOT
ATOM      1  C   UNL     1       2.556   7.050  18.753  0.00  0.00    +0.000 A 
ATOM      2  C   UNL     1       2.547   7.996  17.725  0.00  0.00    +0.000 A 
ATOM      3  C   UNL     1       1.931   9.238  17.905  0.00  0.00    +0.000 A 
ATOM      4  C   UNL     1       1.311   9.545  19.113  0.00  0.00    +0.000 A 
ATOM      5  C   UNL     1       1.347   8.623  20.160  0.00  0.00    +0.000 A 
ATOM      6  C   UNL     1       1.933   7.365  19.967  0.00  0.00    +0.000 A 
ENDROOT
BRANCH   1   9
ATOM      7  C   UNL     1       2.593   4.653  18.070  0.00  0.00    +0.000 C 
ATOM      8  O   UNL     1       1.489   4.580  17.539  0.00  0.00    +0.000 OA
ATOM      9  N   UNL     1       3.163   5.781  18.636  0.00  0.00    +0.000 N 
ATOM     10  H   UNL     1       4.147   5.738  18.873  0.00  0.00    +0.000 HD
BRANCH   7  11
ATOM     11  C   UNL     1       3.445   3.416  18.221  0.00  0.00    +0.000 C 
BRANCH  11  12
ATOM     12  CA  UNL     1       4.411   3.600  19.388  0.00  0.00    +0.000 C 
BRANCH  12  13
ATOM     13  N   UNL     1       5.839   3.737  18.965  0.00  0.00    +0.000 NA
ATOM     14  H1  UNL     1       6.140   4.697  19.164  0.00  0.00    +0.000 HD
ATOM     15  H2  UNL     1       5.895   3.644  17.945  0.00  0.00    +0.000 HD
ENDBRANCH  12  13
BRANCH  12  16
ATOM     16  C   UNL     1       4.322   2.409  20.354  0.00  0.00    +0.000 C 
ATOM     17  O   UNL     1       3.562   2.312  21.305  0.00  0.00    +0.000 OA
BRANCH  16  18
ATOM     18  OXT UNL     1       5.219   1.443  20.016  0.00  0.00    +0.000 OA
ATOM     19  HXT UNL     1       5.879   1.875  19.418  0.00  0.00    +0.000 HD
ENDBRANCH  16  18
ENDBRANCH  12  16
ENDBRANCH  11  12
ENDBRANCH   7  11
ENDBRANCH   1   9
BRANCH   4  20
ATOM     20  O   UNL     1       0.740  10.793  19.192  0.00  0.00    +0.000 OA
BRANCH  20  21
ATOM     21  C   UNL     1      -0.596  10.957  18.899  0.00  0.00    +0.000 A 
ATOM     22  C   UNL     1      -1.270  10.175  17.951  0.00  0.00    +0.000 A 
ATOM     23  C   UNL     1      -2.630  10.357  17.749  0.00  0.00    +0.000 A 
ATOM     24  F   UNL     1      -3.276   9.550  16.894  0.00  0.00    +0.000 F 
ATOM     25  C   UNL     1      -3.320  11.346  18.435  0.00  0.00    +0.000 A 
ATOM     26  F   UNL     1      -4.637  11.504  18.244  0.00  0.00    +0.000 F 
ATOM     27  C   UNL     1      -2.653  12.187  19.319  0.00  0.00    +0.000 A 
ATOM     28  C   UNL     1      -1.289  11.993  19.547  0.00  0.00    +0.000 A 
ATOM     29 BR   UNL     1      -0.410  13.181  20.740  0.00  0.00    +0.000 Br
ENDBRANCH  20  21
ENDBRANCH   4  20
TORSDOF 8
ENDMDL
MODEL 9
REMARK VINA RESULT:      -7.5      1.316      1.852
REMARK  Name = 
REMARK  8 active torsions:
REMARK  status: ('A' for Active; 'I' for Inactive)
REMARK    1  A    between atoms: N_1  and  CA_2
REMARK    2  A    between atoms: CA_2  and  C_3
REMARK    3  A    between atoms: CA_2  and  C_23
REMARK    4  A    between atoms: C_3  and  C_4
REMARK    5  A    between atoms: N_6  and  C_7
REMARK    6  A    between atoms: C_10  and  O_11
REMARK    7  A    between atoms: O_11  and  C_12
REMARK    8  A    between atoms: C_23  and  OXT_25
REMARK                            x       y       z     vdW  Elec       q    Type
REMARK                         _______ _______ _______ _____ _____    ______ ____
ROOT
ATOM      1  C   UNL     1       2.343   7.353  19.442  0.00  0.00    +0.000 A 
ATOM      2  C   UNL     1       2.371   7.994  18.202  0.00  0.00    +0.000 A 
ATOM      3  C   UNL     1       1.669   9.186  18.001  0.00  0.00    +0.000 A 
ATOM      4  C   UNL     1       0.924   9.745  19.035  0.00  0.00    +0.000 A 
ATOM      5  C   UNL     1       0.919   9.133  20.290  0.00  0.00    +0.000 A 
ATOM      6  C   UNL     1       1.595   7.920  20.480  0.00  0.00    +0.000 A 
ENDROOT
BRANCH   1   9
ATOM      7  C   UNL     1       2.515   4.870  19.601  0.00  0.00    +0.000 C 
ATOM      8  O   UNL     1       1.392   4.568  19.211  0.00  0.00    +0.000 OA
ATOM      9  N   UNL     1       3.033   6.151  19.711  0.00  0.00    +0.000 N 
ATOM     10  H   UNL     1       4.029   6.238  19.872  0.00  0.00    +0.000 HD
BRANCH   7  11
ATOM     11  C   UNL     1       3.461   3.801  20.092  0.00  0.00    +0.000 C 
BRANCH  11  12
ATOM     12  CA  UNL     1       4.020   3.028  18.900  0.00  0.00    +0.000 C 
BRANCH  12  13
ATOM     13  N   UNL     1       3.941   3.780  17.610  0.00  0.00    +0.000 NA
ATOM     14  H1  UNL     1       4.535   3.302  16.924  0.00  0.00    +0.000 HD
ATOM     15  H2  UNL     1       4.366   4.704  17.736  0.00  0.00    +0.000 HD
ENDBRANCH  12  13
BRANCH  12  16
ATOM     16  C   UNL     1       3.265   1.703  18.715  0.00  0.00    +0.000 C 
ATOM     17  O   UNL     1       2.073   1.524  18.911  0.00  0.00    +0.000 OA
BRANCH  16  18
ATOM     18  OXT UNL     1       4.106   0.720  18.295  0.00  0.00    +0.000 OA
ATOM     19  HXT UNL     1       3.882  -0.083  18.828  0.00  0.00    +0.000 HD
ENDBRANCH  16  18
ENDBRANCH  12  16
ENDBRANCH  11  12
ENDBRANCH   7  11
ENDBRANCH   1   9
BRANCH   4  20
ATOM     20  O   UNL     1       0.275  10.920  18.738  0.00  0.00    +0.000 OA
BRANCH  20  21
ATOM     21  C   UNL     1      -1.048  10.896  18.354  0.00  0.00    +0.000 A 
ATOM     22  C   UNL     1      -1.520  10.108  17.295  0.00  0.00    +0.000 A 
ATOM     23  C   UNL     1      -2.875  10.090  17.002  0.00  0.00    +0.000 A 
ATOM     24  F   UNL     1      -3.323   9.274  16.035  0.00  0.00    +0.000 F 
ATOM     25  C   UNL     1      -3.763  10.888  17.710  0.00  0.00    +0.000 A 
ATOM     26  F   UNL     1      -5.073  10.851  17.429  0.00  0.00    +0.000 F 
ATOM     27  C   UNL     1      -3.303  11.737  18.710  0.00  0.00    +0.000 A 
ATOM     28  C   UNL     1      -1.944  11.742  19.028  0.00  0.00    +0.000 A 
ATOM     29 BR   UNL     1      -1.353  12.938  20.381  0.00  0.00    +0.000 Br
ENDBRANCH  20  21
ENDBRANCH   4  20
TORSDOF 8
ENDMDL
