MODEL 1
REMARK VINA RESULT:      -7.2      0.000      0.000
REMARK  Name = 
REMARK  2 active torsions:
REMARK  status: ('A' for Active; 'I' for Inactive)
REMARK    1  A    between atoms: C_4  and  C_5
REMARK    2  A    between atoms: C_5  and  C_6
REMARK                            x       y       z     vdW  Elec       q    Type
REMARK                         _______ _______ _______ _____ _____    ______ ____
ROOT
ATOM      1  C   UNL     1       4.085   5.636  17.607  0.00  0.00    +0.000 C 
ATOM      2  C   UNL     1       3.293   6.798  18.214  0.00  0.00    +0.000 C 
ATOM      3  O   UNL     1       2.588   6.433  19.406  0.00  0.00    +0.000 OA
ATOM      4  C   UNL     1       2.131   5.142  19.388  0.00  0.00    +0.000 A 
ATOM      5  C   UNL     1       1.449   4.705  20.521  0.00  0.00    +0.000 A 
ATOM      6  C   UNL     1       1.059   3.370  20.627  0.00  0.00    +0.000 A 
ATOM      7  C   UNL     1       1.304   2.482  19.577  0.00  0.00    +0.000 A 
ATOM      8  C   UNL     1       1.954   2.924  18.426  0.00  0.00    +0.000 A 
ATOM      9  C   UNL     1       2.400   4.241  18.352  0.00  0.00    +0.000 A 
ATOM     10  O   UNL     1       3.186   4.565  17.275  0.00  0.00    +0.000 OA
ENDROOT
BRANCH   1  11
ATOM     11  C   UNL     1       5.233   5.140  18.511  0.00  0.00    +0.000 C 
BRANCH  11  15
ATOM     12  C   UNL     1       6.804   4.418  15.505  0.00  0.00    +0.000 C 
ATOM     13  N   UNL     1       7.416   5.556  15.623  0.00  0.00    +0.000 NA
ATOM     14  C   UNL     1       7.155   5.950  17.040  0.00  0.00    +0.000 C 
ATOM     15  C   UNL     1       6.480   4.737  17.726  0.00  0.00    +0.000 C 
ATOM     16  N   UNL     1       6.137   3.915  16.576  0.00  0.00    +0.000 N 
ATOM     17  H   UNL     1       6.189   2.910  16.705  0.00  0.00    +0.000 HD
ENDBRANCH  11  15
ENDBRANCH   1  11
TORSDOF 2
ENDMDL
MODEL 2
REMARK VINA RESULT:      -7.1      1.692      2.229
REMARK  Name = 
REMARK  2 active torsions:
REMARK  status: ('A' for Active; 'I' for Inactive)
REMARK    1  A    between atoms: C_4  and  C_5
REMARK    2  A    between atoms: C_5  and  C_6
REMARK                            x       y       z     vdW  Elec       q    Type
REMARK                         _______ _______ _______ _____ _____    ______ ____
ROOT
ATOM      1  C   UNL     1       4.003   3.507  17.487  0.00  0.00    +0.000 C 
ATOM      2  C   UNL     1       2.652   3.184  16.841  0.00  0.00    +0.000 C 
ATOM      3  O   UNL     1       1.547   3.363  17.734  0.00  0.00    +0.000 OA
ATOM      4  C   UNL     1       1.849   3.057  19.034  0.00  0.00    +0.000 A 
ATOM      5  C   UNL     1       0.829   3.222  19.967  0.00  0.00    +0.000 A 
ATOM      6  C   UNL     1       1.094   3.046  21.326  0.00  0.00    +0.000 A 
ATOM      7  C   UNL     1       2.366   2.652  21.747  0.00  0.00    +0.000 A 
ATOM      8  C   UNL     1       3.379   2.449  20.812  0.00  0.00    +0.000 A 
ATOM      9  C   UNL     1       3.129   2.691  19.464  0.00  0.00    +0.000 A 
ATOM     10  O   UNL     1       4.210   2.647  18.620  0.00  0.00    +0.000 OA
ENDROOT
BRANCH   1  11
ATOM     11  C   UNL     1       4.154   4.992  17.879  0.00  0.00    +0.000 C 
BRANCH  11  15
ATOM     12  C   UNL     1       7.588   4.665  17.519  0.00  0.00    +0.000 C 
ATOM     13  N   UNL     1       7.586   5.858  17.009  0.00  0.00    +0.000 NA
ATOM     14  C   UNL     1       6.228   6.382  17.346  0.00  0.00    +0.000 C 
ATOM     15  C   UNL     1       5.576   5.355  18.304  0.00  0.00    +0.000 C 
ATOM     16  N   UNL     1       6.475   4.221  18.161  0.00  0.00    +0.000 N 
ATOM     17  H   UNL     1       6.631   3.657  18.990  0.00  0.00    +0.000 HD
ENDBRANCH  11  15
ENDBRANCH   1  11
TORSDOF 2
ENDMDL
MODEL 3
REMARK VINA RESULT:      -6.8      2.747      5.663
REMARK  Name = 
REMARK  2 active torsions:
REMARK  status: ('A' for Active; 'I' for Inactive)
REMARK    1  A    between atoms: C_4  and  C_5
REMARK    2  A    between atoms: C_5  and  C_6
REMARK                            x       y       z     vdW  Elec       q    Type
REMARK                         _______ _______ _______ _____ _____    ______ ____
ROOT
ATOM      1  C   UNL     1       3.768   4.593  18.366  0.00  0.00    +0.000 C 
ATOM      2  C   UNL     1       4.731   3.508  18.858  0.00  0.00    +0.000 C 
ATOM      3  O   UNL     1       5.974   4.036  19.333  0.00  0.00    +0.000 OA
ATOM      4  C   UNL     1       6.384   5.149  18.649  0.00  0.00    +0.000 A 
ATOM      5  C   UNL     1       7.579   5.732  19.065  0.00  0.00    +0.000 A 
ATOM      6  C   UNL     1       8.000   6.935  18.498  0.00  0.00    +0.000 A 
ATOM      7  C   UNL     1       7.254   7.528  17.477  0.00  0.00    +0.000 A 
ATOM      8  C   UNL     1       6.078   6.928  17.032  0.00  0.00    +0.000 A 
ATOM      9  C   UNL     1       5.626   5.763  17.647  0.00  0.00    +0.000 A 
ATOM     10  O   UNL     1       4.377   5.322  17.288  0.00  0.00    +0.000 OA
ENDROOT
BRANCH   1  11
ATOM     11  C   UNL     1       3.296   5.545  19.486  0.00  0.00    +0.000 C 
BRANCH  11  15
ATOM     12  C   UNL     1       0.879   3.123  20.050  0.00  0.00    +0.000 C 
ATOM     13  N   UNL     1       1.355   3.017  21.253  0.00  0.00    +0.000 NA
ATOM     14  C   UNL     1       2.234   4.217  21.390  0.00  0.00    +0.000 C 
ATOM     15  C   UNL     1       1.990   5.098  20.139  0.00  0.00    +0.000 C 
ATOM     16  N   UNL     1       1.260   4.178  19.282  0.00  0.00    +0.000 N 
ATOM     17  H   UNL     1       0.542   4.582  18.690  0.00  0.00    +0.000 HD
ENDBRANCH  11  15
ENDBRANCH   1  11
TORSDOF 2
ENDMDL
MODEL 4
REMARK VINA RESULT:      -6.7      1.511      2.085
REMARK  Name = 
REMARK  2 active torsions:
REMARK  status: ('A' for Active; 'I' for Inactive)
REMARK    1  A    between atoms: C_4  and  C_5
REMARK    2  A    between atoms: C_5  and  C_6
REMARK                            x       y       z     vdW  Elec       q    Type
REMARK                         _______ _______ _______ _____ _____    ______ ____
ROOT
ATOM      1  C   UNL     1       4.841   5.098  17.420  0.00  0.00    +0.000 C 
ATOM      2  C   UNL     1       5.611   4.743  18.695  0.00  0.00    +0.000 C 
ATOM      3  O   UNL     1       5.072   3.604  19.376  0.00  0.00    +0.000 OA
ATOM      4  C   UNL     1       3.710   3.508  19.270  0.00  0.00    +0.000 A 
ATOM      5  C   UNL     1       3.112   2.415  19.892  0.00  0.00    +0.000 A 
ATOM      6  C   UNL     1       1.746   2.183  19.728  0.00  0.00    +0.000 A 
ATOM      7  C   UNL     1       0.967   3.073  18.985  0.00  0.00    +0.000 A 
ATOM      8  C   UNL     1       1.556   4.188  18.392  0.00  0.00    +0.000 A 
ATOM      9  C   UNL     1       2.931   4.379  18.503  0.00  0.00    +0.000 A 
ATOM     10  O   UNL     1       3.473   5.391  17.751  0.00  0.00    +0.000 OA
ENDROOT
BRANCH   1  11
ATOM     11  C   UNL     1       4.929   4.010  16.329  0.00  0.00    +0.000 C 
BRANCH  11  15
ATOM     12  C   UNL     1       7.019   4.457  13.597  0.00  0.00    +0.000 C 
ATOM     13  N   UNL     1       7.534   5.463  14.234  0.00  0.00    +0.000 NA
ATOM     14  C   UNL     1       7.018   5.299  15.626  0.00  0.00    +0.000 C 
ATOM     15  C   UNL     1       6.311   3.922  15.684  0.00  0.00    +0.000 C 
ATOM     16  N   UNL     1       6.214   3.593  14.270  0.00  0.00    +0.000 N 
ATOM     17  H   UNL     1       6.304   2.613  14.025  0.00  0.00    +0.000 HD
ENDBRANCH  11  15
ENDBRANCH   1  11
TORSDOF 2
ENDMDL
MODEL 5
REMARK VINA RESULT:      -6.7      1.140      1.334
REMARK  Name = 
REMARK  2 active torsions:
REMARK  status: ('A' for Active; 'I' for Inactive)
REMARK    1  A    between atoms: C_4  and  C_5
REMARK    2  A    between atoms: C_5  and  C_6
REMARK                            x       y       z     vdW  Elec       q    Type
REMARK                         _______ _______ _______ _____ _____    ______ ____
ROOT
ATOM      1  C   UNL     1       3.065   5.168  17.428  0.00  0.00    +0.000 C 
ATOM      2  C   UNL     1       3.137   6.356  18.392  0.00  0.00    +0.000 C 
ATOM      3  O   UNL     1       3.163   5.960  19.768  0.00  0.00    +0.000 OA
ATOM      4  C   UNL     1       2.425   4.834  20.019  0.00  0.00    +0.000 A 
ATOM      5  C   UNL     1       2.414   4.376  21.334  0.00  0.00    +0.000 A 
ATOM      6  C   UNL     1       1.785   3.170  21.645  0.00  0.00    +0.000 A 
ATOM      7  C   UNL     1       1.121   2.448  20.650  0.00  0.00    +0.000 A 
ATOM      8  C   UNL     1       1.097   2.924  19.340  0.00  0.00    +0.000 A 
ATOM      9  C   UNL     1       1.783   4.093  19.022  0.00  0.00    +0.000 A 
ATOM     10  O   UNL     1       1.872   4.410  17.690  0.00  0.00    +0.000 OA
ENDROOT
BRANCH   1  11
ATOM     11  C   UNL     1       4.318   4.267  17.472  0.00  0.00    +0.000 C 
BRANCH  11  15
ATOM     12  C   UNL     1       7.779   4.384  17.662  0.00  0.00    +0.000 C 
ATOM     13  N   UNL     1       7.777   4.655  16.393  0.00  0.00    +0.000 NA
ATOM     14  C   UNL     1       6.351   4.991  16.108  0.00  0.00    +0.000 C 
ATOM     15  C   UNL     1       5.623   5.061  17.473  0.00  0.00    +0.000 C 
ATOM     16  N   UNL     1       6.610   4.453  18.351  0.00  0.00    +0.000 N 
ATOM     17  H   UNL     1       6.667   4.822  19.295  0.00  0.00    +0.000 HD
ENDBRANCH  11  15
ENDBRANCH   1  11
TORSDOF 2
ENDMDL
MODEL 6
REMARK VINA RESULT:      -6.5      2.400      5.193
REMARK  Name = 
REMARK  2 active torsions:
REMARK  status: ('A' for Active; 'I' for Inactive)
REMARK    1  A    between atoms: C_4  and  C_5
REMARK    2  A    between atoms: C_5  and  C_6
REMARK                            x       y       z     vdW  Elec       q    Type
REMARK                         _______ _______ _______ _____ _____    ______ ____
ROOT
ATOM      1  C   UNL     1       2.889   5.737  19.329  0.00  0.00    +0.000 C 
ATOM      2  C   UNL     1       2.798   7.080  18.599  0.00  0.00    +0.000 C 
ATOM      3  O   UNL     1       3.552   7.109  17.382  0.00  0.00    +0.000 OA
ATOM      4  C   UNL     1       4.700   6.364  17.441  0.00  0.00    +0.000 A 
ATOM      5  C   UNL     1       5.480   6.328  16.288  0.00  0.00    +0.000 A 
ATOM      6  C   UNL     1       6.599   5.496  16.232  0.00  0.00    +0.000 A 
ATOM      7  C   UNL     1       6.968   4.740  17.347  0.00  0.00    +0.000 A 
ATOM      8  C   UNL     1       6.210   4.802  18.515  0.00  0.00    +0.000 A 
ATOM      9  C   UNL     1       5.057   5.582  18.545  0.00  0.00    +0.000 A 
ATOM     10  O   UNL     1       4.262   5.462  19.656  0.00  0.00    +0.000 OA
ENDROOT
BRANCH   1  11
ATOM     11  C   UNL     1       2.259   4.569  18.542  0.00  0.00    +0.000 C 
BRANCH  11  15
ATOM     12  C   UNL     1       2.927   2.550  21.281  0.00  0.00    +0.000 C 
ATOM     13  N   UNL     1       1.894   3.088  21.852  0.00  0.00    +0.000 NA
ATOM     14  C   UNL     1       1.202   3.793  20.732  0.00  0.00    +0.000 C 
ATOM     15  C   UNL     1       1.917   3.370  19.425  0.00  0.00    +0.000 C 
ATOM     16  N   UNL     1       3.118   2.741  19.949  0.00  0.00    +0.000 N 
ATOM     17  H   UNL     1       3.478   1.947  19.430  0.00  0.00    +0.000 HD
ENDBRANCH  11  15
ENDBRANCH   1  11
TORSDOF 2
ENDMDL
MODEL 7
REMARK VINA RESULT:      -6.5      1.084      1.197
REMARK  Name = 
REMARK  2 active torsions:
REMARK  status: ('A' for Active; 'I' for Inactive)
REMARK    1  A    between atoms: C_4  and  C_5
REMARK    2  A    between atoms: C_5  and  C_6
REMARK                            x       y       z     vdW  Elec       q    Type
REMARK                         _______ _______ _______ _____ _____    ______ ____
ROOT
ATOM      1  C   UNL     1       3.600   6.146  18.208  0.00  0.00    +0.000 C 
ATOM      2  C   UNL     1       2.724   6.956  19.168  0.00  0.00    +0.000 C 
ATOM      3  O   UNL     1       2.092   6.149  20.167  0.00  0.00    +0.000 OA
ATOM      4  C   UNL     1       1.755   4.900  19.717  0.00  0.00    +0.000 A 
ATOM      5  C   UNL     1       1.150   4.047  20.637  0.00  0.00    +0.000 A 
ATOM      6  C   UNL     1       0.887   2.722  20.289  0.00  0.00    +0.000 A 
ATOM      7  C   UNL     1       1.181   2.263  19.003  0.00  0.00    +0.000 A 
ATOM      8  C   UNL     1       1.752   3.124  18.068  0.00  0.00    +0.000 A 
ATOM      9  C   UNL     1       2.073   4.427  18.440  0.00  0.00    +0.000 A 
ATOM     10  O   UNL     1       2.793   5.165  17.535  0.00  0.00    +0.000 OA
ENDROOT
BRANCH   1  11
ATOM     11  C   UNL     1       4.816   5.489  18.897  0.00  0.00    +0.000 C 
BRANCH  11  15
ATOM     12  C   UNL     1       7.878   4.490  17.612  0.00  0.00    +0.000 C 
ATOM     13  N   UNL     1       7.377   4.687  16.431  0.00  0.00    +0.000 NA
ATOM     14  C   UNL     1       6.124   5.452  16.705  0.00  0.00    +0.000 C 
ATOM     15  C   UNL     1       6.140   5.817  18.210  0.00  0.00    +0.000 C 
ATOM     16  N   UNL     1       7.213   4.966  18.697  0.00  0.00    +0.000 N 
ATOM     17  H   UNL     1       7.787   5.341  19.445  0.00  0.00    +0.000 HD
ENDBRANCH  11  15
ENDBRANCH   1  11
TORSDOF 2
ENDMDL
MODEL 8
REMARK VINA RESULT:      -6.5      2.695      5.492
REMARK  Name = 
REMARK  2 active torsions:
REMARK  status: ('A' for Active; 'I' for Inactive)
REMARK    1  A    between atoms: C_4  and  C_5
REMARK    2  A    between atoms: C_5  and  C_6
REMARK                            x       y       z     vdW  Elec       q    Type
REMARK                         _______ _______ _______ _____ _____    ______ ____
ROOT
ATOM      1  C   UNL     1       4.632   4.202  19.366  0.00  0.00    +0.000 C 
ATOM      2  C   UNL     1       3.964   5.567  19.178  0.00  0.00    +0.000 C 
ATOM      3  O   UNL     1       3.954   6.004  17.815  0.00  0.00    +0.000 OA
ATOM      4  C   UNL     1       5.063   5.610  17.115  0.00  0.00    +0.000 A 
ATOM      5  C   UNL     1       5.119   5.982  15.773  0.00  0.00    +0.000 A 
ATOM      6  C   UNL     1       6.157   5.516  14.965  0.00  0.00    +0.000 A 
ATOM      7  C   UNL     1       7.167   4.721  15.510  0.00  0.00    +0.000 A 
ATOM      8  C   UNL     1       7.134   4.377  16.860  0.00  0.00    +0.000 A 
ATOM      9  C   UNL     1       6.062   4.789  17.648  0.00  0.00    +0.000 A 
ATOM     10  O   UNL     1       5.996   4.271  18.916  0.00  0.00    +0.000 OA
ENDROOT
BRANCH   1  11
ATOM     11  C   UNL     1       3.874   3.050  18.672  0.00  0.00    +0.000 C 
BRANCH  11  15
ATOM     12  C   UNL     1       2.036   2.934  21.611  0.00  0.00    +0.000 C 
ATOM     13  N   UNL     1       0.979   3.128  20.884  0.00  0.00    +0.000 NA
ATOM     14  C   UNL     1       1.462   2.890  19.491  0.00  0.00    +0.000 C 
ATOM     15  C   UNL     1       2.902   2.330  19.604  0.00  0.00    +0.000 C 
ATOM     16  N   UNL     1       3.204   2.606  20.999  0.00  0.00    +0.000 N 
ATOM     17  H   UNL     1       3.787   1.928  21.480  0.00  0.00    +0.000 HD
ENDBRANCH  11  15
ENDBRANCH   1  11
TORSDOF 2
ENDMDL
MODEL 9
REMARK VINA RESULT:      -6.4      1.861      2.667
REMARK  Name = 
REMARK  2 active torsions:
REMARK  status: ('A' for Active; 'I' for Inactive)
REMARK    1  A    between atoms: C_4  and  C_5
REMARK    2  A    between atoms: C_5  and  C_6
REMARK                            x       y       z     vdW  Elec       q    Type
REMARK                         _______ _______ _______ _____ _____    ______ ____
ROOT
ATOM      1  C   UNL     1       5.672   5.513  17.639  0.00  0.00    +0.000 C 
ATOM      2  C   UNL     1       6.124   5.179  19.063  0.00  0.00    +0.000 C 
ATOM      3  O   UNL     1       5.614   3.926  19.533  0.00  0.00    +0.000 OA
ATOM      4  C   UNL     1       4.362   3.642  19.057  0.00  0.00    +0.000 A 
ATOM      5  C   UNL     1       3.802   2.430  19.457  0.00  0.00    +0.000 A 
ATOM      6  C   UNL     1       2.583   2.016  18.919  0.00  0.00    +0.000 A 
ATOM      7  C   UNL     1       1.897   2.837  18.022  0.00  0.00    +0.000 A 
ATOM      8  C   UNL     1       2.436   4.067  17.649  0.00  0.00    +0.000 A 
ATOM      9  C   UNL     1       3.684   4.447  18.136  0.00  0.00    +0.000 A 
ATOM     10  O   UNL     1       4.237   5.579  17.594  0.00  0.00    +0.000 OA
ENDROOT
BRANCH   1  11
ATOM     11  C   UNL     1       6.218   4.534  16.578  0.00  0.00    +0.000 C 
BRANCH  11  15
ATOM     12  C   UNL     1       7.518   4.932  13.387  0.00  0.00    +0.000 C 
ATOM     13  N   UNL     1       6.631   4.074  12.986  0.00  0.00    +0.000 NA
ATOM     14  C   UNL     1       5.693   3.971  14.143  0.00  0.00    +0.000 C 
ATOM     15  C   UNL     1       6.102   5.072  15.153  0.00  0.00    +0.000 C 
ATOM     16  N   UNL     1       7.401   5.467  14.631  0.00  0.00    +0.000 N 
ATOM     17  H   UNL     1       7.648   6.447  14.722  0.00  0.00    +0.000 HD
ENDBRANCH  11  15
ENDBRANCH   1  11
TORSDOF 2
ENDMDL
