MODEL 1
REMARK VINA RESULT:      -7.5      0.000      0.000
REMARK  Name = 
REMARK  15 active torsions:
REMARK  status: ('A' for Active; 'I' for Inactive)
REMARK    1  A    between atoms: C_1  and  C_2
REMARK    2  A    between atoms: C_2  and  C_3
REMARK    3  A    between atoms: C_2  and  C_4
REMARK    4  A    between atoms: C_2  and  C_5
REMARK    5  A    between atoms: C_8  and  O_9
REMARK    6  A    between atoms: C_10  and  C_11
REMARK    7  A    between atoms: C_11  and  N_12
REMARK    8  A    between atoms: N_12  and  C_13
REMARK    9  A    between atoms: N_12  and  C_25
REMARK   10  A    between atoms: C_13  and  C_14
REMARK   11  A    between atoms: C_16  and  C_17
REMARK   12  A    between atoms: C_17  and  C_18
REMARK   13  A    between atoms: C_17  and  C_19
REMARK   14  A    between atoms: C_17  and  C_20
REMARK   15  A    between atoms: C_23  and  O_24
REMARK                            x       y       z     vdW  Elec       q    Type
REMARK                         _______ _______ _______ _____ _____    ______ ____
ROOT
ATOM      1  N   UNL     1       3.672   4.386  18.336  0.00  0.00    +0.000 N 
ENDROOT
BRANCH   1   2
ATOM      2  C   UNL     1       2.679   3.787  19.126  0.00  0.00    +0.000 A 
ATOM      3  C   UNL     1       2.806   3.642  20.515  0.00  0.00    +0.000 A 
ATOM      4  C   UNL     1       1.825   2.994  21.263  0.00  0.00    +0.000 A 
ATOM      5  C   UNL     1       0.685   2.507  20.641  0.00  0.00    +0.000 A 
ATOM      6  C   UNL     1       0.516   2.671  19.276  0.00  0.00    +0.000 A 
ATOM      7  C   UNL     1       1.510   3.309  18.520  0.00  0.00    +0.000 A 
ENDBRANCH   1   2
BRANCH   1   8
ATOM      8  C   UNL     1       4.716   3.531  17.714  0.00  0.00    +0.000 C 
BRANCH   8  13
ATOM      9  C   UNL     1       6.049   4.259  14.066  0.00  0.00    +0.000 A 
ATOM     10  C   UNL     1       7.147   5.061  14.400  0.00  0.00    +0.000 A 
ATOM     11  C   UNL     1       7.515   5.203  15.723  0.00  0.00    +0.000 A 
ATOM     12  C   UNL     1       6.759   4.566  16.700  0.00  0.00    +0.000 A 
ATOM     13  C   UNL     1       5.481   4.034  16.476  0.00  0.00    +0.000 A 
ATOM     14  C   UNL     1       5.150   3.871  15.115  0.00  0.00    +0.000 A 
BRANCH   9  16
ATOM     15  C   UNL     1       4.586   3.880  11.945  0.00  0.00    +0.000 C 
ATOM     16  C   UNL     1       5.957   3.657  12.642  0.00  0.00    +0.000 C 
ATOM     17  C   UNL     1       6.229   2.148  12.643  0.00  0.00    +0.000 C 
ATOM     18  C   UNL     1       6.993   4.376  11.753  0.00  0.00    +0.000 C 
ENDBRANCH   9  16
BRANCH  12  19
ATOM     19  O   UNL     1       7.430   4.224  17.848  0.00  0.00    +0.000 OA
ATOM     20  H   UNL     1       6.726   3.810  18.388  0.00  0.00    +0.000 HD
ENDBRANCH  12  19
ENDBRANCH   8  13
ENDBRANCH   1   8
BRANCH   1  21
ATOM     21  C   UNL     1       4.170   5.692  18.891  0.00  0.00    +0.000 C 
BRANCH  21  22
ATOM     22  C   UNL     1       3.224   6.885  18.742  0.00  0.00    +0.000 A 
ATOM     23  C   UNL     1       2.304   7.213  19.764  0.00  0.00    +0.000 A 
ATOM     24  C   UNL     1       1.501   8.381  19.726  0.00  0.00    +0.000 A 
ATOM     25  C   UNL     1       1.526   9.134  18.542  0.00  0.00    +0.000 A 
ATOM     26  C   UNL     1       2.384   8.796  17.492  0.00  0.00    +0.000 A 
ATOM     27  C   UNL     1       3.248   7.706  17.619  0.00  0.00    +0.000 A 
BRANCH  24  28
ATOM     28  C   UNL     1       0.880   8.957  21.017  0.00  0.00    +0.000 C 
ATOM     29  C   UNL     1       0.520  10.416  20.654  0.00  0.00    +0.000 C 
ATOM     30  C   UNL     1      -0.415   8.263  21.504  0.00  0.00    +0.000 C 
ATOM     31  C   UNL     1       1.838   8.969  22.230  0.00  0.00    +0.000 C 
ENDBRANCH  24  28
BRANCH  27  32
ATOM     32  O   UNL     1       4.157   7.457  16.628  0.00  0.00    +0.000 OA
ATOM     33  H   UNL     1       4.664   6.666  16.879  0.00  0.00    +0.000 HD
ENDBRANCH  27  32
ENDBRANCH  21  22
ENDBRANCH   1  21
TORSDOF 9
ENDMDL
MODEL 2
REMARK VINA RESULT:      -7.5      0.202      1.163
REMARK  Name = 
REMARK  15 active torsions:
REMARK  status: ('A' for Active; 'I' for Inactive)
REMARK    1  A    between atoms: C_1  and  C_2
REMARK    2  A    between atoms: C_2  and  C_3
REMARK    3  A    between atoms: C_2  and  C_4
REMARK    4  A    between atoms: C_2  and  C_5
REMARK    5  A    between atoms: C_8  and  O_9
REMARK    6  A    between atoms: C_10  and  C_11
REMARK    7  A    between atoms: C_11  and  N_12
REMARK    8  A    between atoms: N_12  and  C_13
REMARK    9  A    between atoms: N_12  and  C_25
REMARK   10  A    between atoms: C_13  and  C_14
REMARK   11  A    between atoms: C_16  and  C_17
REMARK   12  A    between atoms: C_17  and  C_18
REMARK   13  A    between atoms: C_17  and  C_19
REMARK   14  A    between atoms: C_17  and  C_20
REMARK   15  A    between atoms: C_23  and  O_24
REMARK                            x       y       z     vdW  Elec       q    Type
REMARK                         _______ _______ _______ _____ _____    ______ ____
ROOT
ATOM      1  N   UNL     1       3.686   4.395  18.320  0.00  0.00    +0.000 N 
ENDROOT
BRANCH   1   2
ATOM      2  C   UNL     1       2.606   3.739  18.931  0.00  0.00    +0.000 A 
ATOM      3  C   UNL     1       1.560   3.163  18.195  0.00  0.00    +0.000 A 
ATOM      4  C   UNL     1       0.475   2.567  18.834  0.00  0.00    +0.000 A 
ATOM      5  C   UNL     1       0.431   2.507  20.219  0.00  0.00    +0.000 A 
ATOM      6  C   UNL     1       1.469   3.034  20.970  0.00  0.00    +0.000 A 
ATOM      7  C   UNL     1       2.553   3.649  20.328  0.00  0.00    +0.000 A 
ENDBRANCH   1   2
BRANCH   1   8
ATOM      8  C   UNL     1       4.804   3.588  17.767  0.00  0.00    +0.000 C 
BRANCH   8  13
ATOM      9  C   UNL     1       6.077   4.265  14.088  0.00  0.00    +0.000 A 
ATOM     10  C   UNL     1       7.184   5.068  14.393  0.00  0.00    +0.000 A 
ATOM     11  C   UNL     1       7.575   5.225  15.708  0.00  0.00    +0.000 A 
ATOM     12  C   UNL     1       6.834   4.603  16.706  0.00  0.00    +0.000 A 
ATOM     13  C   UNL     1       5.550   4.074  16.509  0.00  0.00    +0.000 A 
ATOM     14  C   UNL     1       5.195   3.894  15.157  0.00  0.00    +0.000 A 
BRANCH   9  16
ATOM     15  C   UNL     1       4.575   3.859  11.999  0.00  0.00    +0.000 C 
ATOM     16  C   UNL     1       5.959   3.646  12.674  0.00  0.00    +0.000 C 
ATOM     17  C   UNL     1       6.232   2.137  12.688  0.00  0.00    +0.000 C 
ATOM     18  C   UNL     1       6.978   4.355  11.756  0.00  0.00    +0.000 C 
ENDBRANCH   9  16
BRANCH  12  19
ATOM     19  O   UNL     1       7.523   4.273  17.846  0.00  0.00    +0.000 OA
ATOM     20  H   UNL     1       7.567   5.129  18.320  0.00  0.00    +0.000 HD
ENDBRANCH  12  19
ENDBRANCH   8  13
ENDBRANCH   1   8
BRANCH   1  21
ATOM     21  C   UNL     1       4.102   5.651  19.034  0.00  0.00    +0.000 C 
BRANCH  21  22
ATOM     22  C   UNL     1       3.180   6.859  18.854  0.00  0.00    +0.000 A 
ATOM     23  C   UNL     1       2.282   7.243  19.876  0.00  0.00    +0.000 A 
ATOM     24  C   UNL     1       1.504   8.426  19.807  0.00  0.00    +0.000 A 
ATOM     25  C   UNL     1       1.527   9.136  18.596  0.00  0.00    +0.000 A 
ATOM     26  C   UNL     1       2.362   8.741  17.547  0.00  0.00    +0.000 A 
ATOM     27  C   UNL     1       3.205   7.638  17.702  0.00  0.00    +0.000 A 
BRANCH  24  28
ATOM     28  C   UNL     1       0.914   9.063  21.084  0.00  0.00    +0.000 C 
ATOM     29  C   UNL     1      -0.371   8.249  21.363  0.00  0.00    +0.000 C 
ATOM     30  C   UNL     1       1.805   8.976  22.347  0.00  0.00    +0.000 C 
ATOM     31  C   UNL     1       0.535  10.553  20.932  0.00  0.00    +0.000 C 
ENDBRANCH  24  28
BRANCH  27  32
ATOM     32  O   UNL     1       4.094   7.333  16.708  0.00  0.00    +0.000 OA
ATOM     33  H   UNL     1       4.991   7.403  17.077  0.00  0.00    +0.000 HD
ENDBRANCH  27  32
ENDBRANCH  21  22
ENDBRANCH   1  21
TORSDOF 9
ENDMDL
MODEL 3
REMARK VINA RESULT:      -7.3      0.321      1.410
REMARK  Name = 
REMARK  15 active torsions:
REMARK  status: ('A' for Active; 'I' for Inactive)
REMARK    1  A    between atoms: C_1  and  C_2
REMARK    2  A    between atoms: C_2  and  C_3
REMARK    3  A    between atoms: C_2  and  C_4
REMARK    4  A    between atoms: C_2  and  C_5
REMARK    5  A    between atoms: C_8  and  O_9
REMARK    6  A    between atoms: C_10  and  C_11
REMARK    7  A    between atoms: C_11  and  N_12
REMARK    8  A    between atoms: N_12  and  C_13
REMARK    9  A    between atoms: N_12  and  C_25
REMARK   10  A    between atoms: C_13  and  C_14
REMARK   11  A    between atoms: C_16  and  C_17
REMARK   12  A    between atoms: C_17  and  C_18
REMARK   13  A    between atoms: C_17  and  C_19
REMARK   14  A    between atoms: C_17  and  C_20
REMARK   15  A    between atoms: C_23  and  O_24
REMARK                            x       y       z     vdW  Elec       q    Type
REMARK                         _______ _______ _______ _____ _____    ______ ____
ROOT
ATOM      1  N   UNL     1       3.636   4.335  18.466  0.00  0.00    +0.000 N 
ENDROOT
BRANCH   1   2
ATOM      2  C   UNL     1       2.751   3.755  19.388  0.00  0.00    +0.000 A 
ATOM      3  C   UNL     1       1.381   3.609  19.127  0.00  0.00    +0.000 A 
ATOM      4  C   UNL     1       0.519   3.079  20.086  0.00  0.00    +0.000 A 
ATOM      5  C   UNL     1       1.017   2.657  21.309  0.00  0.00    +0.000 A 
ATOM      6  C   UNL     1       2.372   2.754  21.579  0.00  0.00    +0.000 A 
ATOM      7  C   UNL     1       3.237   3.303  20.621  0.00  0.00    +0.000 A 
ENDBRANCH   1   2
BRANCH   1   8
ATOM      8  C   UNL     1       4.614   3.469  17.757  0.00  0.00    +0.000 C 
BRANCH   8  13
ATOM      9  C   UNL     1       6.017   4.335  14.167  0.00  0.00    +0.000 A 
ATOM     10  C   UNL     1       7.094   5.144  14.552  0.00  0.00    +0.000 A 
ATOM     11  C   UNL     1       7.429   5.250  15.887  0.00  0.00    +0.000 A 
ATOM     12  C   UNL     1       6.662   4.569  16.826  0.00  0.00    +0.000 A 
ATOM     13  C   UNL     1       5.399   4.024  16.554  0.00  0.00    +0.000 A 
ATOM     14  C   UNL     1       5.102   3.899  15.182  0.00  0.00    +0.000 A 
BRANCH   9  16
ATOM     15  C   UNL     1       7.009   4.414  11.760  0.00  0.00    +0.000 C 
ATOM     16  C   UNL     1       5.968   3.778  12.723  0.00  0.00    +0.000 C 
ATOM     17  C   UNL     1       4.585   3.964  12.087  0.00  0.00    +0.000 C 
ATOM     18  C   UNL     1       6.322   2.277  12.779  0.00  0.00    +0.000 C 
ENDBRANCH   9  16
BRANCH  12  19
ATOM     19  O   UNL     1       7.313   4.201  17.977  0.00  0.00    +0.000 OA
ATOM     20  H   UNL     1       8.068   3.682  17.634  0.00  0.00    +0.000 HD
ENDBRANCH  12  19
ENDBRANCH   8  13
ENDBRANCH   1   8
BRANCH   1  21
ATOM     21  C   UNL     1       4.174   5.666  18.911  0.00  0.00    +0.000 C 
BRANCH  21  22
ATOM     22  C   UNL     1       3.230   6.859  18.744  0.00  0.00    +0.000 A 
ATOM     23  C   UNL     1       2.307   7.201  19.759  0.00  0.00    +0.000 A 
ATOM     24  C   UNL     1       1.506   8.369  19.703  0.00  0.00    +0.000 A 
ATOM     25  C   UNL     1       1.534   9.107  18.509  0.00  0.00    +0.000 A 
ATOM     26  C   UNL     1       2.395   8.754  17.466  0.00  0.00    +0.000 A 
ATOM     27  C   UNL     1       3.258   7.665  17.610  0.00  0.00    +0.000 A 
BRANCH  24  28
ATOM     28  C   UNL     1       0.881   8.963  20.984  0.00  0.00    +0.000 C 
ATOM     29  C   UNL     1       1.968   8.775  22.067  0.00  0.00    +0.000 C 
ATOM     30  C   UNL     1       0.539  10.472  20.923  0.00  0.00    +0.000 C 
ATOM     31  C   UNL     1      -0.410   8.252  21.448  0.00  0.00    +0.000 C 
ENDBRANCH  24  28
BRANCH  27  32
ATOM     32  O   UNL     1       4.170   7.401  16.625  0.00  0.00    +0.000 OA
ATOM     33  H   UNL     1       3.886   6.595  16.162  0.00  0.00    +0.000 HD
ENDBRANCH  27  32
ENDBRANCH  21  22
ENDBRANCH   1  21
TORSDOF 9
ENDMDL
MODEL 4
REMARK VINA RESULT:      -7.3      0.214      1.111
REMARK  Name = 
REMARK  15 active torsions:
REMARK  status: ('A' for Active; 'I' for Inactive)
REMARK    1  A    between atoms: C_1  and  C_2
REMARK    2  A    between atoms: C_2  and  C_3
REMARK    3  A    between atoms: C_2  and  C_4
REMARK    4  A    between atoms: C_2  and  C_5
REMARK    5  A    between atoms: C_8  and  O_9
REMARK    6  A    between atoms: C_10  and  C_11
REMARK    7  A    between atoms: C_11  and  N_12
REMARK    8  A    between atoms: N_12  and  C_13
REMARK    9  A    between atoms: N_12  and  C_25
REMARK   10  A    between atoms: C_13  and  C_14
REMARK   11  A    between atoms: C_16  and  C_17
REMARK   12  A    between atoms: C_17  and  C_18
REMARK   13  A    between atoms: C_17  and  C_19
REMARK   14  A    between atoms: C_17  and  C_20
REMARK   15  A    between atoms: C_23  and  O_24
REMARK                            x       y       z     vdW  Elec       q    Type
REMARK                         _______ _______ _______ _____ _____    ______ ____
ROOT
ATOM      1  N   UNL     1       3.634   4.428  18.285  0.00  0.00    +0.000 N 
ENDROOT
BRANCH   1   2
ATOM      2  C   UNL     1       2.558   3.800  18.932  0.00  0.00    +0.000 A 
ATOM      3  C   UNL     1       2.486   3.676  20.327  0.00  0.00    +0.000 A 
ATOM      4  C   UNL     1       1.431   2.998  20.935  0.00  0.00    +0.000 A 
ATOM      5  C   UNL     1       0.414   2.460  20.162  0.00  0.00    +0.000 A 
ATOM      6  C   UNL     1       0.440   2.600  18.784  0.00  0.00    +0.000 A 
ATOM      7  C   UNL     1       1.509   3.268  18.170  0.00  0.00    +0.000 A 
ENDBRANCH   1   2
BRANCH   1   8
ATOM      8  C   UNL     1       4.728   3.594  17.723  0.00  0.00    +0.000 C 
BRANCH   8  13
ATOM      9  C   UNL     1       6.097   4.288  14.082  0.00  0.00    +0.000 A 
ATOM     10  C   UNL     1       7.199   5.084  14.420  0.00  0.00    +0.000 A 
ATOM     11  C   UNL     1       7.557   5.232  15.745  0.00  0.00    +0.000 A 
ATOM     12  C   UNL     1       6.788   4.607  16.720  0.00  0.00    +0.000 A 
ATOM     13  C   UNL     1       5.508   4.084  16.488  0.00  0.00    +0.000 A 
ATOM     14  C   UNL     1       5.187   3.914  15.126  0.00  0.00    +0.000 A 
BRANCH   9  16
ATOM     15  C   UNL     1       6.227   2.139  12.617  0.00  0.00    +0.000 C 
ATOM     16  C   UNL     1       6.012   3.677  12.662  0.00  0.00    +0.000 C 
ATOM     17  C   UNL     1       7.034   4.309  11.708  0.00  0.00    +0.000 C 
ATOM     18  C   UNL     1       4.583   3.909  12.127  0.00  0.00    +0.000 C 
ENDBRANCH   9  16
BRANCH  12  19
ATOM     19  O   UNL     1       7.447   4.268  17.876  0.00  0.00    +0.000 OA
ATOM     20  H   UNL     1       8.006   3.518  17.586  0.00  0.00    +0.000 HD
ENDBRANCH  12  19
ENDBRANCH   8  13
ENDBRANCH   1   8
BRANCH   1  21
ATOM     21  C   UNL     1       4.083   5.692  18.963  0.00  0.00    +0.000 C 
BRANCH  21  22
ATOM     22  C   UNL     1       3.162   6.903  18.800  0.00  0.00    +0.000 A 
ATOM     23  C   UNL     1       2.226   7.242  19.803  0.00  0.00    +0.000 A 
ATOM     24  C   UNL     1       1.444   8.424  19.753  0.00  0.00    +0.000 A 
ATOM     25  C   UNL     1       1.507   9.182  18.573  0.00  0.00    +0.000 A 
ATOM     26  C   UNL     1       2.382   8.833  17.540  0.00  0.00    +0.000 A 
ATOM     27  C   UNL     1       3.224   7.728  17.681  0.00  0.00    +0.000 A 
BRANCH  24  28
ATOM     28  C   UNL     1       0.806   9.007  21.033  0.00  0.00    +0.000 C 
ATOM     29  C   UNL     1       1.916   8.897  22.103  0.00  0.00    +0.000 C 
ATOM     30  C   UNL     1       0.381  10.493  20.951  0.00  0.00    +0.000 C 
ATOM     31  C   UNL     1      -0.438   8.235  21.527  0.00  0.00    +0.000 C 
ENDBRANCH  24  28
BRANCH  27  32
ATOM     32  O   UNL     1       4.150   7.466  16.709  0.00  0.00    +0.000 OA
ATOM     33  H   UNL     1       5.029   7.466  17.125  0.00  0.00    +0.000 HD
ENDBRANCH  27  32
ENDBRANCH  21  22
ENDBRANCH   1  21
TORSDOF 9
ENDMDL
MODEL 5
REMARK VINA RESULT:      -7.2      6.006     10.702
REMARK  Name = 
REMARK  15 active torsions:
REMARK  status: ('A' for Active; 'I' for Inactive)
REMARK    1  A    between atoms: C_1  and  C_2
REMARK    2  A    between atoms: C_2  and  C_3
REMARK    3  A    between atoms: C_2  and  C_4
REMARK    4  A    between atoms: C_2  and  C_5
REMARK    5  A    between atoms: C_8  and  O_9
REMARK    6  A    between atoms: C_10  and  C_11
REMARK    7  A    between atoms: C_11  and  N_12
REMARK    8  A    between atoms: N_12  and  C_13
REMARK    9  A    between atoms: N_12  and  C_25
REMARK   10  A    between atoms: C_13  and  C_14
REMARK   11  A    between atoms: C_16  and  C_17
REMARK   12  A    between atoms: C_17  and  C_18
REMARK   13  A    between atoms: C_17  and  C_19
REMARK   14  A    between atoms: C_17  and  C_20
REMARK   15  A    between atoms: C_23  and  O_24
REMARK                            x       y       z     vdW  Elec       q    Type
REMARK                         _______ _______ _______ _____ _____    ______ ____
ROOT
ATOM      1  N   UNL     1      -0.657  11.309  20.123  0.00  0.00    +0.000 N 
ENDROOT
BRANCH   1   2
ATOM      2  C   UNL     1       0.208  10.208  20.026  0.00  0.00    +0.000 A 
ATOM      3  C   UNL     1       0.916   9.907  18.853  0.00  0.00    +0.000 A 
ATOM      4  C   UNL     1       1.725   8.775  18.772  0.00  0.00    +0.000 A 
ATOM      5  C   UNL     1       1.865   7.941  19.871  0.00  0.00    +0.000 A 
ATOM      6  C   UNL     1       1.207   8.235  21.054  0.00  0.00    +0.000 A 
ATOM      7  C   UNL     1       0.380   9.365  21.131  0.00  0.00    +0.000 A 
ENDBRANCH   1   2
BRANCH   1   8
ATOM      8  C   UNL     1      -1.072  12.016  18.884  0.00  0.00    +0.000 C 
BRANCH   8  13
ATOM      9  C   UNL     1      -5.001  11.844  18.501  0.00  0.00    +0.000 A 
ATOM     10  C   UNL     1      -5.065  11.477  17.151  0.00  0.00    +0.000 A 
ATOM     11  C   UNL     1      -3.907  11.145  16.476  0.00  0.00    +0.000 A 
ATOM     12  C   UNL     1      -2.694  11.216  17.151  0.00  0.00    +0.000 A 
ATOM     13  C   UNL     1      -2.519  11.881  18.373  0.00  0.00    +0.000 A 
ATOM     14  C   UNL     1      -3.719  12.175  19.053  0.00  0.00    +0.000 A 
BRANCH   9  16
ATOM     15  C   UNL     1      -7.458  12.576  18.961  0.00  0.00    +0.000 C 
ATOM     16  C   UNL     1      -6.260  11.683  19.389  0.00  0.00    +0.000 C 
ATOM     17  C   UNL     1      -5.963  11.993  20.861  0.00  0.00    +0.000 C 
ATOM     18  C   UNL     1      -6.759  10.230  19.249  0.00  0.00    +0.000 C 
ENDBRANCH   9  16
BRANCH  12  19
ATOM     19  O   UNL     1      -1.713  10.364  16.710  0.00  0.00    +0.000 OA
ATOM     20  H   UNL     1      -1.952   9.522  17.150  0.00  0.00    +0.000 HD
ENDBRANCH  12  19
ENDBRANCH   8  13
ENDBRANCH   1   8
BRANCH   1  21
ATOM     21  C   UNL     1      -0.355  12.203  21.293  0.00  0.00    +0.000 C 
BRANCH  21  22
ATOM     22  C   UNL     1      -1.560  12.643  22.128  0.00  0.00    +0.000 A 
ATOM     23  C   UNL     1      -2.171  13.899  21.913  0.00  0.00    +0.000 A 
ATOM     24  C   UNL     1      -3.364  14.293  22.570  0.00  0.00    +0.000 A 
ATOM     25  C   UNL     1      -3.842  13.450  23.586  0.00  0.00    +0.000 A 
ATOM     26  C   UNL     1      -3.219  12.229  23.858  0.00  0.00    +0.000 A 
ATOM     27  C   UNL     1      -2.117  11.823  23.103  0.00  0.00    +0.000 A 
BRANCH  24  28
ATOM     28  C   UNL     1      -4.251  15.419  21.995  0.00  0.00    +0.000 C 
ATOM     29  C   UNL     1      -5.600  15.264  22.734  0.00  0.00    +0.000 C 
ATOM     30  C   UNL     1      -3.746  16.861  22.242  0.00  0.00    +0.000 C 
ATOM     31  C   UNL     1      -4.503  15.311  20.474  0.00  0.00    +0.000 C 
ENDBRANCH  24  28
BRANCH  27  32
ATOM     32  O   UNL     1      -1.590  10.577  23.310  0.00  0.00    +0.000 OA
ATOM     33  H   UNL     1      -2.172   9.930  22.878  0.00  0.00    +0.000 HD
ENDBRANCH  27  32
ENDBRANCH  21  22
ENDBRANCH   1  21
TORSDOF 9
ENDMDL
MODEL 6
REMARK VINA RESULT:      -7.1      7.418     10.425
REMARK  Name = 
REMARK  15 active torsions:
REMARK  status: ('A' for Active; 'I' for Inactive)
REMARK    1  A    between atoms: C_1  and  C_2
REMARK    2  A    between atoms: C_2  and  C_3
REMARK    3  A    between atoms: C_2  and  C_4
REMARK    4  A    between atoms: C_2  and  C_5
REMARK    5  A    between atoms: C_8  and  O_9
REMARK    6  A    between atoms: C_10  and  C_11
REMARK    7  A    between atoms: C_11  and  N_12
REMARK    8  A    between atoms: N_12  and  C_13
REMARK    9  A    between atoms: N_12  and  C_25
REMARK   10  A    between atoms: C_13  and  C_14
REMARK   11  A    between atoms: C_16  and  C_17
REMARK   12  A    between atoms: C_17  and  C_18
REMARK   13  A    between atoms: C_17  and  C_19
REMARK   14  A    between atoms: C_17  and  C_20
REMARK   15  A    between atoms: C_23  and  O_24
REMARK                            x       y       z     vdW  Elec       q    Type
REMARK                         _______ _______ _______ _____ _____    ______ ____
ROOT
ATOM      1  N   UNL     1      -0.314  11.223  19.294  0.00  0.00    +0.000 N 
ENDROOT
BRANCH   1   2
ATOM      2  C   UNL     1      -0.215  10.689  20.589  0.00  0.00    +0.000 A 
ATOM      3  C   UNL     1       0.576   9.570  20.884  0.00  0.00    +0.000 A 
ATOM      4  C   UNL     1       0.610   9.033  22.169  0.00  0.00    +0.000 A 
ATOM      5  C   UNL     1      -0.123   9.622  23.188  0.00  0.00    +0.000 A 
ATOM      6  C   UNL     1      -0.884  10.751  22.933  0.00  0.00    +0.000 A 
ATOM      7  C   UNL     1      -0.931  11.283  21.636  0.00  0.00    +0.000 A 
ENDBRANCH   1   2
BRANCH   1   8
ATOM      8  C   UNL     1      -1.153  10.526  18.285  0.00  0.00    +0.000 C 
BRANCH   8  13
ATOM      9  C   UNL     1      -4.837  11.947  18.438  0.00  0.00    +0.000 A 
ATOM     10  C   UNL     1      -5.142  11.887  17.072  0.00  0.00    +0.000 A 
ATOM     11  C   UNL     1      -4.268  11.268  16.201  0.00  0.00    +0.000 A 
ATOM     12  C   UNL     1      -3.083  10.742  16.703  0.00  0.00    +0.000 A 
ATOM     13  C   UNL     1      -2.566  11.053  17.969  0.00  0.00    +0.000 A 
ATOM     14  C   UNL     1      -3.493  11.653  18.844  0.00  0.00    +0.000 A 
BRANCH   9  16
ATOM     15  C   UNL     1      -7.016  13.220  19.081  0.00  0.00    +0.000 C 
ATOM     16  C   UNL     1      -5.985  12.121  19.462  0.00  0.00    +0.000 C 
ATOM     17  C   UNL     1      -5.455  12.458  20.861  0.00  0.00    +0.000 C 
ATOM     18  C   UNL     1      -6.787  10.803  19.507  0.00  0.00    +0.000 C 
ENDBRANCH   9  16
BRANCH  12  19
ATOM     19  O   UNL     1      -2.561   9.676  16.013  0.00  0.00    +0.000 OA
ATOM     20  H   UNL     1      -2.382   9.032  16.728  0.00  0.00    +0.000 HD
ENDBRANCH  12  19
ENDBRANCH   8  13
ENDBRANCH   1   8
BRANCH   1  21
ATOM     21  C   UNL     1       0.987  11.765  18.771  0.00  0.00    +0.000 C 
BRANCH  21  22
ATOM     22  C   UNL     1       1.095  13.290  18.699  0.00  0.00    +0.000 A 
ATOM     23  C   UNL     1       0.001  14.112  19.055  0.00  0.00    +0.000 A 
ATOM     24  C   UNL     1       0.096  15.525  19.126  0.00  0.00    +0.000 A 
ATOM     25  C   UNL     1       1.286  16.109  18.664  0.00  0.00    +0.000 A 
ATOM     26  C   UNL     1       2.362  15.318  18.250  0.00  0.00    +0.000 A 
ATOM     27  C   UNL     1       2.270  13.926  18.310  0.00  0.00    +0.000 A 
BRANCH  24  28
ATOM     28  C   UNL     1      -0.921  16.346  19.948  0.00  0.00    +0.000 C 
ATOM     29  C   UNL     1      -0.065  17.059  21.020  0.00  0.00    +0.000 C 
ATOM     30  C   UNL     1      -1.690  17.437  19.163  0.00  0.00    +0.000 C 
ATOM     31  C   UNL     1      -1.997  15.494  20.658  0.00  0.00    +0.000 C 
ENDBRANCH  24  28
BRANCH  27  32
ATOM     32  O   UNL     1       3.370  13.171  18.007  0.00  0.00    +0.000 OA
ATOM     33  H   UNL     1       4.160  13.700  18.208  0.00  0.00    +0.000 HD
ENDBRANCH  27  32
ENDBRANCH  21  22
ENDBRANCH   1  21
TORSDOF 9
ENDMDL
MODEL 7
REMARK VINA RESULT:      -7.1      7.379     10.473
REMARK  Name = 
REMARK  15 active torsions:
REMARK  status: ('A' for Active; 'I' for Inactive)
REMARK    1  A    between atoms: C_1  and  C_2
REMARK    2  A    between atoms: C_2  and  C_3
REMARK    3  A    between atoms: C_2  and  C_4
REMARK    4  A    between atoms: C_2  and  C_5
REMARK    5  A    between atoms: C_8  and  O_9
REMARK    6  A    between atoms: C_10  and  C_11
REMARK    7  A    between atoms: C_11  and  N_12
REMARK    8  A    between atoms: N_12  and  C_13
REMARK    9  A    between atoms: N_12  and  C_25
REMARK   10  A    between atoms: C_13  and  C_14
REMARK   11  A    between atoms: C_16  and  C_17
REMARK   12  A    between atoms: C_17  and  C_18
REMARK   13  A    between atoms: C_17  and  C_19
REMARK   14  A    between atoms: C_17  and  C_20
REMARK   15  A    between atoms: C_23  and  O_24
REMARK                            x       y       z     vdW  Elec       q    Type
REMARK                         _______ _______ _______ _____ _____    ______ ____
ROOT
ATOM      1  N   UNL     1      -0.396  11.181  19.291  0.00  0.00    +0.000 N 
ENDROOT
BRANCH   1   2
ATOM      2  C   UNL     1      -0.314  10.637  20.583  0.00  0.00    +0.000 A 
ATOM      3  C   UNL     1      -0.991  11.192  21.678  0.00  0.00    +0.000 A 
ATOM      4  C   UNL     1      -0.846  10.660  22.957  0.00  0.00    +0.000 A 
ATOM      5  C   UNL     1      -0.045   9.546  23.160  0.00  0.00    +0.000 A 
ATOM      6  C   UNL     1       0.605   8.955  22.089  0.00  0.00    +0.000 A 
ATOM      7  C   UNL     1       0.472   9.499  20.804  0.00  0.00    +0.000 A 
ENDBRANCH   1   2
BRANCH   1   8
ATOM      8  C   UNL     1      -1.265  10.522  18.281  0.00  0.00    +0.000 C 
BRANCH   8  13
ATOM      9  C   UNL     1      -4.902  12.045  18.525  0.00  0.00    +0.000 A 
ATOM     10  C   UNL     1      -5.254  11.967  17.172  0.00  0.00    +0.000 A 
ATOM     11  C   UNL     1      -4.426  11.307  16.285  0.00  0.00    +0.000 A 
ATOM     12  C   UNL     1      -3.239  10.759  16.759  0.00  0.00    +0.000 A 
ATOM     13  C   UNL     1      -2.672  11.080  18.001  0.00  0.00    +0.000 A 
ATOM     14  C   UNL     1      -3.553  11.722  18.894  0.00  0.00    +0.000 A 
BRANCH   9  16
ATOM     15  C   UNL     1      -5.480  12.455  21.031  0.00  0.00    +0.000 C 
ATOM     16  C   UNL     1      -6.011  12.270  19.583  0.00  0.00    +0.000 C 
ATOM     17  C   UNL     1      -7.016  11.111  19.610  0.00  0.00    +0.000 C 
ATOM     18  C   UNL     1      -6.738  13.587  19.239  0.00  0.00    +0.000 C 
ENDBRANCH   9  16
BRANCH  12  19
ATOM     19  O   UNL     1      -2.769   9.666  16.075  0.00  0.00    +0.000 OA
ATOM     20  H   UNL     1      -2.412  10.068  15.257  0.00  0.00    +0.000 HD
ENDBRANCH  12  19
ENDBRANCH   8  13
ENDBRANCH   1   8
BRANCH   1  21
ATOM     21  C   UNL     1       0.923  11.675  18.767  0.00  0.00    +0.000 C 
BRANCH  21  22
ATOM     22  C   UNL     1       1.089  13.195  18.700  0.00  0.00    +0.000 A 
ATOM     23  C   UNL     1       0.034  14.057  19.080  0.00  0.00    +0.000 A 
ATOM     24  C   UNL     1       0.185  15.464  19.157  0.00  0.00    +0.000 A 
ATOM     25  C   UNL     1       1.388  16.005  18.676  0.00  0.00    +0.000 A 
ATOM     26  C   UNL     1       2.425  15.176  18.238  0.00  0.00    +0.000 A 
ATOM     27  C   UNL     1       2.280  13.788  18.293  0.00  0.00    +0.000 A 
BRANCH  24  28
ATOM     28  C   UNL     1      -0.783  16.320  20.002  0.00  0.00    +0.000 C 
ATOM     29  C   UNL     1      -1.772  15.299  20.608  0.00  0.00    +0.000 C 
ATOM     30  C   UNL     1      -0.139  17.098  21.175  0.00  0.00    +0.000 C 
ATOM     31  C   UNL     1      -1.582  17.362  19.188  0.00  0.00    +0.000 C 
ENDBRANCH  24  28
BRANCH  27  32
ATOM     32  O   UNL     1       3.344  12.992  17.965  0.00  0.00    +0.000 OA
ATOM     33  H   UNL     1       3.088  12.069  18.126  0.00  0.00    +0.000 HD
ENDBRANCH  27  32
ENDBRANCH  21  22
ENDBRANCH   1  21
TORSDOF 9
ENDMDL
MODEL 8
REMARK VINA RESULT:      -7.1      5.387     10.136
REMARK  Name = 
REMARK  15 active torsions:
REMARK  status: ('A' for Active; 'I' for Inactive)
REMARK    1  A    between atoms: C_1  and  C_2
REMARK    2  A    between atoms: C_2  and  C_3
REMARK    3  A    between atoms: C_2  and  C_4
REMARK    4  A    between atoms: C_2  and  C_5
REMARK    5  A    between atoms: C_8  and  O_9
REMARK    6  A    between atoms: C_10  and  C_11
REMARK    7  A    between atoms: C_11  and  N_12
REMARK    8  A    between atoms: N_12  and  C_13
REMARK    9  A    between atoms: N_12  and  C_25
REMARK   10  A    between atoms: C_13  and  C_14
REMARK   11  A    between atoms: C_16  and  C_17
REMARK   12  A    between atoms: C_17  and  C_18
REMARK   13  A    between atoms: C_17  and  C_19
REMARK   14  A    between atoms: C_17  and  C_20
REMARK   15  A    between atoms: C_23  and  O_24
REMARK                            x       y       z     vdW  Elec       q    Type
REMARK                         _______ _______ _______ _____ _____    ______ ____
ROOT
ATOM      1  N   UNL     1       0.090  11.130  19.491  0.00  0.00    +0.000 N 
ENDROOT
BRANCH   1   2
ATOM      2  C   UNL     1       0.844   9.965  19.286  0.00  0.00    +0.000 A 
ATOM      3  C   UNL     1       1.393   9.631  18.039  0.00  0.00    +0.000 A 
ATOM      4  C   UNL     1       2.091   8.439  17.856  0.00  0.00    +0.000 A 
ATOM      5  C   UNL     1       2.279   7.574  18.923  0.00  0.00    +0.000 A 
ATOM      6  C   UNL     1       1.782   7.896  20.175  0.00  0.00    +0.000 A 
ATOM      7  C   UNL     1       1.065   9.088  20.356  0.00  0.00    +0.000 A 
ENDBRANCH   1   2
BRANCH   1   8
ATOM      8  C   UNL     1      -0.010  12.130  18.396  0.00  0.00    +0.000 C 
BRANCH   8  13
ATOM      9  C   UNL     1       0.598  16.002  18.904  0.00  0.00    +0.000 A 
ATOM     10  C   UNL     1       1.996  16.007  18.820  0.00  0.00    +0.000 A 
ATOM     11  C   UNL     1       2.665  14.857  18.453  0.00  0.00    +0.000 A 
ATOM     12  C   UNL     1       1.929  13.704  18.205  0.00  0.00    +0.000 A 
ATOM     13  C   UNL     1       0.590  13.536  18.586  0.00  0.00    +0.000 A 
ATOM     14  C   UNL     1      -0.074  14.733  18.921  0.00  0.00    +0.000 A 
BRANCH   9  16
ATOM     15  C   UNL     1       0.523  18.546  19.453  0.00  0.00    +0.000 C 
ATOM     16  C   UNL     1      -0.174  17.337  18.768  0.00  0.00    +0.000 C 
ATOM     17  C   UNL     1      -1.590  17.239  19.348  0.00  0.00    +0.000 C 
ATOM     18  C   UNL     1      -0.244  17.697  17.269  0.00  0.00    +0.000 C 
ENDBRANCH   9  16
BRANCH  12  19
ATOM     19  O   UNL     1       2.485  12.819  17.315  0.00  0.00    +0.000 OA
ATOM     20  H   UNL     1       3.276  12.504  17.798  0.00  0.00    +0.000 HD
ENDBRANCH  12  19
ENDBRANCH   8  13
ENDBRANCH   1   8
BRANCH   1  21
ATOM     21  C   UNL     1       0.252  11.711  20.868  0.00  0.00    +0.000 C 
BRANCH  21  22
ATOM     22  C   UNL     1      -1.043  11.960  21.645  0.00  0.00    +0.000 A 
ATOM     23  C   UNL     1      -2.086  12.734  21.087  0.00  0.00    +0.000 A 
ATOM     24  C   UNL     1      -3.349  12.882  21.714  0.00  0.00    +0.000 A 
ATOM     25  C   UNL     1      -3.483  12.364  23.012  0.00  0.00    +0.000 A 
ATOM     26  C   UNL     1      -2.444  11.645  23.609  0.00  0.00    +0.000 A 
ATOM     27  C   UNL     1      -1.258  11.417  22.908  0.00  0.00    +0.000 A 
BRANCH  24  28
ATOM     28  C   UNL     1      -4.591  13.311  20.902  0.00  0.00    +0.000 C 
ATOM     29  C   UNL     1      -5.790  12.910  21.791  0.00  0.00    +0.000 C 
ATOM     30  C   UNL     1      -4.710  14.827  20.613  0.00  0.00    +0.000 C 
ATOM     31  C   UNL     1      -4.728  12.605  19.535  0.00  0.00    +0.000 C 
ENDBRANCH  24  28
BRANCH  27  32
ATOM     32  O   UNL     1      -0.296  10.619  23.465  0.00  0.00    +0.000 OA
ATOM     33  H   UNL     1      -0.058   9.938  22.813  0.00  0.00    +0.000 HD
ENDBRANCH  27  32
ENDBRANCH  21  22
ENDBRANCH   1  21
TORSDOF 9
ENDMDL
MODEL 9
REMARK VINA RESULT:      -7.1      5.903     10.425
REMARK  Name = 
REMARK  15 active torsions:
REMARK  status: ('A' for Active; 'I' for Inactive)
REMARK    1  A    between atoms: C_1  and  C_2
REMARK    2  A    between atoms: C_2  and  C_3
REMARK    3  A    between atoms: C_2  and  C_4
REMARK    4  A    between atoms: C_2  and  C_5
REMARK    5  A    between atoms: C_8  and  O_9
REMARK    6  A    between atoms: C_10  and  C_11
REMARK    7  A    between atoms: C_11  and  N_12
REMARK    8  A    between atoms: N_12  and  C_13
REMARK    9  A    between atoms: N_12  and  C_25
REMARK   10  A    between atoms: C_13  and  C_14
REMARK   11  A    between atoms: C_16  and  C_17
REMARK   12  A    between atoms: C_17  and  C_18
REMARK   13  A    between atoms: C_17  and  C_19
REMARK   14  A    between atoms: C_17  and  C_20
REMARK   15  A    between atoms: C_23  and  O_24
REMARK                            x       y       z     vdW  Elec       q    Type
REMARK                         _______ _______ _______ _____ _____    ______ ____
ROOT
ATOM      1  N   UNL     1      -0.531  11.182  19.903  0.00  0.00    +0.000 N 
ENDROOT
BRANCH   1   2
ATOM      2  C   UNL     1       0.277  10.036  19.968  0.00  0.00    +0.000 A 
ATOM      3  C   UNL     1       1.057   9.602  18.887  0.00  0.00    +0.000 A 
ATOM      4  C   UNL     1       1.806   8.430  18.965  0.00  0.00    +0.000 A 
ATOM      5  C   UNL     1       1.813   7.688  20.136  0.00  0.00    +0.000 A 
ATOM      6  C   UNL     1       1.083   8.114  21.233  0.00  0.00    +0.000 A 
ATOM      7  C   UNL     1       0.315   9.284  21.149  0.00  0.00    +0.000 A 
ENDBRANCH   1   2
BRANCH   1   8
ATOM      8  C   UNL     1      -0.934  11.710  18.574  0.00  0.00    +0.000 C 
BRANCH   8  13
ATOM      9  C   UNL     1      -4.880  11.781  18.373  0.00  0.00    +0.000 A 
ATOM     10  C   UNL     1      -5.031  11.325  17.057  0.00  0.00    +0.000 A 
ATOM     11  C   UNL     1      -3.930  10.868  16.359  0.00  0.00    +0.000 A 
ATOM     12  C   UNL     1      -2.685  10.903  16.976  0.00  0.00    +0.000 A 
ATOM     13  C   UNL     1      -2.409  11.639  18.137  0.00  0.00    +0.000 A 
ATOM     14  C   UNL     1      -3.554  12.061  18.844  0.00  0.00    +0.000 A 
BRANCH   9  16
ATOM     15  C   UNL     1      -7.255  12.718  18.888  0.00  0.00    +0.000 C 
ATOM     16  C   UNL     1      -6.103  11.770  19.323  0.00  0.00    +0.000 C 
ATOM     17  C   UNL     1      -5.714  12.151  20.757  0.00  0.00    +0.000 C 
ATOM     18  C   UNL     1      -6.708  10.351  19.303  0.00  0.00    +0.000 C 
ENDBRANCH   9  16
BRANCH  12  19
ATOM     19  O   UNL     1      -1.783   9.957  16.557  0.00  0.00    +0.000 OA
ATOM     20  H   UNL     1      -1.245  10.453  15.906  0.00  0.00    +0.000 HD
ENDBRANCH  12  19
ENDBRANCH   8  13
ENDBRANCH   1   8
BRANCH   1  21
ATOM     21  C   UNL     1      -0.164  12.230  20.918  0.00  0.00    +0.000 C 
BRANCH  21  22
ATOM     22  C   UNL     1      -1.240  13.274  21.219  0.00  0.00    +0.000 A 
ATOM     23  C   UNL     1      -2.243  13.024  22.184  0.00  0.00    +0.000 A 
ATOM     24  C   UNL     1      -3.180  14.009  22.587  0.00  0.00    +0.000 A 
ATOM     25  C   UNL     1      -3.190  15.214  21.868  0.00  0.00    +0.000 A 
ATOM     26  C   UNL     1      -2.246  15.462  20.868  0.00  0.00    +0.000 A 
ATOM     27  C   UNL     1      -1.262  14.512  20.585  0.00  0.00    +0.000 A 
BRANCH  24  28
ATOM     28  C   UNL     1      -3.931  13.884  23.931  0.00  0.00    +0.000 C 
ATOM     29  C   UNL     1      -5.314  14.519  23.661  0.00  0.00    +0.000 C 
ATOM     30  C   UNL     1      -4.170  12.439  24.432  0.00  0.00    +0.000 C 
ATOM     31  C   UNL     1      -3.260  14.636  25.103  0.00  0.00    +0.000 C 
ENDBRANCH  24  28
BRANCH  27  32
ATOM     32  O   UNL     1      -0.280  14.817  19.681  0.00  0.00    +0.000 OA
ATOM     33  H   UNL     1       0.410  14.136  19.749  0.00  0.00    +0.000 HD
ENDBRANCH  27  32
ENDBRANCH  21  22
ENDBRANCH   1  21
TORSDOF 9
ENDMDL
