MODEL 1
REMARK VINA RESULT:      -6.6      0.000      0.000
REMARK  Name = 
REMARK  4 active torsions:
REMARK  status: ('A' for Active; 'I' for Inactive)
REMARK    1  A    between atoms: C_2  and  O_10
REMARK    2  A    between atoms: N_3  and  C_4
REMARK    3  A    between atoms: C_4  and  C_5
REMARK    4  A    between atoms: O_10  and  C_11
REMARK                            x       y       z     vdW  Elec       q    Type
REMARK                         _______ _______ _______ _____ _____    ______ ____
ROOT
ATOM      1  O   UNL     1       5.830   3.938  19.366  0.00  0.00    +0.000 OA
ATOM      2  C   UNL     1       4.972   4.661  18.919  0.00  0.00    +0.000 C 
ATOM      3  N   UNL     1       5.196   5.939  18.490  0.00  0.00    +0.000 N 
ATOM      4  H   UNL     1       5.970   6.434  18.918  0.00  0.00    +0.000 HD
ENDROOT
BRANCH   3   5
ATOM      5  C   UNL     1       4.770   6.411  17.191  0.00  0.00    +0.000 C 
BRANCH   5   6
ATOM      6  C   UNL     1       5.490   5.637  16.137  0.00  0.00    +0.000 A 
ATOM      7  C   UNL     1       4.927   4.891  15.124  0.00  0.00    +0.000 A 
ATOM      8  C   UNL     1       5.904   4.259  14.309  0.00  0.00    +0.000 A 
ATOM      9  C   UNL     1       7.185   4.542  14.733  0.00  0.00    +0.000 A 
ATOM     10  S   UNL     1       7.198   5.543  16.116  0.00  0.00    +0.000 S 
ENDBRANCH   5   6
ENDBRANCH   3   5
BRANCH   2  11
ATOM     11  O   UNL     1       3.632   4.396  18.907  0.00  0.00    +0.000 OA
BRANCH  11  12
ATOM     12  C   UNL     1       3.010   4.152  20.190  0.00  0.00    +0.000 C 
ATOM     13  C   UNL     1       1.566   4.713  20.219  0.00  0.00    +0.000 C 
ATOM     14  C   UNL     1       0.697   3.453  20.422  0.00  0.00    +0.000 C 
ATOM     15  C   UNL     1       0.720   2.617  19.131  0.00  0.00    +0.000 C 
ATOM     16  C   UNL     1       2.129   2.011  19.138  0.00  0.00    +0.000 C 
ATOM     17  C   UNL     1       2.763   2.633  20.398  0.00  0.00    +0.000 C 
ATOM     18  C   UNL     1       1.573   2.622  21.360  0.00  0.00    +0.000 C 
ENDBRANCH  11  12
ENDBRANCH   2  11
TORSDOF 4
ENDMDL
MODEL 2
REMARK VINA RESULT:      -6.5      2.062      2.845
REMARK  Name = 
REMARK  4 active torsions:
REMARK  status: ('A' for Active; 'I' for Inactive)
REMARK    1  A    between atoms: C_2  and  O_10
REMARK    2  A    between atoms: N_3  and  C_4
REMARK    3  A    between atoms: C_4  and  C_5
REMARK    4  A    between atoms: O_10  and  C_11
REMARK                            x       y       z     vdW  Elec       q    Type
REMARK                         _______ _______ _______ _____ _____    ______ ____
ROOT
ATOM      1  O   UNL     1       5.232   1.660  20.530  0.00  0.00    +0.000 OA
ATOM      2  C   UNL     1       4.810   2.410  19.682  0.00  0.00    +0.000 C 
ATOM      3  N   UNL     1       5.408   3.589  19.338  0.00  0.00    +0.000 N 
ATOM      4  H   UNL     1       5.959   4.047  20.056  0.00  0.00    +0.000 HD
ENDROOT
BRANCH   3   5
ATOM      5  C   UNL     1       5.721   3.935  17.969  0.00  0.00    +0.000 C 
BRANCH   5   6
ATOM      6  C   UNL     1       6.473   5.225  17.959  0.00  0.00    +0.000 A 
ATOM      7  C   UNL     1       7.563   5.556  18.735  0.00  0.00    +0.000 A 
ATOM      8  C   UNL     1       8.020   6.879  18.490  0.00  0.00    +0.000 A 
ATOM      9  C   UNL     1       7.258   7.516  17.534  0.00  0.00    +0.000 A 
ATOM     10  S   UNL     1       5.990   6.527  16.961  0.00  0.00    +0.000 S 
ENDBRANCH   5   6
ENDBRANCH   3   5
BRANCH   2  11
ATOM     11  O   UNL     1       3.609   2.295  19.041  0.00  0.00    +0.000 OA
BRANCH  11  12
ATOM     12  C   UNL     1       2.425   2.442  19.858  0.00  0.00    +0.000 C 
ATOM     13  C   UNL     1       2.665   3.463  20.999  0.00  0.00    +0.000 C 
ATOM     14  C   UNL     1       1.655   4.589  20.690  0.00  0.00    +0.000 C 
ATOM     15  C   UNL     1       2.124   5.350  19.438  0.00  0.00    +0.000 C 
ATOM     16  C   UNL     1       1.825   4.362  18.303  0.00  0.00    +0.000 C 
ATOM     17  C   UNL     1       1.287   3.129  19.055  0.00  0.00    +0.000 C 
ATOM     18  C   UNL     1       0.462   3.796  20.157  0.00  0.00    +0.000 C 
ENDBRANCH  11  12
ENDBRANCH   2  11
TORSDOF 4
ENDMDL
MODEL 3
REMARK VINA RESULT:      -6.4      1.436      2.211
REMARK  Name = 
REMARK  4 active torsions:
REMARK  status: ('A' for Active; 'I' for Inactive)
REMARK    1  A    between atoms: C_2  and  O_10
REMARK    2  A    between atoms: N_3  and  C_4
REMARK    3  A    between atoms: C_4  and  C_5
REMARK    4  A    between atoms: O_10  and  C_11
REMARK                            x       y       z     vdW  Elec       q    Type
REMARK                         _______ _______ _______ _____ _____    ______ ____
ROOT
ATOM      1  O   UNL     1       2.217   7.341  19.208  0.00  0.00    +0.000 OA
ATOM      2  C   UNL     1       3.081   6.616  18.776  0.00  0.00    +0.000 C 
ATOM      3  N   UNL     1       3.793   6.868  17.637  0.00  0.00    +0.000 N 
ATOM      4  H   UNL     1       3.334   7.429  16.928  0.00  0.00    +0.000 HD
ENDROOT
BRANCH   3   5
ATOM      5  C   UNL     1       5.238   6.836  17.597  0.00  0.00    +0.000 C 
BRANCH   5   6
ATOM      6  C   UNL     1       5.670   5.836  16.576  0.00  0.00    +0.000 A 
ATOM      7  C   UNL     1       5.265   5.766  15.261  0.00  0.00    +0.000 A 
ATOM      8  C   UNL     1       5.851   4.670  14.572  0.00  0.00    +0.000 A 
ATOM      9  C   UNL     1       6.683   3.936  15.390  0.00  0.00    +0.000 A 
ATOM     10  S   UNL     1       6.732   4.558  16.980  0.00  0.00    +0.000 S 
ENDBRANCH   5   6
ENDBRANCH   3   5
BRANCH   2  11
ATOM     11  O   UNL     1       3.386   5.371  19.247  0.00  0.00    +0.000 OA
BRANCH  11  12
ATOM     12  C   UNL     1       2.838   4.250  18.515  0.00  0.00    +0.000 C 
ATOM     13  C   UNL     1       3.476   2.919  18.986  0.00  0.00    +0.000 C 
ATOM     14  C   UNL     1       2.279   2.135  19.566  0.00  0.00    +0.000 C 
ATOM     15  C   UNL     1       1.841   2.796  20.885  0.00  0.00    +0.000 C 
ATOM     16  C   UNL     1       1.153   4.083  20.412  0.00  0.00    +0.000 C 
ATOM     17  C   UNL     1       1.346   4.033  18.884  0.00  0.00    +0.000 C 
ATOM     18  C   UNL     1       1.154   2.539  18.614  0.00  0.00    +0.000 C 
ENDBRANCH  11  12
ENDBRANCH   2  11
TORSDOF 4
ENDMDL
MODEL 4
REMARK VINA RESULT:      -6.4      1.955      2.932
REMARK  Name = 
REMARK  4 active torsions:
REMARK  status: ('A' for Active; 'I' for Inactive)
REMARK    1  A    between atoms: C_2  and  O_10
REMARK    2  A    between atoms: N_3  and  C_4
REMARK    3  A    between atoms: C_4  and  C_5
REMARK    4  A    between atoms: O_10  and  C_11
REMARK                            x       y       z     vdW  Elec       q    Type
REMARK                         _______ _______ _______ _____ _____    ______ ____
ROOT
ATOM      1  O   UNL     1       3.201   6.672  17.840  0.00  0.00    +0.000 OA
ATOM      2  C   UNL     1       3.792   5.620  17.783  0.00  0.00    +0.000 C 
ATOM      3  N   UNL     1       4.546   5.224  16.714  0.00  0.00    +0.000 N 
ATOM      4  H   UNL     1       4.286   5.600  15.809  0.00  0.00    +0.000 HD
ENDROOT
BRANCH   3   5
ATOM      5  C   UNL     1       5.908   4.757  16.850  0.00  0.00    +0.000 C 
BRANCH   5   6
ATOM      6  C   UNL     1       6.741   5.863  17.409  0.00  0.00    +0.000 A 
ATOM      7  C   UNL     1       6.971   7.098  16.841  0.00  0.00    +0.000 A 
ATOM      8  C   UNL     1       7.837   7.903  17.629  0.00  0.00    +0.000 A 
ATOM      9  C   UNL     1       8.242   7.252  18.774  0.00  0.00    +0.000 A 
ATOM     10  S   UNL     1       7.598   5.674  18.877  0.00  0.00    +0.000 S 
ENDBRANCH   5   6
ENDBRANCH   3   5
BRANCH   2  11
ATOM     11  O   UNL     1       3.691   4.598  18.683  0.00  0.00    +0.000 OA
BRANCH  11  12
ATOM     12  C   UNL     1       2.797   3.517  18.335  0.00  0.00    +0.000 C 
ATOM     13  C   UNL     1       3.074   2.268  19.210  0.00  0.00    +0.000 C 
ATOM     14  C   UNL     1       1.756   2.080  19.993  0.00  0.00    +0.000 C 
ATOM     15  C   UNL     1       1.626   3.210  21.029  0.00  0.00    +0.000 C 
ATOM     16  C   UNL     1       1.288   4.432  20.165  0.00  0.00    +0.000 C 
ATOM     17  C   UNL     1       1.337   3.864  18.734  0.00  0.00    +0.000 C 
ATOM     18  C   UNL     1       0.717   2.481  18.947  0.00  0.00    +0.000 C 
ENDBRANCH  11  12
ENDBRANCH   2  11
TORSDOF 4
ENDMDL
MODEL 5
REMARK VINA RESULT:      -6.4      1.375      1.732
REMARK  Name = 
REMARK  4 active torsions:
REMARK  status: ('A' for Active; 'I' for Inactive)
REMARK    1  A    between atoms: C_2  and  O_10
REMARK    2  A    between atoms: N_3  and  C_4
REMARK    3  A    between atoms: C_4  and  C_5
REMARK    4  A    between atoms: O_10  and  C_11
REMARK                            x       y       z     vdW  Elec       q    Type
REMARK                         _______ _______ _______ _____ _____    ______ ____
ROOT
ATOM      1  O   UNL     1       2.213   7.682  19.030  0.00  0.00    +0.000 OA
ATOM      2  C   UNL     1       2.848   6.749  18.599  0.00  0.00    +0.000 C 
ATOM      3  N   UNL     1       3.948   6.876  17.799  0.00  0.00    +0.000 N 
ATOM      4  H   UNL     1       3.999   7.709  17.224  0.00  0.00    +0.000 HD
ENDROOT
BRANCH   3   5
ATOM      5  C   UNL     1       5.202   6.216  18.087  0.00  0.00    +0.000 C 
BRANCH   5   6
ATOM      6  C   UNL     1       5.732   5.618  16.825  0.00  0.00    +0.000 A 
ATOM      7  C   UNL     1       5.180   5.714  15.566  0.00  0.00    +0.000 A 
ATOM      8  C   UNL     1       5.928   5.001  14.592  0.00  0.00    +0.000 A 
ATOM      9  C   UNL     1       7.027   4.378  15.143  0.00  0.00    +0.000 A 
ATOM     10  S   UNL     1       7.134   4.639  16.827  0.00  0.00    +0.000 S 
ENDBRANCH   5   6
ENDBRANCH   3   5
BRANCH   2  11
ATOM     11  O   UNL     1       2.499   5.432  18.701  0.00  0.00    +0.000 OA
BRANCH  11  12
ATOM     12  C   UNL     1       2.507   4.863  20.031  0.00  0.00    +0.000 C 
ATOM     13  C   UNL     1       1.071   4.493  20.481  0.00  0.00    +0.000 C 
ATOM     14  C   UNL     1       1.136   2.960  20.658  0.00  0.00    +0.000 C 
ATOM     15  C   UNL     1       1.247   2.301  19.273  0.00  0.00    +0.000 C 
ATOM     16  C   UNL     1       2.691   2.615  18.858  0.00  0.00    +0.000 C 
ATOM     17  C   UNL     1       3.205   3.476  20.028  0.00  0.00    +0.000 C 
ATOM     18  C   UNL     1       2.546   2.774  21.218  0.00  0.00    +0.000 C 
ENDBRANCH  11  12
ENDBRANCH   2  11
TORSDOF 4
ENDMDL
MODEL 6
REMARK VINA RESULT:      -6.4      2.369      5.694
REMARK  Name = 
REMARK  4 active torsions:
REMARK  status: ('A' for Active; 'I' for Inactive)
REMARK    1  A    between atoms: C_2  and  O_10
REMARK    2  A    between atoms: N_3  and  C_4
REMARK    3  A    between atoms: C_4  and  C_5
REMARK    4  A    between atoms: O_10  and  C_11
REMARK                            x       y       z     vdW  Elec       q    Type
REMARK                         _______ _______ _______ _____ _____    ______ ____
ROOT
ATOM      1  O   UNL     1       2.458   6.718  17.999  0.00  0.00    +0.000 OA
ATOM      2  C   UNL     1       3.052   6.316  18.971  0.00  0.00    +0.000 C 
ATOM      3  N   UNL     1       2.481   6.151  20.201  0.00  0.00    +0.000 N 
ATOM      4  H   UNL     1       1.688   6.744  20.419  0.00  0.00    +0.000 HD
ENDROOT
BRANCH   3   5
ATOM      5  C   UNL     1       2.588   4.919  20.952  0.00  0.00    +0.000 C 
BRANCH   5   6
ATOM      6  C   UNL     1       2.143   3.787  20.085  0.00  0.00    +0.000 A 
ATOM      7  C   UNL     1       0.857   3.515  19.670  0.00  0.00    +0.000 A 
ATOM      8  C   UNL     1       0.783   2.342  18.872  0.00  0.00    +0.000 A 
ATOM      9  C   UNL     1       2.019   1.754  18.709  0.00  0.00    +0.000 A 
ATOM     10  S   UNL     1       3.248   2.605  19.533  0.00  0.00    +0.000 S 
ENDBRANCH   5   6
ENDBRANCH   3   5
BRANCH   2  11
ATOM     11  O   UNL     1       4.399   6.108  19.054  0.00  0.00    +0.000 OA
BRANCH  11  12
ATOM     12  C   UNL     1       5.036   5.528  17.892  0.00  0.00    +0.000 C 
ATOM     13  C   UNL     1       5.658   6.629  16.997  0.00  0.00    +0.000 C 
ATOM     14  C   UNL     1       7.168   6.307  17.030  0.00  0.00    +0.000 C 
ATOM     15  C   UNL     1       7.719   6.643  18.427  0.00  0.00    +0.000 C 
ATOM     16  C   UNL     1       7.154   5.515  19.300  0.00  0.00    +0.000 C 
ATOM     17  C   UNL     1       6.291   4.712  18.306  0.00  0.00    +0.000 C 
ATOM     18  C   UNL     1       7.157   4.779  17.047  0.00  0.00    +0.000 C 
ENDBRANCH  11  12
ENDBRANCH   2  11
TORSDOF 4
ENDMDL
MODEL 7
REMARK VINA RESULT:      -6.4      0.980      1.088
REMARK  Name = 
REMARK  4 active torsions:
REMARK  status: ('A' for Active; 'I' for Inactive)
REMARK    1  A    between atoms: C_2  and  O_10
REMARK    2  A    between atoms: N_3  and  C_4
REMARK    3  A    between atoms: C_4  and  C_5
REMARK    4  A    between atoms: O_10  and  C_11
REMARK                            x       y       z     vdW  Elec       q    Type
REMARK                         _______ _______ _______ _____ _____    ______ ____
ROOT
ATOM      1  O   UNL     1       5.845   4.861  19.757  0.00  0.00    +0.000 OA
ATOM      2  C   UNL     1       5.030   4.817  18.866  0.00  0.00    +0.000 C 
ATOM      3  N   UNL     1       5.340   4.932  17.540  0.00  0.00    +0.000 N 
ATOM      4  H   UNL     1       6.172   5.462  17.310  0.00  0.00    +0.000 HD
ENDROOT
BRANCH   3   5
ATOM      5  C   UNL     1       4.892   3.977  16.550  0.00  0.00    +0.000 C 
BRANCH   5   6
ATOM      6  C   UNL     1       5.684   4.173  15.300  0.00  0.00    +0.000 A 
ATOM      7  C   UNL     1       5.407   3.658  14.052  0.00  0.00    +0.000 A 
ATOM      8  C   UNL     1       6.386   4.019  13.088  0.00  0.00    +0.000 A 
ATOM      9  C   UNL     1       7.383   4.797  13.635  0.00  0.00    +0.000 A 
ATOM     10  S   UNL     1       7.143   5.066  15.304  0.00  0.00    +0.000 S 
ENDBRANCH   5   6
ENDBRANCH   3   5
BRANCH   2  11
ATOM     11  O   UNL     1       3.674   4.805  19.026  0.00  0.00    +0.000 OA
BRANCH  11  12
ATOM     12  C   UNL     1       3.180   4.397  20.323  0.00  0.00    +0.000 C 
ATOM     13  C   UNL     1       1.711   4.848  20.520  0.00  0.00    +0.000 C 
ATOM     14  C   UNL     1       0.944   3.516  20.664  0.00  0.00    +0.000 C 
ATOM     15  C   UNL     1       0.909   2.809  19.298  0.00  0.00    +0.000 C 
ATOM     16  C   UNL     1       2.350   2.308  19.134  0.00  0.00    +0.000 C 
ATOM     17  C   UNL     1       3.048   2.851  20.396  0.00  0.00    +0.000 C 
ATOM     18  C   UNL     1       1.946   2.665  21.442  0.00  0.00    +0.000 C 
ENDBRANCH  11  12
ENDBRANCH   2  11
TORSDOF 4
ENDMDL
MODEL 8
REMARK VINA RESULT:      -6.3      1.943      2.668
REMARK  Name = 
REMARK  4 active torsions:
REMARK  status: ('A' for Active; 'I' for Inactive)
REMARK    1  A    between atoms: C_2  and  O_10
REMARK    2  A    between atoms: N_3  and  C_4
REMARK    3  A    between atoms: C_4  and  C_5
REMARK    4  A    between atoms: O_10  and  C_11
REMARK                            x       y       z     vdW  Elec       q    Type
REMARK                         _______ _______ _______ _____ _____    ______ ____
ROOT
ATOM      1  O   UNL     1       2.776   7.476  19.223  0.00  0.00    +0.000 OA
ATOM      2  C   UNL     1       2.870   6.480  18.546  0.00  0.00    +0.000 C 
ATOM      3  N   UNL     1       3.583   6.410  17.382  0.00  0.00    +0.000 N 
ATOM      4  H   UNL     1       3.691   7.273  16.862  0.00  0.00    +0.000 HD
ENDROOT
BRANCH   3   5
ATOM      5  C   UNL     1       4.566   5.380  17.131  0.00  0.00    +0.000 C 
BRANCH   5   6
ATOM      6  C   UNL     1       5.835   5.746  17.828  0.00  0.00    +0.000 A 
ATOM      7  C   UNL     1       6.333   5.193  18.989  0.00  0.00    +0.000 A 
ATOM      8  C   UNL     1       7.555   5.795  19.393  0.00  0.00    +0.000 A 
ATOM      9  C   UNL     1       7.947   6.792  18.527  0.00  0.00    +0.000 A 
ATOM     10  S   UNL     1       6.833   7.009  17.251  0.00  0.00    +0.000 S 
ENDBRANCH   5   6
ENDBRANCH   3   5
BRANCH   2  11
ATOM     11  O   UNL     1       2.172   5.321  18.732  0.00  0.00    +0.000 OA
BRANCH  11  12
ATOM     12  C   UNL     1       2.112   4.813  20.085  0.00  0.00    +0.000 C 
ATOM     13  C   UNL     1       0.783   4.055  20.331  0.00  0.00    +0.000 C 
ATOM     14  C   UNL     1       1.244   2.612  20.629  0.00  0.00    +0.000 C 
ATOM     15  C   UNL     1       1.770   1.977  19.331  0.00  0.00    +0.000 C 
ATOM     16  C   UNL     1       3.116   2.684  19.124  0.00  0.00    +0.000 C 
ATOM     17  C   UNL     1       3.160   3.686  20.293  0.00  0.00    +0.000 C 
ATOM     18  C   UNL     1       2.532   2.856  21.415  0.00  0.00    +0.000 C 
ENDBRANCH  11  12
ENDBRANCH   2  11
TORSDOF 4
ENDMDL
MODEL 9
REMARK VINA RESULT:      -6.3      2.479      5.960
REMARK  Name = 
REMARK  4 active torsions:
REMARK  status: ('A' for Active; 'I' for Inactive)
REMARK    1  A    between atoms: C_2  and  O_10
REMARK    2  A    between atoms: N_3  and  C_4
REMARK    3  A    between atoms: C_4  and  C_5
REMARK    4  A    between atoms: O_10  and  C_11
REMARK                            x       y       z     vdW  Elec       q    Type
REMARK                         _______ _______ _______ _____ _____    ______ ____
ROOT
ATOM      1  O   UNL     1       3.941   1.528  17.703  0.00  0.00    +0.000 OA
ATOM      2  C   UNL     1       3.678   2.702  17.589  0.00  0.00    +0.000 C 
ATOM      3  N   UNL     1       2.475   3.176  17.146  0.00  0.00    +0.000 N 
ATOM      4  H   UNL     1       1.949   2.574  16.523  0.00  0.00    +0.000 HD
ENDROOT
BRANCH   3   5
ATOM      5  C   UNL     1       1.717   4.174  17.868  0.00  0.00    +0.000 C 
BRANCH   5   6
ATOM      6  C   UNL     1       1.736   3.834  19.322  0.00  0.00    +0.000 A 
ATOM      7  C   UNL     1       1.034   2.826  19.947  0.00  0.00    +0.000 A 
ATOM      8  C   UNL     1       1.262   2.797  21.349  0.00  0.00    +0.000 A 
ATOM      9  C   UNL     1       2.131   3.790  21.748  0.00  0.00    +0.000 A 
ATOM     10  S   UNL     1       2.643   4.758  20.438  0.00  0.00    +0.000 S 
ENDBRANCH   5   6
ENDBRANCH   3   5
BRANCH   2  11
ATOM     11  O   UNL     1       4.560   3.734  17.728  0.00  0.00    +0.000 OA
BRANCH  11  12
ATOM     12  C   UNL     1       5.004   4.373  16.510  0.00  0.00    +0.000 C 
ATOM     13  C   UNL     1       4.846   5.912  16.604  0.00  0.00    +0.000 C 
ATOM     14  C   UNL     1       6.298   6.428  16.494  0.00  0.00    +0.000 C 
ATOM     15  C   UNL     1       7.053   6.076  17.787  0.00  0.00    +0.000 C 
ATOM     16  C   UNL     1       7.264   4.562  17.660  0.00  0.00    +0.000 C 
ATOM     17  C   UNL     1       6.541   4.224  16.342  0.00  0.00    +0.000 C 
ATOM     18  C   UNL     1       6.899   5.444  15.491  0.00  0.00    +0.000 C 
ENDBRANCH  11  12
ENDBRANCH   2  11
TORSDOF 4
ENDMDL
