MODEL 1
REMARK VINA RESULT:      -7.9      0.000      0.000
REMARK  Name = 
REMARK  6 active torsions:
REMARK  status: ('A' for Active; 'I' for Inactive)
REMARK    1  A    between atoms: C_1  and  C_2
REMARK    2  A    between atoms: C_2  and  N_3
REMARK    3  A    between atoms: N_3  and  C_4
REMARK    4  A    between atoms: C_4  and  C_5
REMARK    5  A    between atoms: C_7  and  O_8
REMARK    6  A    between atoms: C_18  and  O_19
REMARK                            x       y       z     vdW  Elec       q    Type
REMARK                         _______ _______ _______ _____ _____    ______ ____
ROOT
ATOM      1  C   UNL     1       5.721   4.836  15.233  0.00  0.00    +0.000 A 
ATOM      2  C   UNL     1       5.529   6.161  15.640  0.00  0.00    +0.000 A 
ATOM      3  C   UNL     1       4.765   6.457  16.773  0.00  0.00    +0.000 A 
ATOM      4  C   UNL     1       4.157   5.433  17.521  0.00  0.00    +0.000 A 
ATOM      5  C   UNL     1       4.347   4.112  17.112  0.00  0.00    +0.000 A 
ATOM      6  C   UNL     1       5.121   3.814  15.978  0.00  0.00    +0.000 A 
ATOM      7  C   UNL     1       3.734   2.996  17.856  0.00  0.00    +0.000 C 
ATOM      8  O   UNL     1       3.901   1.840  17.489  0.00  0.00    +0.000 OA
ATOM      9  C   UNL     1       2.910   3.285  19.044  0.00  0.00    +0.000 A 
ATOM     10  C   UNL     1       2.339   2.207  19.742  0.00  0.00    +0.000 A 
ATOM     11  C   UNL     1       1.542   2.435  20.859  0.00  0.00    +0.000 A 
ATOM     12  C   UNL     1       1.299   3.740  21.276  0.00  0.00    +0.000 A 
ATOM     13  C   UNL     1       1.864   4.815  20.581  0.00  0.00    +0.000 A 
ATOM     14  C   UNL     1       2.685   4.598  19.460  0.00  0.00    +0.000 A 
ATOM     15  C   UNL     1       3.324   5.722  18.718  0.00  0.00    +0.000 C 
ATOM     16  O   UNL     1       3.165   6.875  19.095  0.00  0.00    +0.000 OA
ENDROOT
BRANCH   3  17
ATOM     17  O   UNL     1       4.627   7.769  17.123  0.00  0.00    +0.000 OA
ATOM     18  H   UNL     1       3.892   7.890  17.742  0.00  0.00    +0.000 HD
ENDBRANCH   3  17
BRANCH  13  19
ATOM     19  O   UNL     1       1.584   6.077  21.020  0.00  0.00    +0.000 OA
ATOM     20  H   UNL     1       0.751   6.099  21.512  0.00  0.00    +0.000 HD
ENDBRANCH  13  19
BRANCH   1  21
ATOM     21  C   UNL     1       6.539   4.520  14.002  0.00  0.00    +0.000 C 
BRANCH  21  22
ATOM     22  N   UNL     1       6.223   3.189  13.486  0.00  0.00    +0.000 NA
ATOM     23  H   UNL     1       6.971   2.541  13.723  0.00  0.00    +0.000 HD
BRANCH  22  25
ATOM     24  C   UNL     1       4.571   3.275  11.703  0.00  0.00    +0.000 C 
ATOM     25  C   UNL     1       6.053   3.214  12.037  0.00  0.00    +0.000 C 
ENDBRANCH  22  25
ENDBRANCH  21  22
ENDBRANCH   1  21
TORSDOF 5
ENDMDL
MODEL 2
REMARK VINA RESULT:      -7.3      1.327      1.327
REMARK  Name = 
REMARK  6 active torsions:
REMARK  status: ('A' for Active; 'I' for Inactive)
REMARK    1  A    between atoms: C_1  and  C_2
REMARK    2  A    between atoms: C_2  and  N_3
REMARK    3  A    between atoms: N_3  and  C_4
REMARK    4  A    between atoms: C_4  and  C_5
REMARK    5  A    between atoms: C_7  and  O_8
REMARK    6  A    between atoms: C_18  and  O_19
REMARK                            x       y       z     vdW  Elec       q    Type
REMARK                         _______ _______ _______ _____ _____    ______ ____
ROOT
ATOM      1  C   UNL     1       6.086   4.671  15.234  0.00  0.00    +0.000 A 
ATOM      2  C   UNL     1       6.682   5.425  16.251  0.00  0.00    +0.000 A 
ATOM      3  C   UNL     1       6.099   5.501  17.519  0.00  0.00    +0.000 A 
ATOM      4  C   UNL     1       4.892   4.838  17.799  0.00  0.00    +0.000 A 
ATOM      5  C   UNL     1       4.296   4.088  16.783  0.00  0.00    +0.000 A 
ATOM      6  C   UNL     1       4.886   4.005  15.510  0.00  0.00    +0.000 A 
ATOM      7  C   UNL     1       3.030   3.370  17.017  0.00  0.00    +0.000 C 
ATOM      8  O   UNL     1       2.511   2.719  16.119  0.00  0.00    +0.000 OA
ATOM      9  C   UNL     1       2.387   3.451  18.341  0.00  0.00    +0.000 A 
ATOM     10  C   UNL     1       1.183   2.755  18.545  0.00  0.00    +0.000 A 
ATOM     11  C   UNL     1       0.535   2.816  19.775  0.00  0.00    +0.000 A 
ATOM     12  C   UNL     1       1.077   3.582  20.801  0.00  0.00    +0.000 A 
ATOM     13  C   UNL     1       2.274   4.278  20.599  0.00  0.00    +0.000 A 
ATOM     14  C   UNL     1       2.949   4.212  19.367  0.00  0.00    +0.000 A 
ATOM     15  C   UNL     1       4.240   4.919  19.133  0.00  0.00    +0.000 C 
ATOM     16  O   UNL     1       4.762   5.558  20.037  0.00  0.00    +0.000 OA
ENDROOT
BRANCH   3  17
ATOM     17  O   UNL     1       6.737   6.243  18.470  0.00  0.00    +0.000 OA
ATOM     18  H   UNL     1       7.486   6.728  18.091  0.00  0.00    +0.000 HD
ENDBRANCH   3  17
BRANCH  13  19
ATOM     19  O   UNL     1       2.759   5.028  21.632  0.00  0.00    +0.000 OA
ATOM     20  H   UNL     1       2.658   4.566  22.477  0.00  0.00    +0.000 HD
ENDBRANCH  13  19
BRANCH   1  21
ATOM     21  C   UNL     1       6.714   4.598  13.860  0.00  0.00    +0.000 C 
BRANCH  21  22
ATOM     22  N   UNL     1       6.589   3.257  13.293  0.00  0.00    +0.000 NA
ATOM     23  H   UNL     1       7.479   2.768  13.365  0.00  0.00    +0.000 HD
BRANCH  22  25
ATOM     24  C   UNL     1       4.671   3.379  11.802  0.00  0.00    +0.000 C 
ATOM     25  C   UNL     1       6.187   3.314  11.891  0.00  0.00    +0.000 C 
ENDBRANCH  22  25
ENDBRANCH  21  22
ENDBRANCH   1  21
TORSDOF 5
ENDMDL
MODEL 3
REMARK VINA RESULT:      -7.3      0.928      1.070
REMARK  Name = 
REMARK  6 active torsions:
REMARK  status: ('A' for Active; 'I' for Inactive)
REMARK    1  A    between atoms: C_1  and  C_2
REMARK    2  A    between atoms: C_2  and  N_3
REMARK    3  A    between atoms: N_3  and  C_4
REMARK    4  A    between atoms: C_4  and  C_5
REMARK    5  A    between atoms: C_7  and  O_8
REMARK    6  A    between atoms: C_18  and  O_19
REMARK                            x       y       z     vdW  Elec       q    Type
REMARK                         _______ _______ _______ _____ _____    ______ ____
ROOT
ATOM      1  C   UNL     1       5.831   4.701  15.392  0.00  0.00    +0.000 A 
ATOM      2  C   UNL     1       5.649   6.037  15.762  0.00  0.00    +0.000 A 
ATOM      3  C   UNL     1       4.857   6.372  16.864  0.00  0.00    +0.000 A 
ATOM      4  C   UNL     1       4.208   5.377  17.615  0.00  0.00    +0.000 A 
ATOM      5  C   UNL     1       4.386   4.044  17.243  0.00  0.00    +0.000 A 
ATOM      6  C   UNL     1       5.190   3.706  16.141  0.00  0.00    +0.000 A 
ATOM      7  C   UNL     1       3.732   2.956  17.993  0.00  0.00    +0.000 C 
ATOM      8  O   UNL     1       3.889   1.789  17.657  0.00  0.00    +0.000 OA
ATOM      9  C   UNL     1       2.876   3.286  19.147  0.00  0.00    +0.000 A 
ATOM     10  C   UNL     1       2.266   2.234  19.851  0.00  0.00    +0.000 A 
ATOM     11  C   UNL     1       1.438   2.502  20.938  0.00  0.00    +0.000 A 
ATOM     12  C   UNL     1       1.206   3.820  21.317  0.00  0.00    +0.000 A 
ATOM     13  C   UNL     1       1.811   4.868  20.616  0.00  0.00    +0.000 A 
ATOM     14  C   UNL     1       2.662   4.612  19.526  0.00  0.00    +0.000 A 
ATOM     15  C   UNL     1       3.343   5.708  18.779  0.00  0.00    +0.000 C 
ATOM     16  O   UNL     1       3.193   6.872  19.125  0.00  0.00    +0.000 OA
ENDROOT
BRANCH   3  17
ATOM     17  O   UNL     1       4.731   7.694  17.180  0.00  0.00    +0.000 OA
ATOM     18  H   UNL     1       5.283   7.926  17.942  0.00  0.00    +0.000 HD
ENDBRANCH   3  17
BRANCH  13  19
ATOM     19  O   UNL     1       1.540   6.145  21.017  0.00  0.00    +0.000 OA
ATOM     20  H   UNL     1       0.777   6.170  21.611  0.00  0.00    +0.000 HD
ENDBRANCH  13  19
BRANCH   1  21
ATOM     21  C   UNL     1       6.680   4.341  14.194  0.00  0.00    +0.000 C 
BRANCH  21  22
ATOM     22  N   UNL     1       7.703   5.357  13.949  0.00  0.00    +0.000 NA
ATOM     23  H   UNL     1       7.385   6.257  14.301  0.00  0.00    +0.000 HD
BRANCH  22  25
ATOM     24  C   UNL     1       7.268   4.377  11.765  0.00  0.00    +0.000 C 
ATOM     25  C   UNL     1       7.993   5.477  12.524  0.00  0.00    +0.000 C 
ENDBRANCH  22  25
ENDBRANCH  21  22
ENDBRANCH   1  21
TORSDOF 5
ENDMDL
MODEL 4
REMARK VINA RESULT:      -7.1      5.850      7.959
REMARK  Name = 
REMARK  6 active torsions:
REMARK  status: ('A' for Active; 'I' for Inactive)
REMARK    1  A    between atoms: C_1  and  C_2
REMARK    2  A    between atoms: C_2  and  N_3
REMARK    3  A    between atoms: N_3  and  C_4
REMARK    4  A    between atoms: C_4  and  C_5
REMARK    5  A    between atoms: C_7  and  O_8
REMARK    6  A    between atoms: C_18  and  O_19
REMARK                            x       y       z     vdW  Elec       q    Type
REMARK                         _______ _______ _______ _____ _____    ______ ____
ROOT
ATOM      1  C   UNL     1       2.142   7.292  19.751  0.00  0.00    +0.000 A 
ATOM      2  C   UNL     1       2.230   8.048  18.577  0.00  0.00    +0.000 A 
ATOM      3  C   UNL     1       1.621   9.303  18.488  0.00  0.00    +0.000 A 
ATOM      4  C   UNL     1       0.891   9.829  19.567  0.00  0.00    +0.000 A 
ATOM      5  C   UNL     1       0.800   9.073  20.737  0.00  0.00    +0.000 A 
ATOM      6  C   UNL     1       1.419   7.815  20.830  0.00  0.00    +0.000 A 
ATOM      7  C   UNL     1       0.048   9.572  21.903  0.00  0.00    +0.000 C 
ATOM      8  O   UNL     1      -0.031   8.901  22.924  0.00  0.00    +0.000 OA
ATOM      9  C   UNL     1      -0.618  10.886  21.825  0.00  0.00    +0.000 A 
ATOM     10  C   UNL     1      -1.325  11.345  22.949  0.00  0.00    +0.000 A 
ATOM     11  C   UNL     1      -1.981  12.572  22.914  0.00  0.00    +0.000 A 
ATOM     12  C   UNL     1      -1.945  13.339  21.754  0.00  0.00    +0.000 A 
ATOM     13  C   UNL     1      -1.243  12.881  20.633  0.00  0.00    +0.000 A 
ATOM     14  C   UNL     1      -0.562  11.651  20.660  0.00  0.00    +0.000 A 
ATOM     15  C   UNL     1       0.218  11.153  19.491  0.00  0.00    +0.000 C 
ATOM     16  O   UNL     1       0.305  11.832  18.477  0.00  0.00    +0.000 OA
ENDROOT
BRANCH   3  17
ATOM     17  O   UNL     1       1.757   9.995  17.319  0.00  0.00    +0.000 OA
ATOM     18  H   UNL     1       1.276  10.835  17.351  0.00  0.00    +0.000 HD
ENDBRANCH   3  17
BRANCH  13  19
ATOM     19  O   UNL     1      -1.249  13.663  19.513  0.00  0.00    +0.000 OA
ATOM     20  H   UNL     1      -0.829  14.518  19.681  0.00  0.00    +0.000 HD
ENDBRANCH  13  19
BRANCH   1  21
ATOM     21  C   UNL     1       2.792   5.931  19.841  0.00  0.00    +0.000 C 
BRANCH  21  22
ATOM     22  N   UNL     1       2.489   5.284  21.117  0.00  0.00    +0.000 NA
ATOM     23  H   UNL     1       3.275   5.396  21.755  0.00  0.00    +0.000 HD
BRANCH  22  25
ATOM     24  C   UNL     1       0.900   3.687  20.201  0.00  0.00    +0.000 C 
ATOM     25  C   UNL     1       2.219   3.862  20.935  0.00  0.00    +0.000 C 
ENDBRANCH  22  25
ENDBRANCH  21  22
ENDBRANCH   1  21
TORSDOF 5
ENDMDL
MODEL 5
REMARK VINA RESULT:      -7.0      3.799      5.788
REMARK  Name = 
REMARK  6 active torsions:
REMARK  status: ('A' for Active; 'I' for Inactive)
REMARK    1  A    between atoms: C_1  and  C_2
REMARK    2  A    between atoms: C_2  and  N_3
REMARK    3  A    between atoms: N_3  and  C_4
REMARK    4  A    between atoms: C_4  and  C_5
REMARK    5  A    between atoms: C_7  and  O_8
REMARK    6  A    between atoms: C_18  and  O_19
REMARK                            x       y       z     vdW  Elec       q    Type
REMARK                         _______ _______ _______ _____ _____    ______ ____
ROOT
ATOM      1  C   UNL     1       4.031   6.278  17.635  0.00  0.00    +0.000 A 
ATOM      2  C   UNL     1       3.758   5.542  18.793  0.00  0.00    +0.000 A 
ATOM      3  C   UNL     1       2.877   6.033  19.761  0.00  0.00    +0.000 A 
ATOM      4  C   UNL     1       2.257   7.285  19.604  0.00  0.00    +0.000 A 
ATOM      5  C   UNL     1       2.532   8.020  18.450  0.00  0.00    +0.000 A 
ATOM      6  C   UNL     1       3.411   7.524  17.472  0.00  0.00    +0.000 A 
ATOM      7  C   UNL     1       1.912   9.340  18.229  0.00  0.00    +0.000 C 
ATOM      8  O   UNL     1       2.162   9.981  17.216  0.00  0.00    +0.000 OA
ATOM      9  C   UNL     1       0.993   9.886  19.245  0.00  0.00    +0.000 A 
ATOM     10  C   UNL     1       0.409  11.143  19.013  0.00  0.00    +0.000 A 
ATOM     11  C   UNL     1      -0.452  11.703  19.952  0.00  0.00    +0.000 A 
ATOM     12  C   UNL     1      -0.722  11.018  21.132  0.00  0.00    +0.000 A 
ATOM     13  C   UNL     1      -0.139   9.767  21.366  0.00  0.00    +0.000 A 
ATOM     14  C   UNL     1       0.720   9.182  20.418  0.00  0.00    +0.000 A 
ATOM     15  C   UNL     1       1.332   7.839  20.627  0.00  0.00    +0.000 C 
ATOM     16  O   UNL     1       1.069   7.196  21.635  0.00  0.00    +0.000 OA
ENDROOT
BRANCH   3  17
ATOM     17  O   UNL     1       2.645   5.260  20.861  0.00  0.00    +0.000 OA
ATOM     18  H   UNL     1       3.204   5.531  21.604  0.00  0.00    +0.000 HD
ENDBRANCH   3  17
BRANCH  13  19
ATOM     19  O   UNL     1      -0.423   9.140  22.545  0.00  0.00    +0.000 OA
ATOM     20  H   UNL     1       0.361   9.083  23.109  0.00  0.00    +0.000 HD
ENDBRANCH  13  19
BRANCH   1  21
ATOM     21  C   UNL     1       4.991   5.750  16.594  0.00  0.00    +0.000 C 
BRANCH  21  22
ATOM     22  N   UNL     1       6.078   6.696  16.350  0.00  0.00    +0.000 NA
ATOM     23  H   UNL     1       6.518   6.492  15.455  0.00  0.00    +0.000 HD
BRANCH  22  25
ATOM     24  C   UNL     1       7.731   7.989  17.579  0.00  0.00    +0.000 C 
ATOM     25  C   UNL     1       7.084   6.624  17.405  0.00  0.00    +0.000 C 
ENDBRANCH  22  25
ENDBRANCH  21  22
ENDBRANCH   1  21
TORSDOF 5
ENDMDL
MODEL 6
REMARK VINA RESULT:      -7.0      3.675      7.387
REMARK  Name = 
REMARK  6 active torsions:
REMARK  status: ('A' for Active; 'I' for Inactive)
REMARK    1  A    between atoms: C_1  and  C_2
REMARK    2  A    between atoms: C_2  and  N_3
REMARK    3  A    between atoms: N_3  and  C_4
REMARK    4  A    between atoms: C_4  and  C_5
REMARK    5  A    between atoms: C_7  and  O_8
REMARK    6  A    between atoms: C_18  and  O_19
REMARK                            x       y       z     vdW  Elec       q    Type
REMARK                         _______ _______ _______ _____ _____    ______ ____
ROOT
ATOM      1  C   UNL     1       1.302   8.096  20.493  0.00  0.00    +0.000 A 
ATOM      2  C   UNL     1       1.164   6.831  21.074  0.00  0.00    +0.000 A 
ATOM      3  C   UNL     1       1.813   5.719  20.529  0.00  0.00    +0.000 A 
ATOM      4  C   UNL     1       2.606   5.841  19.375  0.00  0.00    +0.000 A 
ATOM      5  C   UNL     1       2.741   7.103  18.794  0.00  0.00    +0.000 A 
ATOM      6  C   UNL     1       2.095   8.222  19.346  0.00  0.00    +0.000 A 
ATOM      7  C   UNL     1       3.560   7.293  17.583  0.00  0.00    +0.000 C 
ATOM      8  O   UNL     1       3.669   8.403  17.076  0.00  0.00    +0.000 OA
ATOM      9  C   UNL     1       4.240   6.132  16.980  0.00  0.00    +0.000 A 
ATOM     10  C   UNL     1       5.020   6.336  15.829  0.00  0.00    +0.000 A 
ATOM     11  C   UNL     1       5.666   5.265  15.218  0.00  0.00    +0.000 A 
ATOM     12  C   UNL     1       5.527   3.986  15.746  0.00  0.00    +0.000 A 
ATOM     13  C   UNL     1       4.749   3.781  16.891  0.00  0.00    +0.000 A 
ATOM     14  C   UNL     1       4.103   4.856  17.527  0.00  0.00    +0.000 A 
ATOM     15  C   UNL     1       3.292   4.671  18.764  0.00  0.00    +0.000 C 
ATOM     16  O   UNL     1       3.195   3.564  19.275  0.00  0.00    +0.000 OA
ENDROOT
BRANCH   3  17
ATOM     17  O   UNL     1       1.647   4.516  21.152  0.00  0.00    +0.000 OA
ATOM     18  H   UNL     1       1.024   3.954  20.667  0.00  0.00    +0.000 HD
ENDBRANCH   3  17
BRANCH  13  19
ATOM     19  O   UNL     1       4.630   2.505  17.362  0.00  0.00    +0.000 OA
ATOM     20  H   UNL     1       5.274   2.329  18.062  0.00  0.00    +0.000 HD
ENDBRANCH  13  19
BRANCH   1  21
ATOM     21  C   UNL     1       0.590   9.294  21.078  0.00  0.00    +0.000 C 
BRANCH  21  22
ATOM     22  N   UNL     1       1.049   9.569  22.439  0.00  0.00    +0.000 NA
ATOM     23  H   UNL     1       1.741   8.875  22.716  0.00  0.00    +0.000 HD
BRANCH  22  25
ATOM     24  C   UNL     1      -1.034  10.662  23.056  0.00  0.00    +0.000 C 
ATOM     25  C   UNL     1      -0.062   9.541  23.384  0.00  0.00    +0.000 C 
ENDBRANCH  22  25
ENDBRANCH  21  22
ENDBRANCH   1  21
TORSDOF 5
ENDMDL
MODEL 7
REMARK VINA RESULT:      -7.0      1.357      3.145
REMARK  Name = 
REMARK  6 active torsions:
REMARK  status: ('A' for Active; 'I' for Inactive)
REMARK    1  A    between atoms: C_1  and  C_2
REMARK    2  A    between atoms: C_2  and  N_3
REMARK    3  A    between atoms: N_3  and  C_4
REMARK    4  A    between atoms: C_4  and  C_5
REMARK    5  A    between atoms: C_7  and  O_8
REMARK    6  A    between atoms: C_18  and  O_19
REMARK                            x       y       z     vdW  Elec       q    Type
REMARK                         _______ _______ _______ _____ _____    ______ ____
ROOT
ATOM      1  C   UNL     1       5.664   4.622  15.405  0.00  0.00    +0.000 A 
ATOM      2  C   UNL     1       5.416   3.378  15.994  0.00  0.00    +0.000 A 
ATOM      3  C   UNL     1       4.585   3.271  17.113  0.00  0.00    +0.000 A 
ATOM      4  C   UNL     1       3.994   4.410  17.685  0.00  0.00    +0.000 A 
ATOM      5  C   UNL     1       4.245   5.652  17.099  0.00  0.00    +0.000 A 
ATOM      6  C   UNL     1       5.073   5.760  15.969  0.00  0.00    +0.000 A 
ATOM      7  C   UNL     1       3.653   6.883  17.654  0.00  0.00    +0.000 C 
ATOM      8  O   UNL     1       3.882   7.969  17.136  0.00  0.00    +0.000 OA
ATOM      9  C   UNL     1       2.788   6.796  18.845  0.00  0.00    +0.000 A 
ATOM     10  C   UNL     1       2.230   7.981  19.355  0.00  0.00    +0.000 A 
ATOM     11  C   UNL     1       1.420   7.946  20.486  0.00  0.00    +0.000 A 
ATOM     12  C   UNL     1       1.176   6.733  21.121  0.00  0.00    +0.000 A 
ATOM     13  C   UNL     1       1.733   5.553  20.616  0.00  0.00    +0.000 A 
ATOM     14  C   UNL     1       2.540   5.571  19.464  0.00  0.00    +0.000 A 
ATOM     15  C   UNL     1       3.123   4.326  18.887  0.00  0.00    +0.000 C 
ATOM     16  O   UNL     1       2.882   3.241  19.399  0.00  0.00    +0.000 OA
ENDROOT
BRANCH   3  17
ATOM     17  O   UNL     1       4.374   2.026  17.632  0.00  0.00    +0.000 OA
ATOM     18  H   UNL     1       4.288   2.059  18.596  0.00  0.00    +0.000 HD
ENDBRANCH   3  17
BRANCH  13  19
ATOM     19  O   UNL     1       1.477   4.390  21.283  0.00  0.00    +0.000 OA
ATOM     20  H   UNL     1       2.241   4.111  21.806  0.00  0.00    +0.000 HD
ENDBRANCH  13  19
BRANCH   1  21
ATOM     21  C   UNL     1       6.571   4.737  14.200  0.00  0.00    +0.000 C 
BRANCH  21  22
ATOM     22  N   UNL     1       6.671   3.463  13.492  0.00  0.00    +0.000 NA
ATOM     23  H   UNL     1       7.621   3.103  13.563  0.00  0.00    +0.000 HD
BRANCH  22  25
ATOM     24  C   UNL     1       4.864   3.240  11.879  0.00  0.00    +0.000 C 
ATOM     25  C   UNL     1       6.323   3.616  12.083  0.00  0.00    +0.000 C 
ENDBRANCH  22  25
ENDBRANCH  21  22
ENDBRANCH   1  21
TORSDOF 5
ENDMDL
MODEL 8
REMARK VINA RESULT:      -6.9      3.502      5.557
REMARK  Name = 
REMARK  6 active torsions:
REMARK  status: ('A' for Active; 'I' for Inactive)
REMARK    1  A    between atoms: C_1  and  C_2
REMARK    2  A    between atoms: C_2  and  N_3
REMARK    3  A    between atoms: N_3  and  C_4
REMARK    4  A    between atoms: C_4  and  C_5
REMARK    5  A    between atoms: C_7  and  O_8
REMARK    6  A    between atoms: C_18  and  O_19
REMARK                            x       y       z     vdW  Elec       q    Type
REMARK                         _______ _______ _______ _____ _____    ______ ____
ROOT
ATOM      1  C   UNL     1       4.137   5.162  18.197  0.00  0.00    +0.000 A 
ATOM      2  C   UNL     1       3.698   4.685  19.437  0.00  0.00    +0.000 A 
ATOM      3  C   UNL     1       2.810   5.432  20.216  0.00  0.00    +0.000 A 
ATOM      4  C   UNL     1       2.351   6.688  19.783  0.00  0.00    +0.000 A 
ATOM      5  C   UNL     1       2.792   7.165  18.548  0.00  0.00    +0.000 A 
ATOM      6  C   UNL     1       3.678   6.411  17.760  0.00  0.00    +0.000 A 
ATOM      7  C   UNL     1       2.344   8.475  18.040  0.00  0.00    +0.000 C 
ATOM      8  O   UNL     1       2.740   8.889  16.957  0.00  0.00    +0.000 OA
ATOM      9  C   UNL     1       1.422   9.289  18.853  0.00  0.00    +0.000 A 
ATOM     10  C   UNL     1       1.004  10.532  18.349  0.00  0.00    +0.000 A 
ATOM     11  C   UNL     1       0.146  11.339  19.090  0.00  0.00    +0.000 A 
ATOM     12  C   UNL     1      -0.287  10.916  20.342  0.00  0.00    +0.000 A 
ATOM     13  C   UNL     1       0.131   9.679  20.847  0.00  0.00    +0.000 A 
ATOM     14  C   UNL     1       0.984   8.846  20.101  0.00  0.00    +0.000 A 
ATOM     15  C   UNL     1       1.422   7.512  20.602  0.00  0.00    +0.000 C 
ATOM     16  O   UNL     1       1.014   7.096  21.678  0.00  0.00    +0.000 OA
ENDROOT
BRANCH   3  17
ATOM     17  O   UNL     1       2.411   4.904  21.410  0.00  0.00    +0.000 OA
ATOM     18  H   UNL     1       2.417   3.936  21.383  0.00  0.00    +0.000 HD
ENDBRANCH   3  17
BRANCH  13  19
ATOM     19  O   UNL     1      -0.309   9.314  22.087  0.00  0.00    +0.000 OA
ATOM     20  H   UNL     1      -1.272   9.219  22.102  0.00  0.00    +0.000 HD
ENDBRANCH  13  19
BRANCH   1  21
ATOM     21  C   UNL     1       5.105   4.357  17.361  0.00  0.00    +0.000 C 
BRANCH  21  22
ATOM     22  N   UNL     1       6.311   4.029  18.118  0.00  0.00    +0.000 NA
ATOM     23  H   UNL     1       6.105   4.038  19.115  0.00  0.00    +0.000 HD
BRANCH  22  25
ATOM     24  C   UNL     1       7.730   5.733  19.117  0.00  0.00    +0.000 C 
ATOM     25  C   UNL     1       7.381   4.982  17.842  0.00  0.00    +0.000 C 
ENDBRANCH  22  25
ENDBRANCH  21  22
ENDBRANCH   1  21
TORSDOF 5
ENDMDL
MODEL 9
REMARK VINA RESULT:      -6.9      4.587      7.602
REMARK  Name = 
REMARK  6 active torsions:
REMARK  status: ('A' for Active; 'I' for Inactive)
REMARK    1  A    between atoms: C_1  and  C_2
REMARK    2  A    between atoms: C_2  and  N_3
REMARK    3  A    between atoms: N_3  and  C_4
REMARK    4  A    between atoms: C_4  and  C_5
REMARK    5  A    between atoms: C_7  and  O_8
REMARK    6  A    between atoms: C_18  and  O_19
REMARK                            x       y       z     vdW  Elec       q    Type
REMARK                         _______ _______ _______ _____ _____    ______ ____
ROOT
ATOM      1  C   UNL     1       0.443   8.822  21.222  0.00  0.00    +0.000 A 
ATOM      2  C   UNL     1       0.649   9.706  20.158  0.00  0.00    +0.000 A 
ATOM      3  C   UNL     1       1.454   9.344  19.074  0.00  0.00    +0.000 A 
ATOM      4  C   UNL     1       2.091   8.091  19.035  0.00  0.00    +0.000 A 
ATOM      5  C   UNL     1       1.888   7.211  20.098  0.00  0.00    +0.000 A 
ATOM      6  C   UNL     1       1.072   7.571  21.184  0.00  0.00    +0.000 A 
ATOM      7  C   UNL     1       2.529   5.883  20.113  0.00  0.00    +0.000 C 
ATOM      8  O   UNL     1       2.349   5.118  21.053  0.00  0.00    +0.000 OA
ATOM      9  C   UNL     1       3.397   5.487  18.990  0.00  0.00    +0.000 A 
ATOM     10  C   UNL     1       3.994   4.215  19.021  0.00  0.00    +0.000 A 
ATOM     11  C   UNL     1       4.833   3.806  17.988  0.00  0.00    +0.000 A 
ATOM     12  C   UNL     1       5.090   4.669  16.928  0.00  0.00    +0.000 A 
ATOM     13  C   UNL     1       4.498   5.937  16.897  0.00  0.00    +0.000 A 
ATOM     14  C   UNL     1       3.636   6.356  17.925  0.00  0.00    +0.000 A 
ATOM     15  C   UNL     1       2.968   7.690  17.903  0.00  0.00    +0.000 C 
ATOM     16  O   UNL     1       3.140   8.446  16.957  0.00  0.00    +0.000 OA
ENDROOT
BRANCH   3  17
ATOM     17  O   UNL     1       1.604  10.248  18.062  0.00  0.00    +0.000 OA
ATOM     18  H   UNL     1       1.238  11.110  18.307  0.00  0.00    +0.000 HD
ENDBRANCH   3  17
BRANCH  13  19
ATOM     19  O   UNL     1       4.793   6.753  15.843  0.00  0.00    +0.000 OA
ATOM     20  H   UNL     1       4.559   7.672  16.036  0.00  0.00    +0.000 HD
ENDBRANCH  13  19
BRANCH   1  21
ATOM     21  C   UNL     1      -0.420   9.219  22.398  0.00  0.00    +0.000 C 
BRANCH  21  22
ATOM     22  N   UNL     1      -0.132  10.586  22.827  0.00  0.00    +0.000 NA
ATOM     23  H   UNL     1       0.450  10.569  23.662  0.00  0.00    +0.000 HD
BRANCH  22  25
ATOM     24  C   UNL     1      -1.165  12.787  22.778  0.00  0.00    +0.000 C 
ATOM     25  C   UNL     1      -1.361  11.318  23.114  0.00  0.00    +0.000 C 
ENDBRANCH  22  25
ENDBRANCH  21  22
ENDBRANCH   1  21
TORSDOF 5
ENDMDL
