MODEL 1
REMARK VINA RESULT:      -8.4      0.000      0.000
REMARK  Name = 
REMARK  9 active torsions:
REMARK  status: ('A' for Active; 'I' for Inactive)
REMARK    1  A    between atoms: C_1  and  C_2
REMARK    2  A    between atoms: C_2  and  C_3
REMARK    3  A    between atoms: C_7  and  C_8
REMARK    4  A    between atoms: C_8  and  N_9
REMARK    5  A    between atoms: N_9  and  C_10
REMARK    6  A    between atoms: N_9  and  C_11
REMARK    7  A    between atoms: N_9  and  C_12
REMARK    8  A    between atoms: C_12  and  C_13
REMARK    9  A    between atoms: C_16  and  C_17
REMARK                            x       y       z     vdW  Elec       q    Type
REMARK                         _______ _______ _______ _____ _____    ______ ____
ROOT
ATOM      1  N   UNL     1       2.652   4.594  19.230  0.00  0.00    +0.000 N 
ATOM      2  C   UNL     1       1.827   4.979  18.013  0.00  0.00    +0.000 C 
ATOM      3  C   UNL     1       1.808   3.741  20.166  0.00  0.00    +0.000 C 
ENDROOT
BRANCH   1   4
ATOM      4  C   UNL     1       3.916   3.808  18.806  0.00  0.00    +0.000 C 
BRANCH   4  11
ATOM      5  C   UNL     1       7.578   7.046  17.469  0.00  0.00    +0.000 C 
ATOM      6  C   UNL     1       6.817   5.738  17.174  0.00  0.00    +0.000 C 
ATOM      7  C   UNL     1       7.726   4.574  17.590  0.00  0.00    +0.000 C 
ATOM      8  C   UNL     1       6.139   5.684  15.738  0.00  0.00    +0.000 C 
ATOM      9  C   UNL     1       5.634   4.293  15.306  0.00  0.00    +0.000 C 
ATOM     10  C   UNL     1       4.849   3.670  16.446  0.00  0.00    +0.000 C 
ATOM     11  C   UNL     1       4.651   4.336  17.607  0.00  0.00    +0.000 C 
ATOM     12  C   UNL     1       5.302   5.704  17.674  0.00  0.00    +0.000 C 
ATOM     13  C   UNL     1       4.973   6.512  16.367  0.00  0.00    +0.000 C 
ENDBRANCH   4  11
ENDBRANCH   1   4
BRANCH   1  14
ATOM     14  C   UNL     1       3.122   5.875  19.964  0.00  0.00    +0.000 C 
BRANCH  14  15
ATOM     15  C   UNL     1       2.358   7.145  19.665  0.00  0.00    +0.000 A 
ATOM     16  C   UNL     1       2.451   7.761  18.409  0.00  0.00    +0.000 A 
ATOM     17  C   UNL     1       1.757   8.945  18.139  0.00  0.00    +0.000 A 
ATOM     18  C   UNL     1       0.936   9.536  19.107  0.00  0.00    +0.000 A 
ATOM     19  C   UNL     1       0.840   8.920  20.361  0.00  0.00    +0.000 A 
ATOM     20  C   UNL     1       1.542   7.740  20.638  0.00  0.00    +0.000 A 
BRANCH  18  21
ATOM     21  C   UNL     1       0.172  10.744  18.784  0.00  0.00    +0.000 A 
ATOM     22  C   UNL     1      -1.191  10.806  18.330  0.00  0.00    +0.000 A 
ATOM     23  C   UNL     1      -1.629  12.096  18.122  0.00  0.00    +0.000 A 
ATOM     24  S   UNL     1      -0.415  13.244  18.464  0.00  0.00    +0.000 S 
ATOM     25  C   UNL     1       0.702  12.017  18.886  0.00  0.00    +0.000 A 
ENDBRANCH  18  21
ENDBRANCH  14  15
ENDBRANCH   1  14
TORSDOF 5
ENDMDL
MODEL 2
REMARK VINA RESULT:      -8.3      0.612      1.294
REMARK  Name = 
REMARK  9 active torsions:
REMARK  status: ('A' for Active; 'I' for Inactive)
REMARK    1  A    between atoms: C_1  and  C_2
REMARK    2  A    between atoms: C_2  and  C_3
REMARK    3  A    between atoms: C_7  and  C_8
REMARK    4  A    between atoms: C_8  and  N_9
REMARK    5  A    between atoms: N_9  and  C_10
REMARK    6  A    between atoms: N_9  and  C_11
REMARK    7  A    between atoms: N_9  and  C_12
REMARK    8  A    between atoms: C_12  and  C_13
REMARK    9  A    between atoms: C_16  and  C_17
REMARK                            x       y       z     vdW  Elec       q    Type
REMARK                         _______ _______ _______ _____ _____    ______ ____
ROOT
ATOM      1  N   UNL     1       2.892   4.579  19.137  0.00  0.00    +0.000 N 
ATOM      2  C   UNL     1       1.500   4.325  19.690  0.00  0.00    +0.000 C 
ATOM      3  C   UNL     1       3.820   3.448  19.557  0.00  0.00    +0.000 C 
ENDROOT
BRANCH   1   4
ATOM      4  C   UNL     1       2.857   4.676  17.592  0.00  0.00    +0.000 C 
BRANCH   4  11
ATOM      5  C   UNL     1       7.178   7.318  17.406  0.00  0.00    +0.000 C 
ATOM      6  C   UNL     1       6.469   5.957  17.252  0.00  0.00    +0.000 C 
ATOM      7  C   UNL     1       6.803   5.122  18.496  0.00  0.00    +0.000 C 
ATOM      8  C   UNL     1       6.650   5.282  15.825  0.00  0.00    +0.000 C 
ATOM      9  C   UNL     1       6.211   3.806  15.740  0.00  0.00    +0.000 C 
ATOM     10  C   UNL     1       4.850   3.652  16.391  0.00  0.00    +0.000 C 
ATOM     11  C   UNL     1       4.192   4.717  16.904  0.00  0.00    +0.000 C 
ATOM     12  C   UNL     1       4.940   6.033  16.804  0.00  0.00    +0.000 C 
ATOM     13  C   UNL     1       5.495   6.218  15.346  0.00  0.00    +0.000 C 
ENDBRANCH   4  11
ENDBRANCH   1   4
BRANCH   1  14
ATOM     14  C   UNL     1       3.428   5.928  19.678  0.00  0.00    +0.000 C 
BRANCH  14  15
ATOM     15  C   UNL     1       2.574   7.148  19.417  0.00  0.00    +0.000 A 
ATOM     16  C   UNL     1       1.815   7.728  20.443  0.00  0.00    +0.000 A 
ATOM     17  C   UNL     1       1.013   8.847  20.195  0.00  0.00    +0.000 A 
ATOM     18  C   UNL     1       0.961   9.430  18.923  0.00  0.00    +0.000 A 
ATOM     19  C   UNL     1       1.722   8.853  17.898  0.00  0.00    +0.000 A 
ATOM     20  C   UNL     1       2.518   7.726  18.140  0.00  0.00    +0.000 A 
BRANCH  18  21
ATOM     21  C   UNL     1       0.161  10.637  18.700  0.00  0.00    +0.000 A 
ATOM     22  C   UNL     1      -1.209  10.696  18.270  0.00  0.00    +0.000 A 
ATOM     23  C   UNL     1      -1.684  11.985  18.163  0.00  0.00    +0.000 A 
ATOM     24  S   UNL     1      -0.494  13.137  18.573  0.00  0.00    +0.000 S 
ATOM     25  C   UNL     1       0.661  11.912  18.889  0.00  0.00    +0.000 A 
ENDBRANCH  18  21
ENDBRANCH  14  15
ENDBRANCH   1  14
TORSDOF 5
ENDMDL
MODEL 3
REMARK VINA RESULT:      -8.0      0.488      1.283
REMARK  Name = 
REMARK  9 active torsions:
REMARK  status: ('A' for Active; 'I' for Inactive)
REMARK    1  A    between atoms: C_1  and  C_2
REMARK    2  A    between atoms: C_2  and  C_3
REMARK    3  A    between atoms: C_7  and  C_8
REMARK    4  A    between atoms: C_8  and  N_9
REMARK    5  A    between atoms: N_9  and  C_10
REMARK    6  A    between atoms: N_9  and  C_11
REMARK    7  A    between atoms: N_9  and  C_12
REMARK    8  A    between atoms: C_12  and  C_13
REMARK    9  A    between atoms: C_16  and  C_17
REMARK                            x       y       z     vdW  Elec       q    Type
REMARK                         _______ _______ _______ _____ _____    ______ ____
ROOT
ATOM      1  N   UNL     1       2.656   4.407  19.069  0.00  0.00    +0.000 N 
ATOM      2  C   UNL     1       1.849   4.900  17.880  0.00  0.00    +0.000 C 
ATOM      3  C   UNL     1       1.787   3.508  19.936  0.00  0.00    +0.000 C 
ENDROOT
BRANCH   1   4
ATOM      4  C   UNL     1       3.904   3.623  18.594  0.00  0.00    +0.000 C 
BRANCH   4  11
ATOM      5  C   UNL     1       7.519   7.003  17.505  0.00  0.00    +0.000 C 
ATOM      6  C   UNL     1       6.800   5.691  17.133  0.00  0.00    +0.000 C 
ATOM      7  C   UNL     1       7.727   4.533  17.526  0.00  0.00    +0.000 C 
ATOM      8  C   UNL     1       6.166   5.682  15.676  0.00  0.00    +0.000 C 
ATOM      9  C   UNL     1       5.708   4.300  15.171  0.00  0.00    +0.000 C 
ATOM     10  C   UNL     1       4.907   3.610  16.259  0.00  0.00    +0.000 C 
ATOM     11  C   UNL     1       4.659   4.220  17.441  0.00  0.00    +0.000 C 
ATOM     12  C   UNL     1       5.273   5.599  17.585  0.00  0.00    +0.000 C 
ATOM     13  C   UNL     1       4.962   6.454  16.304  0.00  0.00    +0.000 C 
ENDBRANCH   4  11
ENDBRANCH   1   4
BRANCH   1  14
ATOM     14  C   UNL     1       3.152   5.618  19.897  0.00  0.00    +0.000 C 
BRANCH  14  15
ATOM     15  C   UNL     1       2.418   6.924  19.693  0.00  0.00    +0.000 A 
ATOM     16  C   UNL     1       1.641   7.481  20.718  0.00  0.00    +0.000 A 
ATOM     17  C   UNL     1       0.949   8.681  20.521  0.00  0.00    +0.000 A 
ATOM     18  C   UNL     1       1.028   9.368  19.304  0.00  0.00    +0.000 A 
ATOM     19  C   UNL     1       1.807   8.814  18.280  0.00  0.00    +0.000 A 
ATOM     20  C   UNL     1       2.492   7.608  18.469  0.00  0.00    +0.000 A 
BRANCH  18  21
ATOM     21  C   UNL     1       0.343  10.652  19.139  0.00  0.00    +0.000 A 
ATOM     22  C   UNL     1       0.726  11.913  19.714  0.00  0.00    +0.000 A 
ATOM     23  C   UNL     1      -0.119  12.943  19.360  0.00  0.00    +0.000 A 
ATOM     24  S   UNL     1      -1.379  12.411  18.341  0.00  0.00    +0.000 S 
ATOM     25  C   UNL     1      -0.800  10.800  18.375  0.00  0.00    +0.000 A 
ENDBRANCH  18  21
ENDBRANCH  14  15
ENDBRANCH   1  14
TORSDOF 5
ENDMDL
MODEL 4
REMARK VINA RESULT:      -7.6      4.063      6.727
REMARK  Name = 
REMARK  9 active torsions:
REMARK  status: ('A' for Active; 'I' for Inactive)
REMARK    1  A    between atoms: C_1  and  C_2
REMARK    2  A    between atoms: C_2  and  C_3
REMARK    3  A    between atoms: C_7  and  C_8
REMARK    4  A    between atoms: C_8  and  N_9
REMARK    5  A    between atoms: N_9  and  C_10
REMARK    6  A    between atoms: N_9  and  C_11
REMARK    7  A    between atoms: N_9  and  C_12
REMARK    8  A    between atoms: C_12  and  C_13
REMARK    9  A    between atoms: C_16  and  C_17
REMARK                            x       y       z     vdW  Elec       q    Type
REMARK                         _______ _______ _______ _____ _____    ______ ____
ROOT
ATOM      1  N   UNL     1       5.409   4.888  16.831  0.00  0.00    +0.000 N 
ATOM      2  C   UNL     1       5.029   3.469  16.443  0.00  0.00    +0.000 C 
ATOM      3  C   UNL     1       5.232   5.807  15.631  0.00  0.00    +0.000 C 
ENDROOT
BRANCH   1   4
ATOM      4  C   UNL     1       4.531   5.388  18.004  0.00  0.00    +0.000 C 
BRANCH   4  11
ATOM      5  C   UNL     1       2.231   3.096  21.895  0.00  0.00    +0.000 C 
ATOM      6  C   UNL     1       2.104   3.786  20.522  0.00  0.00    +0.000 C 
ATOM      7  C   UNL     1       1.546   5.194  20.767  0.00  0.00    +0.000 C 
ATOM      8  C   UNL     1       1.417   2.893  19.401  0.00  0.00    +0.000 C 
ATOM      9  C   UNL     1       1.010   3.649  18.121  0.00  0.00    +0.000 C 
ATOM     10  C   UNL     1       2.163   4.527  17.672  0.00  0.00    +0.000 C 
ATOM     11  C   UNL     1       3.338   4.541  18.342  0.00  0.00    +0.000 C 
ATOM     12  C   UNL     1       3.378   3.653  19.571  0.00  0.00    +0.000 C 
ATOM     13  C   UNL     1       2.819   2.228  19.214  0.00  0.00    +0.000 C 
ENDBRANCH   4  11
ENDBRANCH   1   4
BRANCH   1  14
ATOM     14  C   UNL     1       6.884   4.919  17.304  0.00  0.00    +0.000 C 
BRANCH  14  15
ATOM     15  C   UNL     1       7.433   6.265  17.717  0.00  0.00    +0.000 A 
ATOM     16  C   UNL     1       7.256   7.395  16.905  0.00  0.00    +0.000 A 
ATOM     17  C   UNL     1       7.780   8.636  17.282  0.00  0.00    +0.000 A 
ATOM     18  C   UNL     1       8.477   8.790  18.486  0.00  0.00    +0.000 A 
ATOM     19  C   UNL     1       8.651   7.663  19.300  0.00  0.00    +0.000 A 
ATOM     20  C   UNL     1       8.138   6.416  18.921  0.00  0.00    +0.000 A 
BRANCH  18  21
ATOM     21  C   UNL     1       8.965  10.111  18.889  0.00  0.00    +0.000 A 
ATOM     22  C   UNL     1       9.179  11.248  18.037  0.00  0.00    +0.000 A 
ATOM     23  C   UNL     1       9.635  12.354  18.721  0.00  0.00    +0.000 A 
ATOM     24  S   UNL     1       9.815  12.042  20.388  0.00  0.00    +0.000 S 
ATOM     25  C   UNL     1       9.288  10.424  20.197  0.00  0.00    +0.000 A 
ENDBRANCH  18  21
ENDBRANCH  14  15
ENDBRANCH   1  14
TORSDOF 5
ENDMDL
MODEL 5
REMARK VINA RESULT:      -7.5      1.803      3.983
REMARK  Name = 
REMARK  9 active torsions:
REMARK  status: ('A' for Active; 'I' for Inactive)
REMARK    1  A    between atoms: C_1  and  C_2
REMARK    2  A    between atoms: C_2  and  C_3
REMARK    3  A    between atoms: C_7  and  C_8
REMARK    4  A    between atoms: C_8  and  N_9
REMARK    5  A    between atoms: N_9  and  C_10
REMARK    6  A    between atoms: N_9  and  C_11
REMARK    7  A    between atoms: N_9  and  C_12
REMARK    8  A    between atoms: C_12  and  C_13
REMARK    9  A    between atoms: C_16  and  C_17
REMARK                            x       y       z     vdW  Elec       q    Type
REMARK                         _______ _______ _______ _____ _____    ______ ____
ROOT
ATOM      1  N   UNL     1       4.663   6.242  17.473  0.00  0.00    +0.000 N 
ATOM      2  C   UNL     1       5.207   7.640  17.714  0.00  0.00    +0.000 C 
ATOM      3  C   UNL     1       5.207   5.704  16.157  0.00  0.00    +0.000 C 
ENDROOT
BRANCH   1   4
ATOM      4  C   UNL     1       5.064   5.292  18.629  0.00  0.00    +0.000 C 
BRANCH   4  11
ATOM      5  C   UNL     1       0.934   3.153  20.642  0.00  0.00    +0.000 C 
ATOM      6  C   UNL     1       1.955   3.196  19.486  0.00  0.00    +0.000 C 
ATOM      7  C   UNL     1       1.265   3.865  18.290  0.00  0.00    +0.000 C 
ATOM      8  C   UNL     1       2.722   1.826  19.239  0.00  0.00    +0.000 C 
ATOM      9  C   UNL     1       3.517   1.752  17.920  0.00  0.00    +0.000 C 
ATOM     10  C   UNL     1       4.332   3.020  17.756  0.00  0.00    +0.000 C 
ATOM     11  C   UNL     1       4.320   3.989  18.700  0.00  0.00    +0.000 C 
ATOM     12  C   UNL     1       3.411   3.713  19.882  0.00  0.00    +0.000 C 
ATOM     13  C   UNL     1       3.659   2.255  20.412  0.00  0.00    +0.000 C 
ENDBRANCH   4  11
ENDBRANCH   1   4
BRANCH   1  14
ATOM     14  C   UNL     1       3.115   6.289  17.423  0.00  0.00    +0.000 C 
BRANCH  14  15
ATOM     15  C   UNL     1       2.439   7.281  18.342  0.00  0.00    +0.000 A 
ATOM     16  C   UNL     1       1.945   8.497  17.850  0.00  0.00    +0.000 A 
ATOM     17  C   UNL     1       1.334   9.421  18.705  0.00  0.00    +0.000 A 
ATOM     18  C   UNL     1       1.182   9.148  20.070  0.00  0.00    +0.000 A 
ATOM     19  C   UNL     1       1.671   7.932  20.562  0.00  0.00    +0.000 A 
ATOM     20  C   UNL     1       2.293   7.010  19.711  0.00  0.00    +0.000 A 
BRANCH  18  21
ATOM     21  C   UNL     1       0.486  10.103  20.937  0.00  0.00    +0.000 A 
ATOM     22  C   UNL     1      -0.158   9.819  22.190  0.00  0.00    +0.000 A 
ATOM     23  C   UNL     1      -0.715  10.937  22.773  0.00  0.00    +0.000 A 
ATOM     24  S   UNL     1      -0.478  12.335  21.824  0.00  0.00    +0.000 S 
ATOM     25  C   UNL     1       0.368  11.446  20.629  0.00  0.00    +0.000 A 
ENDBRANCH  18  21
ENDBRANCH  14  15
ENDBRANCH   1  14
TORSDOF 5
ENDMDL
MODEL 6
REMARK VINA RESULT:      -7.5      1.670      2.055
REMARK  Name = 
REMARK  9 active torsions:
REMARK  status: ('A' for Active; 'I' for Inactive)
REMARK    1  A    between atoms: C_1  and  C_2
REMARK    2  A    between atoms: C_2  and  C_3
REMARK    3  A    between atoms: C_7  and  C_8
REMARK    4  A    between atoms: C_8  and  N_9
REMARK    5  A    between atoms: N_9  and  C_10
REMARK    6  A    between atoms: N_9  and  C_11
REMARK    7  A    between atoms: N_9  and  C_12
REMARK    8  A    between atoms: C_12  and  C_13
REMARK    9  A    between atoms: C_16  and  C_17
REMARK                            x       y       z     vdW  Elec       q    Type
REMARK                         _______ _______ _______ _____ _____    ______ ____
ROOT
ATOM      1  N   UNL     1       2.461   5.274  19.113  0.00  0.00    +0.000 N 
ATOM      2  C   UNL     1       1.460   5.053  17.991  0.00  0.00    +0.000 C 
ATOM      3  C   UNL     1       1.802   4.966  20.450  0.00  0.00    +0.000 C 
ENDROOT
BRANCH   1   4
ATOM      4  C   UNL     1       3.702   4.367  18.925  0.00  0.00    +0.000 C 
BRANCH   4  11
ATOM      5  C   UNL     1       7.625   7.139  17.310  0.00  0.00    +0.000 C 
ATOM      6  C   UNL     1       6.807   5.837  17.193  0.00  0.00    +0.000 C 
ATOM      7  C   UNL     1       7.618   4.723  17.867  0.00  0.00    +0.000 C 
ATOM      8  C   UNL     1       6.217   5.563  15.743  0.00  0.00    +0.000 C 
ATOM      9  C   UNL     1       5.656   4.144  15.524  0.00  0.00    +0.000 C 
ATOM     10  C   UNL     1       4.767   3.771  16.695  0.00  0.00    +0.000 C 
ATOM     11  C   UNL     1       4.538   4.639  17.707  0.00  0.00    +0.000 C 
ATOM     12  C   UNL     1       5.265   5.965  17.582  0.00  0.00    +0.000 C 
ATOM     13  C   UNL     1       5.066   6.544  16.136  0.00  0.00    +0.000 C 
ENDBRANCH   4  11
ENDBRANCH   1   4
BRANCH   1  14
ATOM     14  C   UNL     1       2.948   6.744  19.093  0.00  0.00    +0.000 C 
BRANCH  14  15
ATOM     15  C   UNL     1       2.011   7.775  19.679  0.00  0.00    +0.000 A 
ATOM     16  C   UNL     1       1.599   7.695  21.017  0.00  0.00    +0.000 A 
ATOM     17  C   UNL     1       0.719   8.641  21.553  0.00  0.00    +0.000 A 
ATOM     18  C   UNL     1       0.242   9.704  20.776  0.00  0.00    +0.000 A 
ATOM     19  C   UNL     1       0.656   9.787  19.441  0.00  0.00    +0.000 A 
ATOM     20  C   UNL     1       1.528   8.836  18.897  0.00  0.00    +0.000 A 
BRANCH  18  21
ATOM     21  C   UNL     1      -0.632  10.717  21.374  0.00  0.00    +0.000 A 
ATOM     22  C   UNL     1      -1.008  10.823  22.757  0.00  0.00    +0.000 A 
ATOM     23  C   UNL     1      -1.836  11.896  23.008  0.00  0.00    +0.000 A 
ATOM     24  S   UNL     1      -2.174  12.784  21.591  0.00  0.00    +0.000 S 
ATOM     25  C   UNL     1      -1.217  11.730  20.638  0.00  0.00    +0.000 A 
ENDBRANCH  18  21
ENDBRANCH  14  15
ENDBRANCH   1  14
TORSDOF 5
ENDMDL
MODEL 7
REMARK VINA RESULT:      -7.5      0.937      1.152
REMARK  Name = 
REMARK  9 active torsions:
REMARK  status: ('A' for Active; 'I' for Inactive)
REMARK    1  A    between atoms: C_1  and  C_2
REMARK    2  A    between atoms: C_2  and  C_3
REMARK    3  A    between atoms: C_7  and  C_8
REMARK    4  A    between atoms: C_8  and  N_9
REMARK    5  A    between atoms: N_9  and  C_10
REMARK    6  A    between atoms: N_9  and  C_11
REMARK    7  A    between atoms: N_9  and  C_12
REMARK    8  A    between atoms: C_12  and  C_13
REMARK    9  A    between atoms: C_16  and  C_17
REMARK                            x       y       z     vdW  Elec       q    Type
REMARK                         _______ _______ _______ _____ _____    ______ ____
ROOT
ATOM      1  N   UNL     1       2.553   4.097  18.709  0.00  0.00    +0.000 N 
ATOM      2  C   UNL     1       1.672   4.784  17.680  0.00  0.00    +0.000 C 
ATOM      3  C   UNL     1       1.736   3.060  19.466  0.00  0.00    +0.000 C 
ENDROOT
BRANCH   1   4
ATOM      4  C   UNL     1       3.760   3.410  18.025  0.00  0.00    +0.000 C 
BRANCH   4  11
ATOM      5  C   UNL     1       7.534   6.784  18.259  0.00  0.00    +0.000 C 
ATOM      6  C   UNL     1       6.812   5.682  17.458  0.00  0.00    +0.000 C 
ATOM      7  C   UNL     1       7.676   4.416  17.539  0.00  0.00    +0.000 C 
ATOM      8  C   UNL     1       6.293   6.143  16.028  0.00  0.00    +0.000 C 
ATOM      9  C   UNL     1       5.841   5.001  15.097  0.00  0.00    +0.000 C 
ATOM     10  C   UNL     1       4.940   4.054  15.868  0.00  0.00    +0.000 C 
ATOM     11  C   UNL     1       4.617   4.290  17.161  0.00  0.00    +0.000 C 
ATOM     12  C   UNL     1       5.253   5.531  17.758  0.00  0.00    +0.000 C 
ATOM     13  C   UNL     1       5.064   6.746  16.781  0.00  0.00    +0.000 C 
ENDBRANCH   4  11
ENDBRANCH   1   4
BRANCH   1  14
ATOM     14  C   UNL     1       3.113   5.149  19.698  0.00  0.00    +0.000 C 
BRANCH  14  15
ATOM     15  C   UNL     1       2.392   6.477  19.753  0.00  0.00    +0.000 A 
ATOM     16  C   UNL     1       2.459   7.377  18.680  0.00  0.00    +0.000 A 
ATOM     17  C   UNL     1       1.804   8.612  18.739  0.00  0.00    +0.000 A 
ATOM     18  C   UNL     1       1.049   8.975  19.861  0.00  0.00    +0.000 A 
ATOM     19  C   UNL     1       0.978   8.075  20.932  0.00  0.00    +0.000 A 
ATOM     20  C   UNL     1       1.641   6.842  20.881  0.00  0.00    +0.000 A 
BRANCH  18  21
ATOM     21  C   UNL     1       0.323  10.247  19.878  0.00  0.00    +0.000 A 
ATOM     22  C   UNL     1       0.273  11.197  20.956  0.00  0.00    +0.000 A 
ATOM     23  C   UNL     1      -0.490  12.306  20.659  0.00  0.00    +0.000 A 
ATOM     24  S   UNL     1      -1.156  12.220  19.091  0.00  0.00    +0.000 S 
ATOM     25  C   UNL     1      -0.429  10.695  18.807  0.00  0.00    +0.000 A 
ENDBRANCH  18  21
ENDBRANCH  14  15
ENDBRANCH   1  14
TORSDOF 5
ENDMDL
MODEL 8
REMARK VINA RESULT:      -7.4      0.872      2.054
REMARK  Name = 
REMARK  9 active torsions:
REMARK  status: ('A' for Active; 'I' for Inactive)
REMARK    1  A    between atoms: C_1  and  C_2
REMARK    2  A    between atoms: C_2  and  C_3
REMARK    3  A    between atoms: C_7  and  C_8
REMARK    4  A    between atoms: C_8  and  N_9
REMARK    5  A    between atoms: N_9  and  C_10
REMARK    6  A    between atoms: N_9  and  C_11
REMARK    7  A    between atoms: N_9  and  C_12
REMARK    8  A    between atoms: C_12  and  C_13
REMARK    9  A    between atoms: C_16  and  C_17
REMARK                            x       y       z     vdW  Elec       q    Type
REMARK                         _______ _______ _______ _____ _____    ______ ____
ROOT
ATOM      1  N   UNL     1       2.932   4.867  19.332  0.00  0.00    +0.000 N 
ATOM      2  C   UNL     1       2.060   4.897  18.088  0.00  0.00    +0.000 C 
ATOM      3  C   UNL     1       2.124   4.332  20.506  0.00  0.00    +0.000 C 
ENDROOT
BRANCH   1   4
ATOM      4  C   UNL     1       4.175   3.972  19.106  0.00  0.00    +0.000 C 
BRANCH   4  11
ATOM      5  C   UNL     1       5.666   5.390  14.474  0.00  0.00    +0.000 C 
ATOM      6  C   UNL     1       5.725   5.626  15.997  0.00  0.00    +0.000 C 
ATOM      7  C   UNL     1       4.854   6.850  16.307  0.00  0.00    +0.000 C 
ATOM      8  C   UNL     1       7.190   5.574  16.612  0.00  0.00    +0.000 C 
ATOM      9  C   UNL     1       7.311   6.094  18.058  0.00  0.00    +0.000 C 
ATOM     10  C   UNL     1       6.204   5.489  18.901  0.00  0.00    +0.000 C 
ATOM     11  C   UNL     1       5.322   4.609  18.374  0.00  0.00    +0.000 C 
ATOM     12  C   UNL     1       5.514   4.325  16.896  0.00  0.00    +0.000 C 
ATOM     13  C   UNL     1       7.028   4.020  16.608  0.00  0.00    +0.000 C 
ENDBRANCH   4  11
ENDBRANCH   1   4
BRANCH   1  14
ATOM     14  C   UNL     1       3.436   6.297  19.648  0.00  0.00    +0.000 C 
BRANCH  14  15
ATOM     15  C   UNL     1       2.421   7.412  19.535  0.00  0.00    +0.000 A 
ATOM     16  C   UNL     1       1.623   7.772  20.629  0.00  0.00    +0.000 A 
ATOM     17  C   UNL     1       0.672   8.793  20.518  0.00  0.00    +0.000 A 
ATOM     18  C   UNL     1       0.506   9.495  19.319  0.00  0.00    +0.000 A 
ATOM     19  C   UNL     1       1.306   9.139  18.225  0.00  0.00    +0.000 A 
ATOM     20  C   UNL     1       2.251   8.111  18.330  0.00  0.00    +0.000 A 
BRANCH  18  21
ATOM     21  C   UNL     1      -0.452  10.601  19.241  0.00  0.00    +0.000 A 
ATOM     22  C   UNL     1      -1.692  10.617  18.514  0.00  0.00    +0.000 A 
ATOM     23  C   UNL     1      -2.378  11.805  18.649  0.00  0.00    +0.000 A 
ATOM     24  S   UNL     1      -1.545  12.912  19.644  0.00  0.00    +0.000 S 
ATOM     25  C   UNL     1      -0.261  11.806  19.892  0.00  0.00    +0.000 A 
ENDBRANCH  18  21
ENDBRANCH  14  15
ENDBRANCH   1  14
TORSDOF 5
ENDMDL
MODEL 9
REMARK VINA RESULT:      -7.3      3.618      7.228
REMARK  Name = 
REMARK  9 active torsions:
REMARK  status: ('A' for Active; 'I' for Inactive)
REMARK    1  A    between atoms: C_1  and  C_2
REMARK    2  A    between atoms: C_2  and  C_3
REMARK    3  A    between atoms: C_7  and  C_8
REMARK    4  A    between atoms: C_8  and  N_9
REMARK    5  A    between atoms: N_9  and  C_10
REMARK    6  A    between atoms: N_9  and  C_11
REMARK    7  A    between atoms: N_9  and  C_12
REMARK    8  A    between atoms: C_12  and  C_13
REMARK    9  A    between atoms: C_16  and  C_17
REMARK                            x       y       z     vdW  Elec       q    Type
REMARK                         _______ _______ _______ _____ _____    ______ ____
ROOT
ATOM      1  N   UNL     1       2.617   6.973  18.827  0.00  0.00    +0.000 N 
ATOM      2  C   UNL     1       2.489   8.263  18.034  0.00  0.00    +0.000 C 
ATOM      3  C   UNL     1       2.139   7.205  20.253  0.00  0.00    +0.000 C 
ENDROOT
BRANCH   1   4
ATOM      4  C   UNL     1       1.779   5.846  18.175  0.00  0.00    +0.000 C 
BRANCH   4  11
ATOM      5  C   UNL     1       3.616   1.137  18.555  0.00  0.00    +0.000 C 
ATOM      6  C   UNL     1       2.994   2.360  19.259  0.00  0.00    +0.000 C 
ATOM      7  C   UNL     1       4.118   3.072  20.023  0.00  0.00    +0.000 C 
ATOM      8  C   UNL     1       1.641   2.051  20.034  0.00  0.00    +0.000 C 
ATOM      9  C   UNL     1       1.161   3.168  20.982  0.00  0.00    +0.000 C 
ATOM     10  C   UNL     1       1.237   4.501  20.263  0.00  0.00    +0.000 C 
ATOM     11  C   UNL     1       1.641   4.581  18.974  0.00  0.00    +0.000 C 
ATOM     12  C   UNL     1       2.038   3.257  18.350  0.00  0.00    +0.000 C 
ATOM     13  C   UNL     1       0.934   2.179  18.646  0.00  0.00    +0.000 C 
ENDBRANCH   4  11
ENDBRANCH   1   4
BRANCH   1  14
ATOM     14  C   UNL     1       4.096   6.513  18.835  0.00  0.00    +0.000 C 
BRANCH  14  15
ATOM     15  C   UNL     1       4.647   5.987  17.529  0.00  0.00    +0.000 A 
ATOM     16  C   UNL     1       5.022   4.643  17.395  0.00  0.00    +0.000 A 
ATOM     17  C   UNL     1       5.548   4.163  16.191  0.00  0.00    +0.000 A 
ATOM     18  C   UNL     1       5.695   5.004  15.082  0.00  0.00    +0.000 A 
ATOM     19  C   UNL     1       5.317   6.347  15.213  0.00  0.00    +0.000 A 
ATOM     20  C   UNL     1       4.801   6.834  16.420  0.00  0.00    +0.000 A 
BRANCH  18  21
ATOM     21  C   UNL     1       6.192   4.467  13.812  0.00  0.00    +0.000 A 
ATOM     22  C   UNL     1       7.344   4.914  13.079  0.00  0.00    +0.000 A 
ATOM     23  C   UNL     1       7.556   4.196  11.922  0.00  0.00    +0.000 A 
ATOM     24  S   UNL     1       6.377   2.983  11.700  0.00  0.00    +0.000 S 
ATOM     25  C   UNL     1       5.577   3.420  13.150  0.00  0.00    +0.000 A 
ENDBRANCH  18  21
ENDBRANCH  14  15
ENDBRANCH   1  14
TORSDOF 5
ENDMDL
