MODEL 1
REMARK VINA RESULT:      -6.3      0.000      0.000
REMARK  Name = 
REMARK  15 active torsions:
REMARK  status: ('A' for Active; 'I' for Inactive)
REMARK    1  A    between atoms: C_1  and  C_2
REMARK    2  A    between atoms: N_4  and  C_5
REMARK    3  A    between atoms: C_6  and  O_7
REMARK    4  A    between atoms: C_9  and  C_10
REMARK    5  A    between atoms: C_9  and  C_13
REMARK    6  A    between atoms: C_10  and  O_12
REMARK    7  A    between atoms: C_13  and  C_14
REMARK    8  A    between atoms: C_13  and  C_15
REMARK    9  A    between atoms: C_13  and  O_16
REMARK   10  A    between atoms: C_18  and  C_19
REMARK   11  A    between atoms: C_19  and  O_20
REMARK   12  A    between atoms: C_19  and  C_21
REMARK   13  A    between atoms: C_21  and  O_22
REMARK   14  A    between atoms: C_21  and  C_23
REMARK   15  A    between atoms: C_23  and  O_24
REMARK                            x       y       z     vdW  Elec       q    Type
REMARK                         _______ _______ _______ _____ _____    ______ ____
ROOT
ATOM      1  C   UNL     1       2.820   4.374  18.277  0.00  0.00    +0.000 C 
ATOM      2  C   UNL     1       3.706   3.437  17.436  0.00  0.00    +0.000 C 
ATOM      3  C   UNL     1       5.180   3.758  17.651  0.00  0.00    +0.000 C 
ATOM      4  C   UNL     1       5.528   5.251  17.450  0.00  0.00    +0.000 C 
ATOM      5  O   UNL     1       4.610   6.099  18.195  0.00  0.00    +0.000 OA
ATOM      6  C   UNL     1       3.205   5.841  17.934  0.00  0.00    +0.000 C 
ENDROOT
BRANCH   1  10
ATOM      7  C   UNL     1       2.181   3.235  21.844  0.00  0.00    +0.000 C 
ATOM      8  C   UNL     1       1.996   3.289  20.353  0.00  0.00    +0.000 C 
ATOM      9  O   UNL     1       1.112   2.668  19.776  0.00  0.00    +0.000 OA
ATOM     10  N   UNL     1       2.928   4.077  19.710  0.00  0.00    +0.000 N 
ATOM     11  H   UNL     1       3.388   4.781  20.284  0.00  0.00    +0.000 HD
ENDBRANCH   1  10
BRANCH   4  12
ATOM     12  C   UNL     1       6.978   5.553  18.008  0.00  0.00    +0.000 C 
ATOM     13  C   UNL     1       7.502   6.948  17.604  0.00  0.00    +0.000 C 
ATOM     14  C   UNL     1       7.095   5.438  19.538  0.00  0.00    +0.000 C 
BRANCH  12  15
ATOM     15  O   UNL     1       7.903   4.614  17.432  0.00  0.00    +0.000 OA
ATOM     16  H   UNL     1       8.750   4.719  17.901  0.00  0.00    +0.000 HD
ENDBRANCH  12  15
ENDBRANCH   4  12
BRANCH   2  17
ATOM     17  O   UNL     1       3.372   3.576  16.058  0.00  0.00    +0.000 OA
ATOM     18  H   UNL     1       4.116   4.024  15.612  0.00  0.00    +0.000 HD
ENDBRANCH   2  17
BRANCH   4  19
ATOM     19  C   UNL     1       5.527   5.596  15.931  0.00  0.00    +0.000 C 
ATOM     20  O   UNL     1       5.140   6.669  15.470  0.00  0.00    +0.000 OA
BRANCH  19  21
ATOM     21  O   UNL     1       5.987   4.614  15.132  0.00  0.00    +0.000 OA
ATOM     22  H   UNL     1       5.756   4.735  14.193  0.00  0.00    +0.000 HD
ENDBRANCH  19  21
ENDBRANCH   4  19
BRANCH   6  23
ATOM     23  C   UNL     1       2.372   6.886  18.730  0.00  0.00    +0.000 C 
BRANCH  23  24
ATOM     24  O   UNL     1       2.731   6.829  20.120  0.00  0.00    +0.000 OA
ATOM     25  H   UNL     1       3.658   7.145  20.174  0.00  0.00    +0.000 HD
ENDBRANCH  23  24
BRANCH  23  26
ATOM     26  C   UNL     1       2.595   8.324  18.211  0.00  0.00    +0.000 C 
BRANCH  26  27
ATOM     27  O   UNL     1       3.197   8.306  16.916  0.00  0.00    +0.000 OA
ATOM     28  H   UNL     1       2.731   8.952  16.350  0.00  0.00    +0.000 HD
ENDBRANCH  26  27
BRANCH  26  29
ATOM     29  C   UNL     1       1.299   9.156  18.188  0.00  0.00    +0.000 C 
BRANCH  29  30
ATOM     30  O   UNL     1       1.502  10.416  17.546  0.00  0.00    +0.000 OA
ATOM     31  H   UNL     1       2.290  10.843  17.928  0.00  0.00    +0.000 HD
ENDBRANCH  29  30
ENDBRANCH  26  29
ENDBRANCH  23  26
ENDBRANCH   6  23
TORSDOF 12
ENDMDL
MODEL 2
REMARK VINA RESULT:      -6.3      2.104      5.586
REMARK  Name = 
REMARK  15 active torsions:
REMARK  status: ('A' for Active; 'I' for Inactive)
REMARK    1  A    between atoms: C_1  and  C_2
REMARK    2  A    between atoms: N_4  and  C_5
REMARK    3  A    between atoms: C_6  and  O_7
REMARK    4  A    between atoms: C_9  and  C_10
REMARK    5  A    between atoms: C_9  and  C_13
REMARK    6  A    between atoms: C_10  and  O_12
REMARK    7  A    between atoms: C_13  and  C_14
REMARK    8  A    between atoms: C_13  and  C_15
REMARK    9  A    between atoms: C_13  and  O_16
REMARK   10  A    between atoms: C_18  and  C_19
REMARK   11  A    between atoms: C_19  and  O_20
REMARK   12  A    between atoms: C_19  and  C_21
REMARK   13  A    between atoms: C_21  and  O_22
REMARK   14  A    between atoms: C_21  and  C_23
REMARK   15  A    between atoms: C_23  and  O_24
REMARK                            x       y       z     vdW  Elec       q    Type
REMARK                         _______ _______ _______ _____ _____    ______ ____
ROOT
ATOM      1  C   UNL     1       4.859   5.934  17.654  0.00  0.00    +0.000 C 
ATOM      2  C   UNL     1       3.555   6.231  18.417  0.00  0.00    +0.000 C 
ATOM      3  C   UNL     1       3.212   5.083  19.358  0.00  0.00    +0.000 C 
ATOM      4  C   UNL     1       3.201   3.698  18.672  0.00  0.00    +0.000 C 
ATOM      5  O   UNL     1       4.414   3.499  17.895  0.00  0.00    +0.000 OA
ATOM      6  C   UNL     1       4.702   4.560  16.945  0.00  0.00    +0.000 C 
ENDROOT
BRANCH   1  10
ATOM      7  C   UNL     1       8.335   6.392  19.117  0.00  0.00    +0.000 C 
ATOM      8  C   UNL     1       7.206   6.582  18.142  0.00  0.00    +0.000 C 
ATOM      9  O   UNL     1       7.331   7.224  17.106  0.00  0.00    +0.000 OA
ATOM     10  N   UNL     1       6.027   5.987  18.541  0.00  0.00    +0.000 N 
ATOM     11  H   UNL     1       6.116   5.232  19.217  0.00  0.00    +0.000 HD
ENDBRANCH   1  10
BRANCH   4  12
ATOM     12  C   UNL     1       3.169   2.550  19.762  0.00  0.00    +0.000 C 
ATOM     13  C   UNL     1       4.569   1.987  20.087  0.00  0.00    +0.000 C 
ATOM     14  C   UNL     1       2.516   2.969  21.090  0.00  0.00    +0.000 C 
BRANCH  12  15
ATOM     15  O   UNL     1       2.418   1.438  19.244  0.00  0.00    +0.000 OA
ATOM     16  H   UNL     1       1.478   1.614  19.427  0.00  0.00    +0.000 HD
ENDBRANCH  12  15
ENDBRANCH   4  12
BRANCH   2  17
ATOM     17  O   UNL     1       2.495   6.435  17.486  0.00  0.00    +0.000 OA
ATOM     18  H   UNL     1       1.653   6.266  17.950  0.00  0.00    +0.000 HD
ENDBRANCH   2  17
BRANCH   4  19
ATOM     19  C   UNL     1       1.923   3.550  17.794  0.00  0.00    +0.000 C 
ATOM     20  O   UNL     1       0.818   3.992  18.109  0.00  0.00    +0.000 OA
BRANCH  19  21
ATOM     21  O   UNL     1       2.110   2.888  16.636  0.00  0.00    +0.000 OA
ATOM     22  H   UNL     1       2.561   3.417  15.953  0.00  0.00    +0.000 HD
ENDBRANCH  19  21
ENDBRANCH   4  19
BRANCH   6  23
ATOM     23  C   UNL     1       5.967   4.148  16.138  0.00  0.00    +0.000 C 
BRANCH  23  24
ATOM     24  O   UNL     1       5.908   2.744  15.836  0.00  0.00    +0.000 OA
ATOM     25  H   UNL     1       5.003   2.453  16.077  0.00  0.00    +0.000 HD
ENDBRANCH  23  24
BRANCH  23  26
ATOM     26  C   UNL     1       6.100   4.942  14.819  0.00  0.00    +0.000 C 
BRANCH  26  27
ATOM     27  O   UNL     1       7.454   5.339  14.602  0.00  0.00    +0.000 OA
ATOM     28  H   UNL     1       7.586   5.474  13.643  0.00  0.00    +0.000 HD
ENDBRANCH  26  27
BRANCH  26  29
ATOM     29  C   UNL     1       5.567   4.164  13.601  0.00  0.00    +0.000 C 
BRANCH  29  30
ATOM     30  O   UNL     1       6.543   3.247  13.104  0.00  0.00    +0.000 OA
ATOM     31  H   UNL     1       7.186   3.734  12.557  0.00  0.00    +0.000 HD
ENDBRANCH  29  30
ENDBRANCH  26  29
ENDBRANCH  23  26
ENDBRANCH   6  23
TORSDOF 12
ENDMDL
MODEL 3
REMARK VINA RESULT:      -6.1      0.891      1.085
REMARK  Name = 
REMARK  15 active torsions:
REMARK  status: ('A' for Active; 'I' for Inactive)
REMARK    1  A    between atoms: C_1  and  C_2
REMARK    2  A    between atoms: N_4  and  C_5
REMARK    3  A    between atoms: C_6  and  O_7
REMARK    4  A    between atoms: C_9  and  C_10
REMARK    5  A    between atoms: C_9  and  C_13
REMARK    6  A    between atoms: C_10  and  O_12
REMARK    7  A    between atoms: C_13  and  C_14
REMARK    8  A    between atoms: C_13  and  C_15
REMARK    9  A    between atoms: C_13  and  O_16
REMARK   10  A    between atoms: C_18  and  C_19
REMARK   11  A    between atoms: C_19  and  O_20
REMARK   12  A    between atoms: C_19  and  C_21
REMARK   13  A    between atoms: C_21  and  O_22
REMARK   14  A    between atoms: C_21  and  C_23
REMARK   15  A    between atoms: C_23  and  O_24
REMARK                            x       y       z     vdW  Elec       q    Type
REMARK                         _______ _______ _______ _____ _____    ______ ____
ROOT
ATOM      1  C   UNL     1       2.650   4.422  18.356  0.00  0.00    +0.000 C 
ATOM      2  C   UNL     1       3.543   3.519  17.485  0.00  0.00    +0.000 C 
ATOM      3  C   UNL     1       5.016   3.807  17.749  0.00  0.00    +0.000 C 
ATOM      4  C   UNL     1       5.387   5.304  17.635  0.00  0.00    +0.000 C 
ATOM      5  O   UNL     1       4.463   6.123  18.404  0.00  0.00    +0.000 OA
ATOM      6  C   UNL     1       3.061   5.899  18.099  0.00  0.00    +0.000 C 
ENDROOT
BRANCH   1  10
ATOM      7  C   UNL     1       1.889   3.180  21.864  0.00  0.00    +0.000 C 
ATOM      8  C   UNL     1       1.717   3.323  20.377  0.00  0.00    +0.000 C 
ATOM      9  O   UNL     1       0.780   2.817  19.771  0.00  0.00    +0.000 OA
ATOM     10  N   UNL     1       2.723   4.048  19.773  0.00  0.00    +0.000 N 
ATOM     11  H   UNL     1       3.245   4.676  20.380  0.00  0.00    +0.000 HD
ENDBRANCH   1  10
BRANCH   4  12
ATOM     12  C   UNL     1       6.828   5.556  18.239  0.00  0.00    +0.000 C 
ATOM     13  C   UNL     1       7.859   4.492  17.805  0.00  0.00    +0.000 C 
ATOM     14  C   UNL     1       7.414   6.937  17.900  0.00  0.00    +0.000 C 
BRANCH  12  15
ATOM     15  O   UNL     1       6.754   5.457  19.672  0.00  0.00    +0.000 OA
ATOM     16  H   UNL     1       7.491   5.981  20.036  0.00  0.00    +0.000 HD
ENDBRANCH  12  15
ENDBRANCH   4  12
BRANCH   2  17
ATOM     17  O   UNL     1       3.241   3.734  16.110  0.00  0.00    +0.000 OA
ATOM     18  H   UNL     1       2.344   4.117  16.057  0.00  0.00    +0.000 HD
ENDBRANCH   2  17
BRANCH   4  19
ATOM     19  C   UNL     1       5.423   5.728  16.137  0.00  0.00    +0.000 C 
ATOM     20  O   UNL     1       5.108   6.847  15.731  0.00  0.00    +0.000 OA
BRANCH  19  21
ATOM     21  O   UNL     1       5.832   4.763  15.290  0.00  0.00    +0.000 OA
ATOM     22  H   UNL     1       6.041   3.920  15.731  0.00  0.00    +0.000 HD
ENDBRANCH  19  21
ENDBRANCH   4  19
BRANCH   6  23
ATOM     23  C   UNL     1       2.223   6.913  18.932  0.00  0.00    +0.000 C 
BRANCH  23  24
ATOM     24  O   UNL     1       2.583   6.807  20.319  0.00  0.00    +0.000 OA
ATOM     25  H   UNL     1       2.355   7.670  20.725  0.00  0.00    +0.000 HD
ENDBRANCH  23  24
BRANCH  23  26
ATOM     26  C   UNL     1       2.442   8.369  18.464  0.00  0.00    +0.000 C 
BRANCH  26  27
ATOM     27  O   UNL     1       2.802   8.408  17.083  0.00  0.00    +0.000 OA
ATOM     28  H   UNL     1       1.985   8.350  16.550  0.00  0.00    +0.000 HD
ENDBRANCH  26  27
BRANCH  26  29
ATOM     29  C   UNL     1       1.218   9.267  18.724  0.00  0.00    +0.000 C 
BRANCH  29  30
ATOM     30  O   UNL     1       0.866   9.276  20.108  0.00  0.00    +0.000 OA
ATOM     31  H   UNL     1       0.713  10.196  20.390  0.00  0.00    +0.000 HD
ENDBRANCH  29  30
ENDBRANCH  26  29
ENDBRANCH  23  26
ENDBRANCH   6  23
TORSDOF 12
ENDMDL
MODEL 4
REMARK VINA RESULT:      -6.0      0.619      1.074
REMARK  Name = 
REMARK  15 active torsions:
REMARK  status: ('A' for Active; 'I' for Inactive)
REMARK    1  A    between atoms: C_1  and  C_2
REMARK    2  A    between atoms: N_4  and  C_5
REMARK    3  A    between atoms: C_6  and  O_7
REMARK    4  A    between atoms: C_9  and  C_10
REMARK    5  A    between atoms: C_9  and  C_13
REMARK    6  A    between atoms: C_10  and  O_12
REMARK    7  A    between atoms: C_13  and  C_14
REMARK    8  A    between atoms: C_13  and  C_15
REMARK    9  A    between atoms: C_13  and  O_16
REMARK   10  A    between atoms: C_18  and  C_19
REMARK   11  A    between atoms: C_19  and  O_20
REMARK   12  A    between atoms: C_19  and  C_21
REMARK   13  A    between atoms: C_21  and  O_22
REMARK   14  A    between atoms: C_21  and  C_23
REMARK   15  A    between atoms: C_23  and  O_24
REMARK                            x       y       z     vdW  Elec       q    Type
REMARK                         _______ _______ _______ _____ _____    ______ ____
ROOT
ATOM      1  C   UNL     1       2.618   4.394  18.387  0.00  0.00    +0.000 C 
ATOM      2  C   UNL     1       3.449   3.428  17.522  0.00  0.00    +0.000 C 
ATOM      3  C   UNL     1       4.937   3.712  17.681  0.00  0.00    +0.000 C 
ATOM      4  C   UNL     1       5.315   5.194  17.453  0.00  0.00    +0.000 C 
ATOM      5  O   UNL     1       4.447   6.071  18.224  0.00  0.00    +0.000 OA
ATOM      6  C   UNL     1       3.027   5.847  18.017  0.00  0.00    +0.000 C 
ENDROOT
BRANCH   1  10
ATOM      7  C   UNL     1       2.135   3.190  21.957  0.00  0.00    +0.000 C 
ATOM      8  C   UNL     1       1.928   3.229  20.468  0.00  0.00    +0.000 C 
ATOM      9  O   UNL     1       1.101   2.527  19.900  0.00  0.00    +0.000 OA
ATOM     10  N   UNL     1       2.771   4.105  19.818  0.00  0.00    +0.000 N 
ATOM     11  H   UNL     1       3.167   4.849  20.388  0.00  0.00    +0.000 HD
ENDBRANCH   1  10
BRANCH   4  12
ATOM     12  C   UNL     1       6.792   5.463  17.955  0.00  0.00    +0.000 C 
ATOM     13  C   UNL     1       6.902   5.537  19.494  0.00  0.00    +0.000 C 
ATOM     14  C   UNL     1       7.817   4.426  17.466  0.00  0.00    +0.000 C 
BRANCH  12  15
ATOM     15  O   UNL     1       7.218   6.751  17.477  0.00  0.00    +0.000 OA
ATOM     16  H   UNL     1       6.633   7.417  17.881  0.00  0.00    +0.000 HD
ENDBRANCH  12  15
ENDBRANCH   4  12
BRANCH   2  17
ATOM     17  O   UNL     1       3.067   3.563  16.156  0.00  0.00    +0.000 OA
ATOM     18  H   UNL     1       2.517   2.791  15.921  0.00  0.00    +0.000 HD
ENDBRANCH   2  17
BRANCH   4  19
ATOM     19  C   UNL     1       5.267   5.526  15.933  0.00  0.00    +0.000 C 
ATOM     20  O   UNL     1       5.331   4.679  15.042  0.00  0.00    +0.000 OA
BRANCH  19  21
ATOM     21  O   UNL     1       5.149   6.838  15.647  0.00  0.00    +0.000 OA
ATOM     22  H   UNL     1       4.250   7.098  15.375  0.00  0.00    +0.000 HD
ENDBRANCH  19  21
ENDBRANCH   4  19
BRANCH   6  23
ATOM     23  C   UNL     1       2.251   6.920  18.833  0.00  0.00    +0.000 C 
BRANCH  23  24
ATOM     24  O   UNL     1       2.633   6.841  20.216  0.00  0.00    +0.000 OA
ATOM     25  H   UNL     1       3.600   6.674  20.221  0.00  0.00    +0.000 HD
ENDBRANCH  23  24
BRANCH  23  26
ATOM     26  C   UNL     1       2.521   8.351  18.317  0.00  0.00    +0.000 C 
BRANCH  26  27
ATOM     27  O   UNL     1       3.044   8.319  16.989  0.00  0.00    +0.000 OA
ATOM     28  H   UNL     1       4.017   8.389  17.039  0.00  0.00    +0.000 HD
ENDBRANCH  26  27
BRANCH  26  29
ATOM     29  C   UNL     1       1.273   9.251  18.379  0.00  0.00    +0.000 C 
BRANCH  29  30
ATOM     30  O   UNL     1       1.433  10.418  17.571  0.00  0.00    +0.000 OA
ATOM     31  H   UNL     1       2.250  10.877  17.836  0.00  0.00    +0.000 HD
ENDBRANCH  29  30
ENDBRANCH  26  29
ENDBRANCH  23  26
ENDBRANCH   6  23
TORSDOF 12
ENDMDL
MODEL 5
REMARK VINA RESULT:      -5.9      1.939      5.312
REMARK  Name = 
REMARK  15 active torsions:
REMARK  status: ('A' for Active; 'I' for Inactive)
REMARK    1  A    between atoms: C_1  and  C_2
REMARK    2  A    between atoms: N_4  and  C_5
REMARK    3  A    between atoms: C_6  and  O_7
REMARK    4  A    between atoms: C_9  and  C_10
REMARK    5  A    between atoms: C_9  and  C_13
REMARK    6  A    between atoms: C_10  and  O_12
REMARK    7  A    between atoms: C_13  and  C_14
REMARK    8  A    between atoms: C_13  and  C_15
REMARK    9  A    between atoms: C_13  and  O_16
REMARK   10  A    between atoms: C_18  and  C_19
REMARK   11  A    between atoms: C_19  and  O_20
REMARK   12  A    between atoms: C_19  and  C_21
REMARK   13  A    between atoms: C_21  and  O_22
REMARK   14  A    between atoms: C_21  and  C_23
REMARK   15  A    between atoms: C_23  and  O_24
REMARK                            x       y       z     vdW  Elec       q    Type
REMARK                         _______ _______ _______ _____ _____    ______ ____
ROOT
ATOM      1  C   UNL     1       3.766   5.176  17.498  0.00  0.00    +0.000 C 
ATOM      2  C   UNL     1       2.763   4.035  17.245  0.00  0.00    +0.000 C 
ATOM      3  C   UNL     1       2.160   3.551  18.557  0.00  0.00    +0.000 C 
ATOM      4  C   UNL     1       3.212   3.193  19.632  0.00  0.00    +0.000 C 
ATOM      5  O   UNL     1       4.187   4.263  19.774  0.00  0.00    +0.000 OA
ATOM      6  C   UNL     1       4.815   4.675  18.530  0.00  0.00    +0.000 C 
ENDROOT
BRANCH   1  10
ATOM      7  C   UNL     1       2.657   8.779  17.961  0.00  0.00    +0.000 C 
ATOM      8  C   UNL     1       3.306   7.606  17.281  0.00  0.00    +0.000 C 
ATOM      9  O   UNL     1       3.945   7.718  16.242  0.00  0.00    +0.000 OA
ATOM     10  N   UNL     1       3.089   6.406  17.925  0.00  0.00    +0.000 N 
ATOM     11  H   UNL     1       2.844   6.468  18.911  0.00  0.00    +0.000 HD
ENDBRANCH   1  10
BRANCH   4  12
ATOM     12  C   UNL     1       2.515   3.025  21.043  0.00  0.00    +0.000 C 
ATOM     13  C   UNL     1       2.372   4.359  21.807  0.00  0.00    +0.000 C 
ATOM     14  C   UNL     1       1.124   2.374  20.978  0.00  0.00    +0.000 C 
BRANCH  12  15
ATOM     15  O   UNL     1       3.344   2.194  21.874  0.00  0.00    +0.000 OA
ATOM     16  H   UNL     1       2.859   1.363  22.025  0.00  0.00    +0.000 HD
ENDBRANCH  12  15
ENDBRANCH   4  12
BRANCH   2  17
ATOM     17  O   UNL     1       3.422   2.960  16.583  0.00  0.00    +0.000 OA
ATOM     18  H   UNL     1       4.372   3.180  16.526  0.00  0.00    +0.000 HD
ENDBRANCH   2  17
BRANCH   4  19
ATOM     19  C   UNL     1       3.892   1.838  19.277  0.00  0.00    +0.000 C 
ATOM     20  O   UNL     1       3.396   0.996  18.528  0.00  0.00    +0.000 OA
BRANCH  19  21
ATOM     21  O   UNL     1       5.089   1.640  19.861  0.00  0.00    +0.000 OA
ATOM     22  H   UNL     1       5.211   2.149  20.684  0.00  0.00    +0.000 HD
ENDBRANCH  19  21
ENDBRANCH   4  19
BRANCH   6  23
ATOM     23  C   UNL     1       5.889   5.749  18.871  0.00  0.00    +0.000 C 
BRANCH  23  24
ATOM     24  O   UNL     1       6.687   5.296  19.976  0.00  0.00    +0.000 OA
ATOM     25  H   UNL     1       6.119   4.682  20.488  0.00  0.00    +0.000 HD
ENDBRANCH  23  24
BRANCH  23  26
ATOM     26  C   UNL     1       6.814   6.048  17.670  0.00  0.00    +0.000 C 
BRANCH  26  27
ATOM     27  O   UNL     1       7.935   6.833  18.078  0.00  0.00    +0.000 OA
ATOM     28  H   UNL     1       8.289   7.295  17.294  0.00  0.00    +0.000 HD
ENDBRANCH  26  27
BRANCH  26  29
ATOM     29  C   UNL     1       7.287   4.770  16.952  0.00  0.00    +0.000 C 
BRANCH  29  30
ATOM     30  O   UNL     1       8.271   4.077  17.721  0.00  0.00    +0.000 OA
ATOM     31  H   UNL     1       8.503   3.248  17.265  0.00  0.00    +0.000 HD
ENDBRANCH  29  30
ENDBRANCH  26  29
ENDBRANCH  23  26
ENDBRANCH   6  23
TORSDOF 12
ENDMDL
MODEL 6
REMARK VINA RESULT:      -5.6      2.089      5.450
REMARK  Name = 
REMARK  15 active torsions:
REMARK  status: ('A' for Active; 'I' for Inactive)
REMARK    1  A    between atoms: C_1  and  C_2
REMARK    2  A    between atoms: N_4  and  C_5
REMARK    3  A    between atoms: C_6  and  O_7
REMARK    4  A    between atoms: C_9  and  C_10
REMARK    5  A    between atoms: C_9  and  C_13
REMARK    6  A    between atoms: C_10  and  O_12
REMARK    7  A    between atoms: C_13  and  C_14
REMARK    8  A    between atoms: C_13  and  C_15
REMARK    9  A    between atoms: C_13  and  O_16
REMARK   10  A    between atoms: C_18  and  C_19
REMARK   11  A    between atoms: C_19  and  O_20
REMARK   12  A    between atoms: C_19  and  C_21
REMARK   13  A    between atoms: C_21  and  O_22
REMARK   14  A    between atoms: C_21  and  C_23
REMARK   15  A    between atoms: C_23  and  O_24
REMARK                            x       y       z     vdW  Elec       q    Type
REMARK                         _______ _______ _______ _____ _____    ______ ____
ROOT
ATOM      1  C   UNL     1       5.248   5.916  18.392  0.00  0.00    +0.000 C 
ATOM      2  C   UNL     1       3.902   6.073  19.124  0.00  0.00    +0.000 C 
ATOM      3  C   UNL     1       3.384   4.718  19.589  0.00  0.00    +0.000 C 
ATOM      4  C   UNL     1       3.335   3.652  18.469  0.00  0.00    +0.000 C 
ATOM      5  O   UNL     1       4.600   3.601  17.752  0.00  0.00    +0.000 OA
ATOM      6  C   UNL     1       5.057   4.884  17.246  0.00  0.00    +0.000 C 
ENDROOT
BRANCH   1  10
ATOM      7  C   UNL     1       8.595   5.465  20.131  0.00  0.00    +0.000 C 
ATOM      8  C   UNL     1       7.589   6.086  19.202  0.00  0.00    +0.000 C 
ATOM      9  O   UNL     1       7.875   6.999  18.438  0.00  0.00    +0.000 OA
ATOM     10  N   UNL     1       6.325   5.546  19.318  0.00  0.00    +0.000 N 
ATOM     11  H   UNL     1       6.275   4.612  19.720  0.00  0.00    +0.000 HD
ENDBRANCH   1  10
BRANCH   4  12
ATOM     12  C   UNL     1       3.111   2.215  19.094  0.00  0.00    +0.000 C 
ATOM     13  C   UNL     1       4.021   1.137  18.468  0.00  0.00    +0.000 C 
ATOM     14  C   UNL     1       3.304   2.160  20.619  0.00  0.00    +0.000 C 
BRANCH  12  15
ATOM     15  O   UNL     1       1.765   1.791  18.813  0.00  0.00    +0.000 OA
ATOM     16  H   UNL     1       1.806   0.852  18.560  0.00  0.00    +0.000 HD
ENDBRANCH  12  15
ENDBRANCH   4  12
BRANCH   2  17
ATOM     17  O   UNL     1       2.956   6.686  18.253  0.00  0.00    +0.000 OA
ATOM     18  H   UNL     1       2.252   7.080  18.804  0.00  0.00    +0.000 HD
ENDBRANCH   2  17
BRANCH   4  19
ATOM     19  C   UNL     1       2.141   3.942  17.513  0.00  0.00    +0.000 C 
ATOM     20  O   UNL     1       1.196   4.678  17.797  0.00  0.00    +0.000 OA
BRANCH  19  21
ATOM     21  O   UNL     1       2.211   3.317  16.322  0.00  0.00    +0.000 OA
ATOM     22  H   UNL     1       1.630   2.537  16.256  0.00  0.00    +0.000 HD
ENDBRANCH  19  21
ENDBRANCH   4  19
BRANCH   6  23
ATOM     23  C   UNL     1       6.360   4.638  16.431  0.00  0.00    +0.000 C 
BRANCH  23  24
ATOM     24  O   UNL     1       7.242   3.787  17.181  0.00  0.00    +0.000 OA
ATOM     25  H   UNL     1       6.687   3.052  17.520  0.00  0.00    +0.000 HD
ENDBRANCH  23  24
BRANCH  23  26
ATOM     26  C   UNL     1       6.074   3.984  15.061  0.00  0.00    +0.000 C 
BRANCH  26  27
ATOM     27  O   UNL     1       4.684   4.065  14.743  0.00  0.00    +0.000 OA
ATOM     28  H   UNL     1       4.215   3.359  15.229  0.00  0.00    +0.000 HD
ENDBRANCH  26  27
BRANCH  26  29
ATOM     29  C   UNL     1       6.920   4.588  13.925  0.00  0.00    +0.000 C 
BRANCH  29  30
ATOM     30  O   UNL     1       7.917   5.474  14.435  0.00  0.00    +0.000 OA
ATOM     31  H   UNL     1       8.711   5.415  13.874  0.00  0.00    +0.000 HD
ENDBRANCH  29  30
ENDBRANCH  26  29
ENDBRANCH  23  26
ENDBRANCH   6  23
TORSDOF 12
ENDMDL
MODEL 7
REMARK VINA RESULT:      -5.6      2.143      5.563
REMARK  Name = 
REMARK  15 active torsions:
REMARK  status: ('A' for Active; 'I' for Inactive)
REMARK    1  A    between atoms: C_1  and  C_2
REMARK    2  A    between atoms: N_4  and  C_5
REMARK    3  A    between atoms: C_6  and  O_7
REMARK    4  A    between atoms: C_9  and  C_10
REMARK    5  A    between atoms: C_9  and  C_13
REMARK    6  A    between atoms: C_10  and  O_12
REMARK    7  A    between atoms: C_13  and  C_14
REMARK    8  A    between atoms: C_13  and  C_15
REMARK    9  A    between atoms: C_13  and  O_16
REMARK   10  A    between atoms: C_18  and  C_19
REMARK   11  A    between atoms: C_19  and  O_20
REMARK   12  A    between atoms: C_19  and  C_21
REMARK   13  A    between atoms: C_21  and  O_22
REMARK   14  A    between atoms: C_21  and  C_23
REMARK   15  A    between atoms: C_23  and  O_24
REMARK                            x       y       z     vdW  Elec       q    Type
REMARK                         _______ _______ _______ _____ _____    ______ ____
ROOT
ATOM      1  C   UNL     1       5.117   6.374  17.489  0.00  0.00    +0.000 C 
ATOM      2  C   UNL     1       3.803   6.443  18.288  0.00  0.00    +0.000 C 
ATOM      3  C   UNL     1       3.622   5.186  19.130  0.00  0.00    +0.000 C 
ATOM      4  C   UNL     1       3.766   3.872  18.328  0.00  0.00    +0.000 C 
ATOM      5  O   UNL     1       4.978   3.891  17.523  0.00  0.00    +0.000 OA
ATOM      6  C   UNL     1       5.114   5.055  16.666  0.00  0.00    +0.000 C 
ENDROOT
BRANCH   1  10
ATOM      7  C   UNL     1       8.531   7.160  18.959  0.00  0.00    +0.000 C 
ATOM      8  C   UNL     1       7.362   7.292  18.022  0.00  0.00    +0.000 C 
ATOM      9  O   UNL     1       7.369   8.056  17.064  0.00  0.00    +0.000 OA
ATOM     10  N   UNL     1       6.289   6.496  18.365  0.00  0.00    +0.000 N 
ATOM     11  H   UNL     1       6.500   5.692  18.951  0.00  0.00    +0.000 HD
ENDBRANCH   1  10
BRANCH   4  12
ATOM     12  C   UNL     1       3.897   2.642  19.315  0.00  0.00    +0.000 C 
ATOM     13  C   UNL     1       3.026   2.789  20.581  0.00  0.00    +0.000 C 
ATOM     14  C   UNL     1       3.557   1.287  18.672  0.00  0.00    +0.000 C 
BRANCH  12  15
ATOM     15  O   UNL     1       5.253   2.568  19.788  0.00  0.00    +0.000 OA
ATOM     16  H   UNL     1       5.416   1.645  20.056  0.00  0.00    +0.000 HD
ENDBRANCH  12  15
ENDBRANCH   4  12
BRANCH   2  17
ATOM     17  O   UNL     1       2.707   6.591  17.390  0.00  0.00    +0.000 OA
ATOM     18  H   UNL     1       2.741   5.853  16.751  0.00  0.00    +0.000 HD
ENDBRANCH   2  17
BRANCH   4  19
ATOM     19  C   UNL     1       2.498   3.643  17.454  0.00  0.00    +0.000 C 
ATOM     20  O   UNL     1       2.518   3.136  16.333  0.00  0.00    +0.000 OA
BRANCH  19  21
ATOM     21  O   UNL     1       1.345   4.049  18.020  0.00  0.00    +0.000 OA
ATOM     22  H   UNL     1       0.901   3.355  18.541  0.00  0.00    +0.000 HD
ENDBRANCH  19  21
ENDBRANCH   4  19
BRANCH   6  23
ATOM     23  C   UNL     1       6.403   4.872  15.813  0.00  0.00    +0.000 C 
BRANCH  23  24
ATOM     24  O   UNL     1       7.418   4.237  16.607  0.00  0.00    +0.000 OA
ATOM     25  H   UNL     1       6.966   3.525  17.107  0.00  0.00    +0.000 HD
ENDBRANCH  23  24
BRANCH  23  26
ATOM     26  C   UNL     1       6.147   4.021  14.549  0.00  0.00    +0.000 C 
BRANCH  26  27
ATOM     27  O   UNL     1       4.756   3.999  14.227  0.00  0.00    +0.000 OA
ATOM     28  H   UNL     1       4.314   4.718  14.720  0.00  0.00    +0.000 HD
ENDBRANCH  26  27
BRANCH  26  29
ATOM     29  C   UNL     1       6.969   4.496  13.336  0.00  0.00    +0.000 C 
BRANCH  29  30
ATOM     30  O   UNL     1       7.930   5.482  13.714  0.00  0.00    +0.000 OA
ATOM     31  H   UNL     1       8.426   5.761  12.924  0.00  0.00    +0.000 HD
ENDBRANCH  29  30
ENDBRANCH  26  29
ENDBRANCH  23  26
ENDBRANCH   6  23
TORSDOF 12
ENDMDL
MODEL 8
REMARK VINA RESULT:      -5.6      2.042      5.323
REMARK  Name = 
REMARK  15 active torsions:
REMARK  status: ('A' for Active; 'I' for Inactive)
REMARK    1  A    between atoms: C_1  and  C_2
REMARK    2  A    between atoms: N_4  and  C_5
REMARK    3  A    between atoms: C_6  and  O_7
REMARK    4  A    between atoms: C_9  and  C_10
REMARK    5  A    between atoms: C_9  and  C_13
REMARK    6  A    between atoms: C_10  and  O_12
REMARK    7  A    between atoms: C_13  and  C_14
REMARK    8  A    between atoms: C_13  and  C_15
REMARK    9  A    between atoms: C_13  and  O_16
REMARK   10  A    between atoms: C_18  and  C_19
REMARK   11  A    between atoms: C_19  and  O_20
REMARK   12  A    between atoms: C_19  and  C_21
REMARK   13  A    between atoms: C_21  and  O_22
REMARK   14  A    between atoms: C_21  and  C_23
REMARK   15  A    between atoms: C_23  and  O_24
REMARK                            x       y       z     vdW  Elec       q    Type
REMARK                         _______ _______ _______ _____ _____    ______ ____
ROOT
ATOM      1  C   UNL     1       4.598   4.865  17.481  0.00  0.00    +0.000 C 
ATOM      2  C   UNL     1       3.589   3.761  17.115  0.00  0.00    +0.000 C 
ATOM      3  C   UNL     1       2.741   3.388  18.325  0.00  0.00    +0.000 C 
ATOM      4  C   UNL     1       3.569   3.047  19.585  0.00  0.00    +0.000 C 
ATOM      5  O   UNL     1       4.566   4.076  19.839  0.00  0.00    +0.000 OA
ATOM      6  C   UNL     1       5.422   4.379  18.706  0.00  0.00    +0.000 C 
ENDROOT
BRANCH   1  10
ATOM      7  C   UNL     1       3.457   8.485  17.335  0.00  0.00    +0.000 C 
ATOM      8  C   UNL     1       4.077   7.207  16.842  0.00  0.00    +0.000 C 
ATOM      9  O   UNL     1       4.635   7.122  15.755  0.00  0.00    +0.000 OA
ATOM     10  N   UNL     1       3.931   6.150  17.717  0.00  0.00    +0.000 N 
ATOM     11  H   UNL     1       3.757   6.397  18.688  0.00  0.00    +0.000 HD
ENDBRANCH   1  10
BRANCH   4  12
ATOM     12  C   UNL     1       2.631   3.001  20.858  0.00  0.00    +0.000 C 
ATOM     13  C   UNL     1       2.403   4.391  21.491  0.00  0.00    +0.000 C 
ATOM     14  C   UNL     1       1.249   2.378  20.593  0.00  0.00    +0.000 C 
BRANCH  12  15
ATOM     15  O   UNL     1       3.271   2.215  21.879  0.00  0.00    +0.000 OA
ATOM     16  H   UNL     1       3.826   2.820  22.403  0.00  0.00    +0.000 HD
ENDBRANCH  12  15
ENDBRANCH   4  12
BRANCH   2  17
ATOM     17  O   UNL     1       4.288   2.616  16.636  0.00  0.00    +0.000 OA
ATOM     18  H   UNL     1       3.812   2.280  15.853  0.00  0.00    +0.000 HD
ENDBRANCH   2  17
BRANCH   4  19
ATOM     19  C   UNL     1       4.220   1.641  19.427  0.00  0.00    +0.000 C 
ATOM     20  O   UNL     1       3.819   0.783  18.640  0.00  0.00    +0.000 OA
BRANCH  19  21
ATOM     21  O   UNL     1       5.277   1.418  20.231  0.00  0.00    +0.000 OA
ATOM     22  H   UNL     1       5.267   0.539  20.653  0.00  0.00    +0.000 HD
ENDBRANCH  19  21
ENDBRANCH   4  19
BRANCH   6  23
ATOM     23  C   UNL     1       6.482   5.419  19.173  0.00  0.00    +0.000 C 
BRANCH  23  24
ATOM     24  O   UNL     1       6.961   5.062  20.479  0.00  0.00    +0.000 OA
ATOM     25  H   UNL     1       6.373   5.518  21.118  0.00  0.00    +0.000 HD
ENDBRANCH  23  24
BRANCH  23  26
ATOM     26  C   UNL     1       7.681   5.503  18.202  0.00  0.00    +0.000 C 
BRANCH  26  27
ATOM     27  O   UNL     1       7.845   4.274  17.494  0.00  0.00    +0.000 OA
ATOM     28  H   UNL     1       7.023   4.091  16.999  0.00  0.00    +0.000 HD
ENDBRANCH  26  27
BRANCH  26  29
ATOM     29  C   UNL     1       7.564   6.679  17.214  0.00  0.00    +0.000 C 
BRANCH  29  30
ATOM     30  O   UNL     1       7.462   6.216  15.867  0.00  0.00    +0.000 OA
ATOM     31  H   UNL     1       7.972   5.391  15.775  0.00  0.00    +0.000 HD
ENDBRANCH  29  30
ENDBRANCH  26  29
ENDBRANCH  23  26
ENDBRANCH   6  23
TORSDOF 12
ENDMDL
MODEL 9
REMARK VINA RESULT:      -5.5      2.074      5.275
REMARK  Name = 
REMARK  15 active torsions:
REMARK  status: ('A' for Active; 'I' for Inactive)
REMARK    1  A    between atoms: C_1  and  C_2
REMARK    2  A    between atoms: N_4  and  C_5
REMARK    3  A    between atoms: C_6  and  O_7
REMARK    4  A    between atoms: C_9  and  C_10
REMARK    5  A    between atoms: C_9  and  C_13
REMARK    6  A    between atoms: C_10  and  O_12
REMARK    7  A    between atoms: C_13  and  C_14
REMARK    8  A    between atoms: C_13  and  C_15
REMARK    9  A    between atoms: C_13  and  O_16
REMARK   10  A    between atoms: C_18  and  C_19
REMARK   11  A    between atoms: C_19  and  O_20
REMARK   12  A    between atoms: C_19  and  C_21
REMARK   13  A    between atoms: C_21  and  O_22
REMARK   14  A    between atoms: C_21  and  C_23
REMARK   15  A    between atoms: C_23  and  O_24
REMARK                            x       y       z     vdW  Elec       q    Type
REMARK                         _______ _______ _______ _____ _____    ______ ____
ROOT
ATOM      1  C   UNL     1       5.268   5.683  18.458  0.00  0.00    +0.000 C 
ATOM      2  C   UNL     1       3.949   6.009  19.184  0.00  0.00    +0.000 C 
ATOM      3  C   UNL     1       3.352   4.751  19.802  0.00  0.00    +0.000 C 
ATOM      4  C   UNL     1       3.212   3.575  18.808  0.00  0.00    +0.000 C 
ATOM      5  O   UNL     1       4.456   3.361  18.086  0.00  0.00    +0.000 OA
ATOM      6  C   UNL     1       4.987   4.547  17.435  0.00  0.00    +0.000 C 
ENDROOT
BRANCH   1  10
ATOM      7  C   UNL     1       8.596   5.307  20.250  0.00  0.00    +0.000 C 
ATOM      8  C   UNL     1       7.595   5.897  19.295  0.00  0.00    +0.000 C 
ATOM      9  O   UNL     1       7.881   6.797  18.516  0.00  0.00    +0.000 OA
ATOM     10  N   UNL     1       6.336   5.345  19.406  0.00  0.00    +0.000 N 
ATOM     11  H   UNL     1       6.291   4.419  19.826  0.00  0.00    +0.000 HD
ENDBRANCH   1  10
BRANCH   4  12
ATOM     12  C   UNL     1       2.906   2.233  19.591  0.00  0.00    +0.000 C 
ATOM     13  C   UNL     1       4.104   1.259  19.609  0.00  0.00    +0.000 C 
ATOM     14  C   UNL     1       2.459   2.448  21.047  0.00  0.00    +0.000 C 
BRANCH  12  15
ATOM     15  O   UNL     1       1.850   1.531  18.913  0.00  0.00    +0.000 OA
ATOM     16  H   UNL     1       1.450   2.153  18.279  0.00  0.00    +0.000 HD
ENDBRANCH  12  15
ENDBRANCH   4  12
BRANCH   2  17
ATOM     17  O   UNL     1       3.029   6.586  18.263  0.00  0.00    +0.000 OA
ATOM     18  H   UNL     1       2.255   5.993  18.202  0.00  0.00    +0.000 HD
ENDBRANCH   2  17
BRANCH   4  19
ATOM     19  C   UNL     1       2.021   3.839  17.841  0.00  0.00    +0.000 C 
ATOM     20  O   UNL     1       1.036   4.517  18.132  0.00  0.00    +0.000 OA
BRANCH  19  21
ATOM     21  O   UNL     1       2.141   3.258  16.631  0.00  0.00    +0.000 OA
ATOM     22  H   UNL     1       1.902   2.313  16.626  0.00  0.00    +0.000 HD
ENDBRANCH  19  21
ENDBRANCH   4  19
BRANCH   6  23
ATOM     23  C   UNL     1       6.254   4.126  16.636  0.00  0.00    +0.000 C 
BRANCH  23  24
ATOM     24  O   UNL     1       5.983   2.918  15.907  0.00  0.00    +0.000 OA
ATOM     25  H   UNL     1       6.122   3.135  14.960  0.00  0.00    +0.000 HD
ENDBRANCH  23  24
BRANCH  23  26
ATOM     26  C   UNL     1       6.708   5.222  15.646  0.00  0.00    +0.000 C 
BRANCH  26  27
ATOM     27  O   UNL     1       7.805   4.765  14.854  0.00  0.00    +0.000 OA
ATOM     28  H   UNL     1       8.564   5.362  15.005  0.00  0.00    +0.000 HD
ENDBRANCH  26  27
BRANCH  26  29
ATOM     29  C   UNL     1       5.564   5.716  14.741  0.00  0.00    +0.000 C 
BRANCH  29  30
ATOM     30  O   UNL     1       5.119   7.016  15.130  0.00  0.00    +0.000 OA
ATOM     31  H   UNL     1       5.312   7.147  16.075  0.00  0.00    +0.000 HD
ENDBRANCH  29  30
ENDBRANCH  26  29
ENDBRANCH  23  26
ENDBRANCH   6  23
TORSDOF 12
ENDMDL
