MODEL 1
REMARK VINA RESULT:      -8.6      0.000      0.000
REMARK  Name = 
REMARK  9 active torsions:
REMARK  status: ('A' for Active; 'I' for Inactive)
REMARK    1  A    between atoms: C_3  and  C_4
REMARK    2  A    between atoms: C_4  and  O_5
REMARK    3  A    between atoms: O_5  and  C_6
REMARK    4  A    between atoms: C_9  and  O_10
REMARK    5  A    between atoms: O_10  and  C_11
REMARK    6  A    between atoms: C_11  and  C_12
REMARK    7  A    between atoms: C_25  and  O_26
REMARK    8  A    between atoms: O_26  and  C_27
REMARK    9  A    between atoms: C_27  and  C_28
REMARK                            x       y       z     vdW  Elec       q    Type
REMARK                         _______ _______ _______ _____ _____    ______ ____
ROOT
ATOM      1  C   UNL     1       1.509   7.305  20.692  0.00  0.00    +0.000 A 
ATOM      2  C   UNL     1       0.679   7.999  21.581  0.00  0.00    +0.000 A 
ATOM      3  C   UNL     1       0.275   9.326  21.332  0.00  0.00    +0.000 A 
ATOM      4  C   UNL     1       0.707   9.996  20.197  0.00  0.00    +0.000 A 
ATOM      5  C   UNL     1       1.519   9.298  19.291  0.00  0.00    +0.000 A 
ATOM      6  C   UNL     1       1.926   7.963  19.538  0.00  0.00    +0.000 A 
ENDROOT
BRANCH   1   7
ATOM      7  O   UNL     1       1.903   6.063  21.119  0.00  0.00    +0.000 OA
BRANCH   7   8
ATOM      8  C   UNL     1       1.329   4.889  20.523  0.00  0.00    +0.000 C 
BRANCH   8  11
ATOM      9  C   UNL     1       2.550   3.067  17.357  0.00  0.00    +0.000 A 
ATOM     10  C   UNL     1       1.702   3.619  18.319  0.00  0.00    +0.000 A 
ATOM     11  C   UNL     1       2.220   4.298  19.431  0.00  0.00    +0.000 A 
ATOM     12  C   UNL     1       3.624   4.398  19.540  0.00  0.00    +0.000 A 
ATOM     13  C   UNL     1       4.483   3.826  18.587  0.00  0.00    +0.000 A 
ATOM     14  C   UNL     1       3.937   3.169  17.487  0.00  0.00    +0.000 A 
BRANCH  13  15
ATOM     15  O   UNL     1       5.823   4.010  18.814  0.00  0.00    +0.000 OA
BRANCH  15  16
ATOM     16  C   UNL     1       6.375   5.268  18.400  0.00  0.00    +0.000 C 
BRANCH  16  17
ATOM     17  C   UNL     1       6.675   5.273  16.942  0.00  0.00    +0.000 A 
ATOM     18  N   UNL     1       5.918   5.959  16.031  0.00  0.00    +0.000 NA
ATOM     19  N   UNL     1       6.481   5.754  14.849  0.00  0.00    +0.000 NA
ATOM     20  N   UNL     1       7.538   4.972  15.099  0.00  0.00    +0.000 N 
ATOM     21  N   UNL     1       7.734   4.650  16.388  0.00  0.00    +0.000 NA
ATOM     22  H   UNL     1       8.157   4.654  14.358  0.00  0.00    +0.000 HD
ENDBRANCH  16  17
ENDBRANCH  15  16
ENDBRANCH  13  15
ENDBRANCH   8  11
ENDBRANCH   7   8
ENDBRANCH   1   7
BRANCH   4  23
ATOM     23  O   UNL     1       0.373  11.298  19.860  0.00  0.00    +0.000 OA
BRANCH  23  24
ATOM     24  C   UNL     1      -0.126  11.533  18.518  0.00  0.00    +0.000 C 
BRANCH  24  25
ATOM     25  C   UNL     1      -1.641  11.355  18.347  0.00  0.00    +0.000 A 
ATOM     26  C   UNL     1      -2.155  10.316  17.584  0.00  0.00    +0.000 A 
ATOM     27  C   UNL     1      -3.538  10.151  17.503  0.00  0.00    +0.000 A 
ATOM     28  C   UNL     1      -4.388  10.948  18.271  0.00  0.00    +0.000 A 
ATOM     29  C   UNL     1      -5.777  10.703  18.291  0.00  0.00    +0.000 A 
ATOM     30  C   UNL     1      -6.600  11.397  19.173  0.00  0.00    +0.000 A 
ATOM     31  C   UNL     1      -6.049  12.375  19.992  0.00  0.00    +0.000 A 
ATOM     32  C   UNL     1      -4.672  12.667  19.912  0.00  0.00    +0.000 A 
ATOM     33  C   UNL     1      -3.808  11.952  19.075  0.00  0.00    +0.000 A 
ATOM     34  N   UNL     1      -2.463  12.174  19.078  0.00  0.00    +0.000 NA
ENDBRANCH  24  25
ENDBRANCH  23  24
ENDBRANCH   4  23
TORSDOF 9
ENDMDL
MODEL 2
REMARK VINA RESULT:      -8.4      5.028      9.801
REMARK  Name = 
REMARK  9 active torsions:
REMARK  status: ('A' for Active; 'I' for Inactive)
REMARK    1  A    between atoms: C_3  and  C_4
REMARK    2  A    between atoms: C_4  and  O_5
REMARK    3  A    between atoms: O_5  and  C_6
REMARK    4  A    between atoms: C_9  and  O_10
REMARK    5  A    between atoms: O_10  and  C_11
REMARK    6  A    between atoms: C_11  and  C_12
REMARK    7  A    between atoms: C_25  and  O_26
REMARK    8  A    between atoms: O_26  and  C_27
REMARK    9  A    between atoms: C_27  and  C_28
REMARK                            x       y       z     vdW  Elec       q    Type
REMARK                         _______ _______ _______ _____ _____    ______ ____
ROOT
ATOM      1  C   UNL     1       5.106   5.178  16.969  0.00  0.00    +0.000 A 
ATOM      2  C   UNL     1       6.399   4.711  17.233  0.00  0.00    +0.000 A 
ATOM      3  C   UNL     1       7.444   5.588  17.586  0.00  0.00    +0.000 A 
ATOM      4  C   UNL     1       7.225   6.955  17.667  0.00  0.00    +0.000 A 
ATOM      5  C   UNL     1       5.926   7.426  17.427  0.00  0.00    +0.000 A 
ATOM      6  C   UNL     1       4.872   6.547  17.072  0.00  0.00    +0.000 A 
ENDROOT
BRANCH   1   7
ATOM      7  O   UNL     1       4.223   4.223  16.534  0.00  0.00    +0.000 OA
BRANCH   7   8
ATOM      8  C   UNL     1       4.022   3.032  17.312  0.00  0.00    +0.000 C 
BRANCH   8  11
ATOM      9  C   UNL     1       0.898   2.378  19.467  0.00  0.00    +0.000 A 
ATOM     10  C   UNL     1       1.934   2.188  18.550  0.00  0.00    +0.000 A 
ATOM     11  C   UNL     1       2.891   3.187  18.328  0.00  0.00    +0.000 A 
ATOM     12  C   UNL     1       2.768   4.387  19.062  0.00  0.00    +0.000 A 
ATOM     13  C   UNL     1       1.716   4.594  19.970  0.00  0.00    +0.000 A 
ATOM     14  C   UNL     1       0.786   3.576  20.177  0.00  0.00    +0.000 A 
BRANCH  13  15
ATOM     15  O   UNL     1       1.725   5.801  20.620  0.00  0.00    +0.000 OA
BRANCH  15  16
ATOM     16  C   UNL     1       2.386   6.883  19.949  0.00  0.00    +0.000 C 
BRANCH  16  17
ATOM     17  C   UNL     1       1.611   8.148  20.070  0.00  0.00    +0.000 A 
ATOM     18  N   UNL     1       1.040   8.559  21.245  0.00  0.00    +0.000 NA
ATOM     19  N   UNL     1       0.454   9.719  20.988  0.00  0.00    +0.000 NA
ATOM     20  N   UNL     1       0.700   9.954  19.694  0.00  0.00    +0.000 N 
ATOM     21  N   UNL     1       1.437   9.026  19.062  0.00  0.00    +0.000 NA
ATOM     22  H   UNL     1       0.359  10.790  19.226  0.00  0.00    +0.000 HD
ENDBRANCH  16  17
ENDBRANCH  15  16
ENDBRANCH  13  15
ENDBRANCH   8  11
ENDBRANCH   7   8
ENDBRANCH   1   7
BRANCH   4  23
ATOM     23  O   UNL     1       8.180   7.902  18.001  0.00  0.00    +0.000 OA
BRANCH  23  24
ATOM     24  C   UNL     1       7.862   9.292  17.733  0.00  0.00    +0.000 C 
BRANCH  24  25
ATOM     25  C   UNL     1       8.810  10.312  18.379  0.00  0.00    +0.000 A 
ATOM     26  C   UNL     1       9.298  10.119  19.663  0.00  0.00    +0.000 A 
ATOM     27  C   UNL     1      10.206  11.037  20.191  0.00  0.00    +0.000 A 
ATOM     28  C   UNL     1      10.705  12.071  19.397  0.00  0.00    +0.000 A 
ATOM     29  C   UNL     1      11.717  12.924  19.883  0.00  0.00    +0.000 A 
ATOM     30  C   UNL     1      12.318  13.852  19.039  0.00  0.00    +0.000 A 
ATOM     31  C   UNL     1      11.872  13.970  17.728  0.00  0.00    +0.000 A 
ATOM     32  C   UNL     1      10.809  13.165  17.271  0.00  0.00    +0.000 A 
ATOM     33  C   UNL     1      10.218  12.186  18.078  0.00  0.00    +0.000 A 
ATOM     34  N   UNL     1       9.258  11.345  17.596  0.00  0.00    +0.000 NA
ENDBRANCH  24  25
ENDBRANCH  23  24
ENDBRANCH   4  23
TORSDOF 9
ENDMDL
MODEL 3
REMARK VINA RESULT:      -8.4      1.373      2.124
REMARK  Name = 
REMARK  9 active torsions:
REMARK  status: ('A' for Active; 'I' for Inactive)
REMARK    1  A    between atoms: C_3  and  C_4
REMARK    2  A    between atoms: C_4  and  O_5
REMARK    3  A    between atoms: O_5  and  C_6
REMARK    4  A    between atoms: C_9  and  O_10
REMARK    5  A    between atoms: O_10  and  C_11
REMARK    6  A    between atoms: C_11  and  C_12
REMARK    7  A    between atoms: C_25  and  O_26
REMARK    8  A    between atoms: O_26  and  C_27
REMARK    9  A    between atoms: C_27  and  C_28
REMARK                            x       y       z     vdW  Elec       q    Type
REMARK                         _______ _______ _______ _____ _____    ______ ____
ROOT
ATOM      1  C   UNL     1       1.570   8.546  19.625  0.00  0.00    +0.000 A 
ATOM      2  C   UNL     1       1.060   8.899  20.880  0.00  0.00    +0.000 A 
ATOM      3  C   UNL     1       0.530  10.182  21.128  0.00  0.00    +0.000 A 
ATOM      4  C   UNL     1       0.515  11.146  20.130  0.00  0.00    +0.000 A 
ATOM      5  C   UNL     1       1.003  10.789  18.865  0.00  0.00    +0.000 A 
ATOM      6  C   UNL     1       1.535   9.500  18.612  0.00  0.00    +0.000 A 
ENDROOT
BRANCH   1   7
ATOM      7  O   UNL     1       2.148   7.303  19.565  0.00  0.00    +0.000 OA
BRANCH   7   8
ATOM      8  C   UNL     1       1.849   6.328  20.577  0.00  0.00    +0.000 C 
BRANCH   8  11
ATOM      9  C   UNL     1       1.226   2.576  19.969  0.00  0.00    +0.000 A 
ATOM     10  C   UNL     1       1.076   3.881  20.447  0.00  0.00    +0.000 A 
ATOM     11  C   UNL     1       1.958   4.897  20.054  0.00  0.00    +0.000 A 
ATOM     12  C   UNL     1       2.997   4.552  19.163  0.00  0.00    +0.000 A 
ATOM     13  C   UNL     1       3.167   3.239  18.695  0.00  0.00    +0.000 A 
ATOM     14  C   UNL     1       2.266   2.253  19.095  0.00  0.00    +0.000 A 
BRANCH  13  15
ATOM     15  O   UNL     1       4.212   3.050  17.828  0.00  0.00    +0.000 OA
BRANCH  15  16
ATOM     16  C   UNL     1       4.303   3.968  16.728  0.00  0.00    +0.000 C 
BRANCH  16  17
ATOM     17  C   UNL     1       5.721   4.293  16.413  0.00  0.00    +0.000 A 
ATOM     18  N   UNL     1       6.713   4.280  17.357  0.00  0.00    +0.000 NA
ATOM     19  N   UNL     1       7.833   4.598  16.724  0.00  0.00    +0.000 NA
ATOM     20  N   UNL     1       7.472   4.778  15.448  0.00  0.00    +0.000 N 
ATOM     21  N   UNL     1       6.172   4.583  15.176  0.00  0.00    +0.000 NA
ATOM     22  H   UNL     1       8.145   5.036  14.731  0.00  0.00    +0.000 HD
ENDBRANCH  16  17
ENDBRANCH  15  16
ENDBRANCH  13  15
ENDBRANCH   8  11
ENDBRANCH   7   8
ENDBRANCH   1   7
BRANCH   4  23
ATOM     23  O   UNL     1       0.023  12.434  20.269  0.00  0.00    +0.000 OA
BRANCH  23  24
ATOM     24  C   UNL     1      -0.955  12.881  19.295  0.00  0.00    +0.000 C 
BRANCH  24  25
ATOM     25  C   UNL     1      -2.419  12.613  19.671  0.00  0.00    +0.000 A 
ATOM     26  C   UNL     1      -2.965  13.141  20.832  0.00  0.00    +0.000 A 
ATOM     27  C   UNL     1      -4.316  12.926  21.108  0.00  0.00    +0.000 A 
ATOM     28  C   UNL     1      -5.132  12.289  20.173  0.00  0.00    +0.000 A 
ATOM     29  C   UNL     1      -6.522  12.182  20.389  0.00  0.00    +0.000 A 
ATOM     30  C   UNL     1      -7.352  11.685  19.389  0.00  0.00    +0.000 A 
ATOM     31  C   UNL     1      -6.792  11.241  18.198  0.00  0.00    +0.000 A 
ATOM     32  C   UNL     1      -5.394  11.281  18.018  0.00  0.00    +0.000 A 
ATOM     33  C   UNL     1      -4.536  11.823  18.982  0.00  0.00    +0.000 A 
ATOM     34  N   UNL     1      -3.197  11.949  18.758  0.00  0.00    +0.000 NA
ENDBRANCH  24  25
ENDBRANCH  23  24
ENDBRANCH   4  23
TORSDOF 9
ENDMDL
MODEL 4
REMARK VINA RESULT:      -8.4      4.773      9.348
REMARK  Name = 
REMARK  9 active torsions:
REMARK  status: ('A' for Active; 'I' for Inactive)
REMARK    1  A    between atoms: C_3  and  C_4
REMARK    2  A    between atoms: C_4  and  O_5
REMARK    3  A    between atoms: O_5  and  C_6
REMARK    4  A    between atoms: C_9  and  O_10
REMARK    5  A    between atoms: O_10  and  C_11
REMARK    6  A    between atoms: C_11  and  C_12
REMARK    7  A    between atoms: C_25  and  O_26
REMARK    8  A    between atoms: O_26  and  C_27
REMARK    9  A    between atoms: C_27  and  C_28
REMARK                            x       y       z     vdW  Elec       q    Type
REMARK                         _______ _______ _______ _____ _____    ______ ____
ROOT
ATOM      1  C   UNL     1       5.374   4.412  17.017  0.00  0.00    +0.000 A 
ATOM      2  C   UNL     1       4.781   5.637  16.689  0.00  0.00    +0.000 A 
ATOM      3  C   UNL     1       5.520   6.836  16.672  0.00  0.00    +0.000 A 
ATOM      4  C   UNL     1       6.868   6.841  16.999  0.00  0.00    +0.000 A 
ATOM      5  C   UNL     1       7.474   5.614  17.305  0.00  0.00    +0.000 A 
ATOM      6  C   UNL     1       6.733   4.406  17.322  0.00  0.00    +0.000 A 
ENDROOT
BRANCH   1   7
ATOM      7  O   UNL     1       4.509   3.352  17.095  0.00  0.00    +0.000 OA
BRANCH   7   8
ATOM      8  C   UNL     1       3.091   3.585  17.068  0.00  0.00    +0.000 C 
BRANCH   8  11
ATOM      9  C   UNL     1       1.501   2.435  20.382  0.00  0.00    +0.000 A 
ATOM     10  C   UNL     1       2.087   2.399  19.115  0.00  0.00    +0.000 A 
ATOM     11  C   UNL     1       2.475   3.579  18.467  0.00  0.00    +0.000 A 
ATOM     12  C   UNL     1       2.250   4.799  19.140  0.00  0.00    +0.000 A 
ATOM     13  C   UNL     1       1.641   4.846  20.405  0.00  0.00    +0.000 A 
ATOM     14  C   UNL     1       1.278   3.653  21.029  0.00  0.00    +0.000 A 
BRANCH  13  15
ATOM     15  O   UNL     1       1.494   6.097  20.945  0.00  0.00    +0.000 OA
BRANCH  15  16
ATOM     16  C   UNL     1       1.988   7.193  20.161  0.00  0.00    +0.000 C 
BRANCH  16  17
ATOM     17  C   UNL     1       1.413   8.487  20.619  0.00  0.00    +0.000 A 
ATOM     18  N   UNL     1       0.979   9.455  19.753  0.00  0.00    +0.000 NA
ATOM     19  N   UNL     1       0.520  10.447  20.502  0.00  0.00    +0.000 NA
ATOM     20  N   UNL     1       0.688  10.035  21.765  0.00  0.00    +0.000 N 
ATOM     21  N   UNL     1       1.220   8.811  21.914  0.00  0.00    +0.000 NA
ATOM     22  H   UNL     1       0.418  10.612  22.557  0.00  0.00    +0.000 HD
ENDBRANCH  16  17
ENDBRANCH  15  16
ENDBRANCH  13  15
ENDBRANCH   8  11
ENDBRANCH   7   8
ENDBRANCH   1   7
BRANCH   4  23
ATOM     23  O   UNL     1       7.684   7.961  17.018  0.00  0.00    +0.000 OA
BRANCH  23  24
ATOM     24  C   UNL     1       8.289   8.324  18.285  0.00  0.00    +0.000 C 
BRANCH  24  25
ATOM     25  C   UNL     1       8.670   9.804  18.424  0.00  0.00    +0.000 A 
ATOM     26  C   UNL     1       8.227  10.745  17.506  0.00  0.00    +0.000 A 
ATOM     27  C   UNL     1       8.543  12.089  17.700  0.00  0.00    +0.000 A 
ATOM     28  C   UNL     1       9.197  12.497  18.864  0.00  0.00    +0.000 A 
ATOM     29  C   UNL     1       9.406  13.867  19.126  0.00  0.00    +0.000 A 
ATOM     30  C   UNL     1       9.918  14.276  20.354  0.00  0.00    +0.000 A 
ATOM     31  C   UNL     1      10.276  13.320  21.295  0.00  0.00    +0.000 A 
ATOM     32  C   UNL     1      10.134  11.949  20.996  0.00  0.00    +0.000 A 
ATOM     33  C   UNL     1       9.574  11.505  19.793  0.00  0.00    +0.000 A 
ATOM     34  N   UNL     1       9.349  10.182  19.554  0.00  0.00    +0.000 NA
ENDBRANCH  24  25
ENDBRANCH  23  24
ENDBRANCH   4  23
TORSDOF 9
ENDMDL
MODEL 5
REMARK VINA RESULT:      -8.4      3.849      5.040
REMARK  Name = 
REMARK  9 active torsions:
REMARK  status: ('A' for Active; 'I' for Inactive)
REMARK    1  A    between atoms: C_3  and  C_4
REMARK    2  A    between atoms: C_4  and  O_5
REMARK    3  A    between atoms: O_5  and  C_6
REMARK    4  A    between atoms: C_9  and  O_10
REMARK    5  A    between atoms: O_10  and  C_11
REMARK    6  A    between atoms: C_11  and  C_12
REMARK    7  A    between atoms: C_25  and  O_26
REMARK    8  A    between atoms: O_26  and  C_27
REMARK    9  A    between atoms: C_27  and  C_28
REMARK                            x       y       z     vdW  Elec       q    Type
REMARK                         _______ _______ _______ _____ _____    ______ ____
ROOT
ATOM      1  C   UNL     1       1.182   8.756  20.359  0.00  0.00    +0.000 A 
ATOM      2  C   UNL     1       0.666   9.639  19.404  0.00  0.00    +0.000 A 
ATOM      3  C   UNL     1      -0.215  10.680  19.758  0.00  0.00    +0.000 A 
ATOM      4  C   UNL     1      -0.615  10.850  21.075  0.00  0.00    +0.000 A 
ATOM      5  C   UNL     1      -0.083   9.984  22.041  0.00  0.00    +0.000 A 
ATOM      6  C   UNL     1       0.805   8.937  21.688  0.00  0.00    +0.000 A 
ENDROOT
BRANCH   1   7
ATOM      7  O   UNL     1       1.941   7.732  19.852  0.00  0.00    +0.000 OA
BRANCH   7   8
ATOM      8  C   UNL     1       2.591   7.889  18.580  0.00  0.00    +0.000 C 
BRANCH   8  11
ATOM      9  C   UNL     1       4.713   5.199  16.822  0.00  0.00    +0.000 A 
ATOM     10  C   UNL     1       4.312   6.426  17.355  0.00  0.00    +0.000 A 
ATOM     11  C   UNL     1       3.081   6.558  18.011  0.00  0.00    +0.000 A 
ATOM     12  C   UNL     1       2.266   5.410  18.111  0.00  0.00    +0.000 A 
ATOM     13  C   UNL     1       2.653   4.178  17.558  0.00  0.00    +0.000 A 
ATOM     14  C   UNL     1       3.889   4.076  16.922  0.00  0.00    +0.000 A 
BRANCH  13  15
ATOM     15  O   UNL     1       1.769   3.146  17.738  0.00  0.00    +0.000 OA
BRANCH  15  16
ATOM     16  C   UNL     1       2.227   2.043  18.534  0.00  0.00    +0.000 C 
BRANCH  16  17
ATOM     17  C   UNL     1       2.106   2.338  19.987  0.00  0.00    +0.000 A 
ATOM     18  N   UNL     1       3.190   2.426  20.819  0.00  0.00    +0.000 NA
ATOM     19  N   UNL     1       2.714   2.714  22.021  0.00  0.00    +0.000 NA
ATOM     20  N   UNL     1       1.388   2.793  21.860  0.00  0.00    +0.000 N 
ATOM     21  N   UNL     1       0.938   2.591  20.611  0.00  0.00    +0.000 NA
ATOM     22  H   UNL     1       0.765   3.004  22.636  0.00  0.00    +0.000 HD
ENDBRANCH  16  17
ENDBRANCH  15  16
ENDBRANCH  13  15
ENDBRANCH   8  11
ENDBRANCH   7   8
ENDBRANCH   1   7
BRANCH   4  23
ATOM     23  O   UNL     1      -1.478  11.835  21.529  0.00  0.00    +0.000 OA
BRANCH  23  24
ATOM     24  C   UNL     1      -1.947  11.730  22.898  0.00  0.00    +0.000 C 
BRANCH  24  25
ATOM     25  C   UNL     1      -3.052  12.723  23.285  0.00  0.00    +0.000 A 
ATOM     26  C   UNL     1      -2.799  14.086  23.343  0.00  0.00    +0.000 A 
ATOM     27  C   UNL     1      -3.844  14.961  23.639  0.00  0.00    +0.000 A 
ATOM     28  C   UNL     1      -5.150  14.482  23.759  0.00  0.00    +0.000 A 
ATOM     29  C   UNL     1      -6.227  15.376  23.930  0.00  0.00    +0.000 A 
ATOM     30  C   UNL     1      -7.538  14.910  23.896  0.00  0.00    +0.000 A 
ATOM     31  C   UNL     1      -7.773  13.549  23.749  0.00  0.00    +0.000 A 
ATOM     32  C   UNL     1      -6.688  12.653  23.654  0.00  0.00    +0.000 A 
ATOM     33  C   UNL     1      -5.359  13.094  23.632  0.00  0.00    +0.000 A 
ATOM     34  N   UNL     1      -4.322  12.230  23.440  0.00  0.00    +0.000 NA
ENDBRANCH  24  25
ENDBRANCH  23  24
ENDBRANCH   4  23
TORSDOF 9
ENDMDL
MODEL 6
REMARK VINA RESULT:      -8.3      5.181      9.904
REMARK  Name = 
REMARK  9 active torsions:
REMARK  status: ('A' for Active; 'I' for Inactive)
REMARK    1  A    between atoms: C_3  and  C_4
REMARK    2  A    between atoms: C_4  and  O_5
REMARK    3  A    between atoms: O_5  and  C_6
REMARK    4  A    between atoms: C_9  and  O_10
REMARK    5  A    between atoms: O_10  and  C_11
REMARK    6  A    between atoms: C_11  and  C_12
REMARK    7  A    between atoms: C_25  and  O_26
REMARK    8  A    between atoms: O_26  and  C_27
REMARK    9  A    between atoms: C_27  and  C_28
REMARK                            x       y       z     vdW  Elec       q    Type
REMARK                         _______ _______ _______ _____ _____    ______ ____
ROOT
ATOM      1  C   UNL     1       6.291   4.829  17.506  0.00  0.00    +0.000 A 
ATOM      2  C   UNL     1       6.366   5.949  16.670  0.00  0.00    +0.000 A 
ATOM      3  C   UNL     1       7.125   7.084  17.021  0.00  0.00    +0.000 A 
ATOM      4  C   UNL     1       7.812   7.131  18.225  0.00  0.00    +0.000 A 
ATOM      5  C   UNL     1       7.759   6.002  19.056  0.00  0.00    +0.000 A 
ATOM      6  C   UNL     1       6.999   4.859  18.705  0.00  0.00    +0.000 A 
ENDROOT
BRANCH   1   7
ATOM      7  O   UNL     1       5.431   3.848  17.082  0.00  0.00    +0.000 OA
BRANCH   7   8
ATOM      8  C   UNL     1       4.048   4.162  16.855  0.00  0.00    +0.000 C 
BRANCH   8  11
ATOM      9  C   UNL     1       2.251   4.179  20.261  0.00  0.00    +0.000 A 
ATOM     10  C   UNL     1       2.922   3.725  19.123  0.00  0.00    +0.000 A 
ATOM     11  C   UNL     1       3.340   4.620  18.129  0.00  0.00    +0.000 A 
ATOM     12  C   UNL     1       3.057   5.990  18.321  0.00  0.00    +0.000 A 
ATOM     13  C   UNL     1       2.364   6.451  19.452  0.00  0.00    +0.000 A 
ATOM     14  C   UNL     1       1.972   5.537  20.429  0.00  0.00    +0.000 A 
BRANCH  13  15
ATOM     15  O   UNL     1       2.167   7.806  19.513  0.00  0.00    +0.000 OA
BRANCH  15  16
ATOM     16  C   UNL     1       1.518   8.306  20.692  0.00  0.00    +0.000 C 
BRANCH  16  17
ATOM     17  C   UNL     1       0.710   9.519  20.391  0.00  0.00    +0.000 A 
ATOM     18  N   UNL     1      -0.469   9.801  21.027  0.00  0.00    +0.000 NA
ATOM     19  N   UNL     1      -0.896  10.951  20.526  0.00  0.00    +0.000 NA
ATOM     20  N   UNL     1       0.034  11.307  19.631  0.00  0.00    +0.000 N 
ATOM     21  N   UNL     1       1.078  10.471  19.510  0.00  0.00    +0.000 NA
ATOM     22  H   UNL     1      -0.043  12.163  19.088  0.00  0.00    +0.000 HD
ENDBRANCH  16  17
ENDBRANCH  15  16
ENDBRANCH  13  15
ENDBRANCH   8  11
ENDBRANCH   7   8
ENDBRANCH   1   7
BRANCH   4  23
ATOM     23  O   UNL     1       8.581   8.195  18.668  0.00  0.00    +0.000 OA
BRANCH  23  24
ATOM     24  C   UNL     1       8.419   9.464  17.985  0.00  0.00    +0.000 C 
BRANCH  24  25
ATOM     25  C   UNL     1       9.026  10.675  18.707  0.00  0.00    +0.000 A 
ATOM     26  C   UNL     1       9.698  10.524  19.911  0.00  0.00    +0.000 A 
ATOM     27  C   UNL     1      10.290  11.638  20.506  0.00  0.00    +0.000 A 
ATOM     28  C   UNL     1      10.304  12.866  19.841  0.00  0.00    +0.000 A 
ATOM     29  C   UNL     1      11.010  13.963  20.377  0.00  0.00    +0.000 A 
ATOM     30  C   UNL     1      11.151  15.135  19.641  0.00  0.00    +0.000 A 
ATOM     31  C   UNL     1      10.541  15.234  18.397  0.00  0.00    +0.000 A 
ATOM     32  C   UNL     1       9.774  14.160  17.900  0.00  0.00    +0.000 A 
ATOM     33  C   UNL     1       9.656  12.949  18.591  0.00  0.00    +0.000 A 
ATOM     34  N   UNL     1       8.996  11.883  18.058  0.00  0.00    +0.000 NA
ENDBRANCH  24  25
ENDBRANCH  23  24
ENDBRANCH   4  23
TORSDOF 9
ENDMDL
MODEL 7
REMARK VINA RESULT:      -8.3      1.119      1.573
REMARK  Name = 
REMARK  9 active torsions:
REMARK  status: ('A' for Active; 'I' for Inactive)
REMARK    1  A    between atoms: C_3  and  C_4
REMARK    2  A    between atoms: C_4  and  O_5
REMARK    3  A    between atoms: O_5  and  C_6
REMARK    4  A    between atoms: C_9  and  O_10
REMARK    5  A    between atoms: O_10  and  C_11
REMARK    6  A    between atoms: C_11  and  C_12
REMARK    7  A    between atoms: C_25  and  O_26
REMARK    8  A    between atoms: O_26  and  C_27
REMARK    9  A    between atoms: C_27  and  C_28
REMARK                            x       y       z     vdW  Elec       q    Type
REMARK                         _______ _______ _______ _____ _____    ______ ____
ROOT
ATOM      1  C   UNL     1       1.592   7.449  20.428  0.00  0.00    +0.000 A 
ATOM      2  C   UNL     1       0.811   8.218  21.299  0.00  0.00    +0.000 A 
ATOM      3  C   UNL     1       0.394   9.522  20.962  0.00  0.00    +0.000 A 
ATOM      4  C   UNL     1       0.764  10.093  19.753  0.00  0.00    +0.000 A 
ATOM      5  C   UNL     1       1.526   9.318  18.867  0.00  0.00    +0.000 A 
ATOM      6  C   UNL     1       1.946   8.007  19.202  0.00  0.00    +0.000 A 
ENDROOT
BRANCH   1   7
ATOM      7  O   UNL     1       2.009   6.246  20.935  0.00  0.00    +0.000 OA
BRANCH   7   8
ATOM      8  C   UNL     1       1.348   5.035  20.533  0.00  0.00    +0.000 C 
BRANCH   8  11
ATOM      9  C   UNL     1       2.416   2.568  17.775  0.00  0.00    +0.000 A 
ATOM     10  C   UNL     1       1.616   3.323  18.635  0.00  0.00    +0.000 A 
ATOM     11  C   UNL     1       2.186   4.215  19.553  0.00  0.00    +0.000 A 
ATOM     12  C   UNL     1       3.594   4.320  19.574  0.00  0.00    +0.000 A 
ATOM     13  C   UNL     1       4.407   3.549  18.727  0.00  0.00    +0.000 A 
ATOM     14  C   UNL     1       3.808   2.679  17.817  0.00  0.00    +0.000 A 
BRANCH  13  15
ATOM     15  O   UNL     1       5.756   3.761  18.848  0.00  0.00    +0.000 OA
BRANCH  15  16
ATOM     16  C   UNL     1       6.225   5.082  18.544  0.00  0.00    +0.000 C 
BRANCH  16  17
ATOM     17  C   UNL     1       6.499   5.238  17.090  0.00  0.00    +0.000 A 
ATOM     18  N   UNL     1       5.641   5.880  16.238  0.00  0.00    +0.000 NA
ATOM     19  N   UNL     1       6.208   5.844  15.041  0.00  0.00    +0.000 NA
ATOM     20  N   UNL     1       7.366   5.198  15.225  0.00  0.00    +0.000 N 
ATOM     21  N   UNL     1       7.625   4.810  16.484  0.00  0.00    +0.000 NA
ATOM     22  H   UNL     1       8.012   5.025  14.458  0.00  0.00    +0.000 HD
ENDBRANCH  16  17
ENDBRANCH  15  16
ENDBRANCH  13  15
ENDBRANCH   8  11
ENDBRANCH   7   8
ENDBRANCH   1   7
BRANCH   4  23
ATOM     23  O   UNL     1       0.413  11.364  19.327  0.00  0.00    +0.000 OA
BRANCH  23  24
ATOM     24  C   UNL     1      -0.729  11.477  18.439  0.00  0.00    +0.000 C 
BRANCH  24  25
ATOM     25  C   UNL     1      -2.035  11.923  19.110  0.00  0.00    +0.000 A 
ATOM     26  C   UNL     1      -3.259  11.736  18.485  0.00  0.00    +0.000 A 
ATOM     27  C   UNL     1      -4.428  12.098  19.154  0.00  0.00    +0.000 A 
ATOM     28  C   UNL     1      -4.374  12.534  20.479  0.00  0.00    +0.000 A 
ATOM     29  C   UNL     1      -5.561  12.779  21.201  0.00  0.00    +0.000 A 
ATOM     30  C   UNL     1      -5.508  13.064  22.562  0.00  0.00    +0.000 A 
ATOM     31  C   UNL     1      -4.272  13.162  23.190  0.00  0.00    +0.000 A 
ATOM     32  C   UNL     1      -3.088  12.990  22.444  0.00  0.00    +0.000 A 
ATOM     33  C   UNL     1      -3.107  12.650  21.086  0.00  0.00    +0.000 A 
ATOM     34  N   UNL     1      -1.960  12.388  20.398  0.00  0.00    +0.000 NA
ENDBRANCH  24  25
ENDBRANCH  23  24
ENDBRANCH   4  23
TORSDOF 9
ENDMDL
MODEL 8
REMARK VINA RESULT:      -8.3      6.331      9.490
REMARK  Name = 
REMARK  9 active torsions:
REMARK  status: ('A' for Active; 'I' for Inactive)
REMARK    1  A    between atoms: C_3  and  C_4
REMARK    2  A    between atoms: C_4  and  O_5
REMARK    3  A    between atoms: O_5  and  C_6
REMARK    4  A    between atoms: C_9  and  O_10
REMARK    5  A    between atoms: O_10  and  C_11
REMARK    6  A    between atoms: C_11  and  C_12
REMARK    7  A    between atoms: C_25  and  O_26
REMARK    8  A    between atoms: O_26  and  C_27
REMARK    9  A    between atoms: C_27  and  C_28
REMARK                            x       y       z     vdW  Elec       q    Type
REMARK                         _______ _______ _______ _____ _____    ______ ____
ROOT
ATOM      1  C   UNL     1       7.754   7.168  18.262  0.00  0.00    +0.000 A 
ATOM      2  C   UNL     1       6.868   7.423  17.209  0.00  0.00    +0.000 A 
ATOM      3  C   UNL     1       6.021   6.421  16.695  0.00  0.00    +0.000 A 
ATOM      4  C   UNL     1       6.053   5.134  17.212  0.00  0.00    +0.000 A 
ATOM      5  C   UNL     1       6.922   4.878  18.283  0.00  0.00    +0.000 A 
ATOM      6  C   UNL     1       7.775   5.884  18.802  0.00  0.00    +0.000 A 
ENDROOT
BRANCH   1   7
ATOM      7  O   UNL     1       8.588   8.208  18.582  0.00  0.00    +0.000 OA
BRANCH   7   8
ATOM      8  C   UNL     1       8.365   9.505  18.004  0.00  0.00    +0.000 C 
BRANCH   8  11
ATOM      9  C   UNL     1      10.298  11.572  20.616  0.00  0.00    +0.000 A 
ATOM     10  C   UNL     1       9.553  10.545  20.031  0.00  0.00    +0.000 A 
ATOM     11  C   UNL     1       9.205  10.591  18.674  0.00  0.00    +0.000 A 
ATOM     12  C   UNL     1       9.633  11.709  17.926  0.00  0.00    +0.000 A 
ATOM     13  C   UNL     1      10.364  12.756  18.512  0.00  0.00    +0.000 A 
ATOM     14  C   UNL     1      10.705  12.675  19.862  0.00  0.00    +0.000 A 
BRANCH  13  15
ATOM     15  O   UNL     1      10.722  13.773  17.666  0.00  0.00    +0.000 OA
BRANCH  15  16
ATOM     16  C   UNL     1      11.132  15.003  18.282  0.00  0.00    +0.000 C 
BRANCH  16  17
ATOM     17  C   UNL     1      10.050  16.022  18.226  0.00  0.00    +0.000 A 
ATOM     18  N   UNL     1       8.721  15.696  18.247  0.00  0.00    +0.000 NA
ATOM     19  N   UNL     1       8.055  16.840  18.202  0.00  0.00    +0.000 NA
ATOM     20  N   UNL     1       8.998  17.790  18.162  0.00  0.00    +0.000 N 
ATOM     21  N   UNL     1      10.268  17.353  18.198  0.00  0.00    +0.000 NA
ATOM     22  H   UNL     1       8.764  18.778  18.121  0.00  0.00    +0.000 HD
ENDBRANCH  16  17
ENDBRANCH  15  16
ENDBRANCH  13  15
ENDBRANCH   8  11
ENDBRANCH   7   8
ENDBRANCH   1   7
BRANCH   4  23
ATOM     23  O   UNL     1       5.269   4.077  16.780  0.00  0.00    +0.000 OA
BRANCH  23  24
ATOM     24  C   UNL     1       4.325   3.516  17.728  0.00  0.00    +0.000 C 
BRANCH  24  25
ATOM     25  C   UNL     1       3.486   4.545  18.498  0.00  0.00    +0.000 A 
ATOM     26  C   UNL     1       3.250   4.400  19.857  0.00  0.00    +0.000 A 
ATOM     27  C   UNL     1       2.535   5.388  20.535  0.00  0.00    +0.000 A 
ATOM     28  C   UNL     1       2.164   6.563  19.878  0.00  0.00    +0.000 A 
ATOM     29  C   UNL     1       1.555   7.618  20.587  0.00  0.00    +0.000 A 
ATOM     30  C   UNL     1       1.327   8.842  19.966  0.00  0.00    +0.000 A 
ATOM     31  C   UNL     1       1.651   8.995  18.624  0.00  0.00    +0.000 A 
ATOM     32  C   UNL     1       2.190   7.911  17.901  0.00  0.00    +0.000 A 
ATOM     33  C   UNL     1       2.481   6.684  18.509  0.00  0.00    +0.000 A 
ATOM     34  N   UNL     1       3.094   5.675  17.827  0.00  0.00    +0.000 NA
ENDBRANCH  24  25
ENDBRANCH  23  24
ENDBRANCH   4  23
TORSDOF 9
ENDMDL
MODEL 9
REMARK VINA RESULT:      -8.3      0.805      1.608
REMARK  Name = 
REMARK  9 active torsions:
REMARK  status: ('A' for Active; 'I' for Inactive)
REMARK    1  A    between atoms: C_3  and  C_4
REMARK    2  A    between atoms: C_4  and  O_5
REMARK    3  A    between atoms: O_5  and  C_6
REMARK    4  A    between atoms: C_9  and  O_10
REMARK    5  A    between atoms: O_10  and  C_11
REMARK    6  A    between atoms: C_11  and  C_12
REMARK    7  A    between atoms: C_25  and  O_26
REMARK    8  A    between atoms: O_26  and  C_27
REMARK    9  A    between atoms: C_27  and  C_28
REMARK                            x       y       z     vdW  Elec       q    Type
REMARK                         _______ _______ _______ _____ _____    ______ ____
ROOT
ATOM      1  C   UNL     1       1.545   7.539  20.648  0.00  0.00    +0.000 A 
ATOM      2  C   UNL     1       1.855   8.006  19.365  0.00  0.00    +0.000 A 
ATOM      3  C   UNL     1       1.474   9.293  18.935  0.00  0.00    +0.000 A 
ATOM      4  C   UNL     1       0.759  10.136  19.773  0.00  0.00    +0.000 A 
ATOM      5  C   UNL     1       0.466   9.682  21.067  0.00  0.00    +0.000 A 
ATOM      6  C   UNL     1       0.849   8.389  21.503  0.00  0.00    +0.000 A 
ENDROOT
BRANCH   1   7
ATOM      7  O   UNL     1       1.886   6.232  20.885  0.00  0.00    +0.000 OA
BRANCH   7   8
ATOM      8  C   UNL     1       1.230   5.180  20.157  0.00  0.00    +0.000 C 
BRANCH   8  11
ATOM      9  C   UNL     1       2.773   2.117  18.404  0.00  0.00    +0.000 A 
ATOM     10  C   UNL     1       1.831   2.988  18.958  0.00  0.00    +0.000 A 
ATOM     11  C   UNL     1       2.223   4.214  19.514  0.00  0.00    +0.000 A 
ATOM     12  C   UNL     1       3.599   4.531  19.494  0.00  0.00    +0.000 A 
ATOM     13  C   UNL     1       4.554   3.651  18.958  0.00  0.00    +0.000 A 
ATOM     14  C   UNL     1       4.130   2.445  18.402  0.00  0.00    +0.000 A 
BRANCH  13  15
ATOM     15  O   UNL     1       5.851   4.092  18.997  0.00  0.00    +0.000 OA
BRANCH  15  16
ATOM     16  C   UNL     1       6.098   5.400  18.460  0.00  0.00    +0.000 C 
BRANCH  16  17
ATOM     17  C   UNL     1       6.593   5.325  17.059  0.00  0.00    +0.000 A 
ATOM     18  N   UNL     1       5.969   5.956  16.017  0.00  0.00    +0.000 NA
ATOM     19  N   UNL     1       6.686   5.689  14.936  0.00  0.00    +0.000 NA
ATOM     20  N   UNL     1       7.698   4.927  15.370  0.00  0.00    +0.000 N 
ATOM     21  N   UNL     1       7.716   4.678  16.689  0.00  0.00    +0.000 NA
ATOM     22  H   UNL     1       8.412   4.572  14.739  0.00  0.00    +0.000 HD
ENDBRANCH  16  17
ENDBRANCH  15  16
ENDBRANCH  13  15
ENDBRANCH   8  11
ENDBRANCH   7   8
ENDBRANCH   1   7
BRANCH   4  23
ATOM     23  O   UNL     1       0.334  11.414  19.450  0.00  0.00    +0.000 OA
BRANCH  23  24
ATOM     24  C   UNL     1      -0.686  11.539  18.425  0.00  0.00    +0.000 C 
BRANCH  24  25
ATOM     25  C   UNL     1      -2.106  11.797  18.947  0.00  0.00    +0.000 A 
ATOM     26  C   UNL     1      -2.321  12.586  20.068  0.00  0.00    +0.000 A 
ATOM     27  C   UNL     1      -3.629  12.848  20.475  0.00  0.00    +0.000 A 
ATOM     28  C   UNL     1      -4.707  12.420  19.698  0.00  0.00    +0.000 A 
ATOM     29  C   UNL     1      -6.025  12.792  20.035  0.00  0.00    +0.000 A 
ATOM     30  C   UNL     1      -7.080  12.494  19.177  0.00  0.00    +0.000 A 
ATOM     31  C   UNL     1      -6.829  11.777  18.014  0.00  0.00    +0.000 A 
ATOM     32  C   UNL     1      -5.519  11.344  17.721  0.00  0.00    +0.000 A 
ATOM     33  C   UNL     1      -4.429  11.672  18.536  0.00  0.00    +0.000 A 
ATOM     34  N   UNL     1      -3.154  11.334  18.193  0.00  0.00    +0.000 NA
ENDBRANCH  24  25
ENDBRANCH  23  24
ENDBRANCH   4  23
TORSDOF 9
ENDMDL
