MODEL 1
REMARK VINA RESULT:      -6.0      0.000      0.000
REMARK  Name = 
REMARK  10 active torsions:
REMARK  status: ('A' for Active; 'I' for Inactive)
REMARK    1  A    between atoms: C_1  and  C_2
REMARK    2  A    between atoms: C_2  and  N_3
REMARK    3  A    between atoms: N_3  and  C_4
REMARK    4  A    between atoms: N_3  and  C_6
REMARK    5  A    between atoms: C_4  and  C_5
REMARK    6  A    between atoms: N_13  and  C_14
REMARK    7  A    between atoms: C_15  and  C_16
REMARK    8  A    between atoms: C_21  and  O_22
REMARK    9  A    between atoms: O_22  and  C_23
REMARK   10  A    between atoms: N_24  and  C_25
REMARK                            x       y       z     vdW  Elec       q    Type
REMARK                         _______ _______ _______ _____ _____    ______ ____
ROOT
ATOM      1  C   UNL     1      -5.563  13.367  22.733  0.00  0.00    +0.000 A 
ATOM      2  C   UNL     1      -5.353  12.991  24.095  0.00  0.00    +0.000 A 
ATOM      3  C   UNL     1      -4.156  12.428  24.544  0.00  0.00    +0.000 A 
ATOM      4  C   UNL     1      -3.107  12.218  23.662  0.00  0.00    +0.000 A 
ATOM      5  C   UNL     1      -3.291  12.567  22.333  0.00  0.00    +0.000 A 
ATOM      6  N   UNL     1      -2.394  12.373  21.365  0.00  0.00    +0.000 NA
ATOM      7  C   UNL     1      -3.023  12.779  20.242  0.00  0.00    +0.000 A 
ATOM      8  N   UNL     1      -2.406  12.659  18.959  0.00  0.00    +0.000 N 
ATOM      9  N   UNL     1      -4.291  13.231  20.473  0.00  0.00    +0.000 N 
ATOM     10  C   UNL     1      -5.242  13.588  19.412  0.00  0.00    +0.000 C 
ATOM     11  C   UNL     1      -4.462  13.117  21.834  0.00  0.00    +0.000 A 
ATOM     12  H   UNL     1      -2.611  13.375  18.252  0.00  0.00    +0.000 HD
ENDROOT
BRANCH   8  13
ATOM     13  C   UNL     1      -1.360  11.709  18.699  0.00  0.00    +0.000 A 
ATOM     14  C   UNL     1      -1.636  10.422  18.119  0.00  0.00    +0.000 A 
ATOM     15  C   UNL     1      -2.988   9.960  17.618  0.00  0.00    +0.000 C 
ATOM     16  C   UNL     1      -0.593   9.509  17.919  0.00  0.00    +0.000 A 
ATOM     17  C   UNL     1       0.715   9.838  18.245  0.00  0.00    +0.000 A 
ATOM     18 BR   UNL     1       2.114   8.571  17.944  0.00  0.00    +0.000 Br
ATOM     19  C   UNL     1       1.006  11.093  18.769  0.00  0.00    +0.000 A 
ATOM     20  C   UNL     1      -0.009  12.047  19.003  0.00  0.00    +0.000 A 
BRANCH  20  21
ATOM     21  O   UNL     1       0.286  13.272  19.530  0.00  0.00    +0.000 OA
ATOM     22  C   UNL     1       0.961  13.475  20.730  0.00  0.00    +0.000 C 
ENDBRANCH  20  21
ENDBRANCH   8  13
BRANCH   1  23
ATOM     23  N   UNL     1      -6.831  13.970  22.393  0.00  0.00    +0.000 N 
BRANCH  23  25
ATOM     24  C   UNL     1      -7.544  16.132  23.485  0.00  0.00    +0.000 C 
ATOM     25  C   UNL     1      -6.891  15.438  22.294  0.00  0.00    +0.000 C 
ENDBRANCH  23  25
BRANCH  23  26
ATOM     26  C   UNL     1      -7.915  13.137  21.874  0.00  0.00    +0.000 C 
ATOM     27  C   UNL     1      -7.634  11.634  21.930  0.00  0.00    +0.000 C 
ENDBRANCH  23  26
ENDBRANCH   1  23
TORSDOF 5
ENDMDL
MODEL 2
REMARK VINA RESULT:      -5.9      5.253      7.837
REMARK  Name = 
REMARK  10 active torsions:
REMARK  status: ('A' for Active; 'I' for Inactive)
REMARK    1  A    between atoms: C_1  and  C_2
REMARK    2  A    between atoms: C_2  and  N_3
REMARK    3  A    between atoms: N_3  and  C_4
REMARK    4  A    between atoms: N_3  and  C_6
REMARK    5  A    between atoms: C_4  and  C_5
REMARK    6  A    between atoms: N_13  and  C_14
REMARK    7  A    between atoms: C_15  and  C_16
REMARK    8  A    between atoms: C_21  and  O_22
REMARK    9  A    between atoms: O_22  and  C_23
REMARK   10  A    between atoms: N_24  and  C_25
REMARK                            x       y       z     vdW  Elec       q    Type
REMARK                         _______ _______ _______ _____ _____    ______ ____
ROOT
ATOM      1  C   UNL     1       0.154  10.311  20.179  0.00  0.00    +0.000 A 
ATOM      2  C   UNL     1      -0.546  10.213  21.421  0.00  0.00    +0.000 A 
ATOM      3  C   UNL     1      -0.356   9.152  22.309  0.00  0.00    +0.000 A 
ATOM      4  C   UNL     1       0.543   8.140  22.009  0.00  0.00    +0.000 A 
ATOM      5  C   UNL     1       1.227   8.209  20.805  0.00  0.00    +0.000 A 
ATOM      6  N   UNL     1       2.079   7.284  20.360  0.00  0.00    +0.000 NA
ATOM      7  C   UNL     1       2.433   7.720  19.133  0.00  0.00    +0.000 A 
ATOM      8  N   UNL     1       3.294   6.952  18.290  0.00  0.00    +0.000 N 
ATOM      9  N   UNL     1       1.834   8.899  18.791  0.00  0.00    +0.000 N 
ATOM     10  C   UNL     1       1.928   9.514  17.460  0.00  0.00    +0.000 C 
ATOM     11  C   UNL     1       1.067   9.234  19.884  0.00  0.00    +0.000 A 
ATOM     12  H   UNL     1       3.936   7.453  17.664  0.00  0.00    +0.000 HD
ENDROOT
BRANCH   8  13
ATOM     13  C   UNL     1       3.441   5.531  18.440  0.00  0.00    +0.000 A 
ATOM     14  C   UNL     1       2.406   4.617  18.039  0.00  0.00    +0.000 A 
ATOM     15  C   UNL     1       1.126   5.003  17.327  0.00  0.00    +0.000 C 
ATOM     16  C   UNL     1       2.573   3.241  18.239  0.00  0.00    +0.000 A 
ATOM     17  C   UNL     1       3.741   2.738  18.795  0.00  0.00    +0.000 A 
ATOM     18 BR   UNL     1       3.940   0.854  19.039  0.00  0.00    +0.000 Br
ATOM     19  C   UNL     1       4.770   3.604  19.151  0.00  0.00    +0.000 A 
ATOM     20  C   UNL     1       4.649   5.001  18.983  0.00  0.00    +0.000 A 
BRANCH  20  21
ATOM     21  O   UNL     1       5.660   5.844  19.348  0.00  0.00    +0.000 OA
ATOM     22  C   UNL     1       7.015   5.543  19.247  0.00  0.00    +0.000 C 
ENDBRANCH  20  21
ENDBRANCH   8  13
BRANCH   1  23
ATOM     23  N   UNL     1      -0.101  11.473  19.358  0.00  0.00    +0.000 N 
BRANCH  23  25
ATOM     24  C   UNL     1      -1.683  10.177  17.877  0.00  0.00    +0.000 C 
ATOM     25  C   UNL     1      -1.339  11.496  18.563  0.00  0.00    +0.000 C 
ENDBRANCH  23  25
BRANCH  23  26
ATOM     26  C   UNL     1       0.688  12.687  19.555  0.00  0.00    +0.000 C 
ATOM     27  C   UNL     1       1.678  12.984  18.427  0.00  0.00    +0.000 C 
ENDBRANCH  23  26
ENDBRANCH   1  23
TORSDOF 5
ENDMDL
MODEL 3
REMARK VINA RESULT:      -5.8      0.975      2.638
REMARK  Name = 
REMARK  10 active torsions:
REMARK  status: ('A' for Active; 'I' for Inactive)
REMARK    1  A    between atoms: C_1  and  C_2
REMARK    2  A    between atoms: C_2  and  N_3
REMARK    3  A    between atoms: N_3  and  C_4
REMARK    4  A    between atoms: N_3  and  C_6
REMARK    5  A    between atoms: C_4  and  C_5
REMARK    6  A    between atoms: N_13  and  C_14
REMARK    7  A    between atoms: C_15  and  C_16
REMARK    8  A    between atoms: C_21  and  O_22
REMARK    9  A    between atoms: O_22  and  C_23
REMARK   10  A    between atoms: N_24  and  C_25
REMARK                            x       y       z     vdW  Elec       q    Type
REMARK                         _______ _______ _______ _____ _____    ______ ____
ROOT
ATOM      1  C   UNL     1      -5.433  13.327  22.702  0.00  0.00    +0.000 A 
ATOM      2  C   UNL     1      -5.259  12.928  24.063  0.00  0.00    +0.000 A 
ATOM      3  C   UNL     1      -4.070  12.366  24.535  0.00  0.00    +0.000 A 
ATOM      4  C   UNL     1      -2.995  12.180  23.680  0.00  0.00    +0.000 A 
ATOM      5  C   UNL     1      -3.144  12.552  22.352  0.00  0.00    +0.000 A 
ATOM      6  N   UNL     1      -2.219  12.383  21.407  0.00  0.00    +0.000 NA
ATOM      7  C   UNL     1      -2.819  12.805  20.274  0.00  0.00    +0.000 A 
ATOM      8  N   UNL     1      -2.165  12.714  19.007  0.00  0.00    +0.000 N 
ATOM      9  N   UNL     1      -4.097  13.243  20.478  0.00  0.00    +0.000 N 
ATOM     10  C   UNL     1      -5.021  13.613  19.397  0.00  0.00    +0.000 C 
ATOM     11  C   UNL     1      -4.306  13.102  21.831  0.00  0.00    +0.000 A 
ATOM     12  H   UNL     1      -2.356  13.442  18.308  0.00  0.00    +0.000 HD
ENDROOT
BRANCH   8  13
ATOM     13  C   UNL     1      -1.104  11.777  18.760  0.00  0.00    +0.000 A 
ATOM     14  C   UNL     1       0.267  12.092  19.056  0.00  0.00    +0.000 A 
ATOM     15  C   UNL     1       0.746  13.351  19.746  0.00  0.00    +0.000 C 
ATOM     16  C   UNL     1       1.275  11.164  18.764  0.00  0.00    +0.000 A 
ATOM     17  C   UNL     1       0.968   9.926  18.216  0.00  0.00    +0.000 A 
ATOM     18 BR   UNL     1       2.368   8.681  17.844  0.00  0.00    +0.000 Br
ATOM     19  C   UNL     1      -0.358   9.589  17.960  0.00  0.00    +0.000 A 
ATOM     20  C   UNL     1      -1.412  10.491  18.225  0.00  0.00    +0.000 A 
BRANCH  20  21
ATOM     21  O   UNL     1      -2.708  10.155  17.959  0.00  0.00    +0.000 OA
ATOM     22  C   UNL     1      -3.167   9.687  16.731  0.00  0.00    +0.000 C 
ENDBRANCH  20  21
ENDBRANCH   8  13
BRANCH   1  23
ATOM     23  N   UNL     1      -6.696  13.927  22.338  0.00  0.00    +0.000 N 
BRANCH  23  25
ATOM     24  C   UNL     1      -7.902  11.792  21.739  0.00  0.00    +0.000 C 
ATOM     25  C   UNL     1      -7.915  13.117  22.495  0.00  0.00    +0.000 C 
ENDBRANCH  23  25
BRANCH  23  26
ATOM     26  C   UNL     1      -6.777  15.370  22.118  0.00  0.00    +0.000 C 
ATOM     27  C   UNL     1      -7.093  16.181  23.377  0.00  0.00    +0.000 C 
ENDBRANCH  23  26
ENDBRANCH   1  23
TORSDOF 5
ENDMDL
MODEL 4
REMARK VINA RESULT:      -5.8      2.988      4.974
REMARK  Name = 
REMARK  10 active torsions:
REMARK  status: ('A' for Active; 'I' for Inactive)
REMARK    1  A    between atoms: C_1  and  C_2
REMARK    2  A    between atoms: C_2  and  N_3
REMARK    3  A    between atoms: N_3  and  C_4
REMARK    4  A    between atoms: N_3  and  C_6
REMARK    5  A    between atoms: C_4  and  C_5
REMARK    6  A    between atoms: N_13  and  C_14
REMARK    7  A    between atoms: C_15  and  C_16
REMARK    8  A    between atoms: C_21  and  O_22
REMARK    9  A    between atoms: O_22  and  C_23
REMARK   10  A    between atoms: N_24  and  C_25
REMARK                            x       y       z     vdW  Elec       q    Type
REMARK                         _______ _______ _______ _____ _____    ______ ____
ROOT
ATOM      1  C   UNL     1      -4.868  11.325  17.715  0.00  0.00    +0.000 A 
ATOM      2  C   UNL     1      -4.675  10.800  16.400  0.00  0.00    +0.000 A 
ATOM      3  C   UNL     1      -3.408  10.642  15.832  0.00  0.00    +0.000 A 
ATOM      4  C   UNL     1      -2.273  10.992  16.547  0.00  0.00    +0.000 A 
ATOM      5  C   UNL     1      -2.436  11.511  17.821  0.00  0.00    +0.000 A 
ATOM      6  N   UNL     1      -1.442  11.939  18.601  0.00  0.00    +0.000 NA
ATOM      7  C   UNL     1      -2.063  12.429  19.694  0.00  0.00    +0.000 A 
ATOM      8  N   UNL     1      -1.331  13.056  20.749  0.00  0.00    +0.000 N 
ATOM      9  N   UNL     1      -3.423  12.317  19.631  0.00  0.00    +0.000 N 
ATOM     10  C   UNL     1      -4.343  12.903  20.615  0.00  0.00    +0.000 C 
ATOM     11  C   UNL     1      -3.670  11.700  18.426  0.00  0.00    +0.000 A 
ATOM     12  H   UNL     1      -1.676  12.950  21.711  0.00  0.00    +0.000 HD
ENDROOT
BRANCH   8  13
ATOM     13  C   UNL     1      -0.034  13.638  20.538  0.00  0.00    +0.000 A 
ATOM     14  C   UNL     1       0.121  14.956  19.985  0.00  0.00    +0.000 A 
ATOM     15  C   UNL     1      -1.009  15.913  19.673  0.00  0.00    +0.000 C 
ATOM     16  C   UNL     1       1.404  15.471  19.758  0.00  0.00    +0.000 A 
ATOM     17  C   UNL     1       2.535  14.737  20.088  0.00  0.00    +0.000 A 
ATOM     18 BR   UNL     1       4.269  15.478  19.778  0.00  0.00    +0.000 Br
ATOM     19  C   UNL     1       2.403  13.476  20.662  0.00  0.00    +0.000 A 
ATOM     20  C   UNL     1       1.134  12.904  20.900  0.00  0.00    +0.000 A 
BRANCH  20  21
ATOM     21  O   UNL     1       1.016  11.661  21.452  0.00  0.00    +0.000 OA
ATOM     22  C   UNL     1       1.041  10.471  20.731  0.00  0.00    +0.000 C 
ENDBRANCH  20  21
ENDBRANCH   8  13
BRANCH   1  23
ATOM     23  N   UNL     1      -6.224  11.411  18.208  0.00  0.00    +0.000 N 
BRANCH  23  25
ATOM     24  C   UNL     1      -6.485  13.812  17.471  0.00  0.00    +0.000 C 
ATOM     25  C   UNL     1      -7.109  12.427  17.616  0.00  0.00    +0.000 C 
ENDBRANCH  23  25
BRANCH  23  26
ATOM     26  C   UNL     1      -6.765  10.333  19.035  0.00  0.00    +0.000 C 
ATOM     27  C   UNL     1      -7.452  10.808  20.316  0.00  0.00    +0.000 C 
ENDBRANCH  23  26
ENDBRANCH   1  23
TORSDOF 5
ENDMDL
MODEL 5
REMARK VINA RESULT:      -5.7      5.735     10.295
REMARK  Name = 
REMARK  10 active torsions:
REMARK  status: ('A' for Active; 'I' for Inactive)
REMARK    1  A    between atoms: C_1  and  C_2
REMARK    2  A    between atoms: C_2  and  N_3
REMARK    3  A    between atoms: N_3  and  C_4
REMARK    4  A    between atoms: N_3  and  C_6
REMARK    5  A    between atoms: C_4  and  C_5
REMARK    6  A    between atoms: N_13  and  C_14
REMARK    7  A    between atoms: C_15  and  C_16
REMARK    8  A    between atoms: C_21  and  O_22
REMARK    9  A    between atoms: O_22  and  C_23
REMARK   10  A    between atoms: N_24  and  C_25
REMARK                            x       y       z     vdW  Elec       q    Type
REMARK                         _______ _______ _______ _____ _____    ______ ____
ROOT
ATOM      1  C   UNL     1       3.638   4.333  18.065  0.00  0.00    +0.000 A 
ATOM      2  C   UNL     1       4.534   4.476  16.962  0.00  0.00    +0.000 A 
ATOM      3  C   UNL     1       4.942   5.723  16.482  0.00  0.00    +0.000 A 
ATOM      4  C   UNL     1       4.485   6.887  17.081  0.00  0.00    +0.000 A 
ATOM      5  C   UNL     1       3.608   6.773  18.148  0.00  0.00    +0.000 A 
ATOM      6  N   UNL     1       3.047   7.802  18.784  0.00  0.00    +0.000 NA
ATOM      7  C   UNL     1       2.218   7.227  19.681  0.00  0.00    +0.000 A 
ATOM      8  N   UNL     1       1.368   8.013  20.519  0.00  0.00    +0.000 N 
ATOM      9  N   UNL     1       2.243   5.862  19.633  0.00  0.00    +0.000 N 
ATOM     10  C   UNL     1       1.331   4.996  20.392  0.00  0.00    +0.000 C 
ATOM     11  C   UNL     1       3.163   5.561  18.655  0.00  0.00    +0.000 A 
ATOM     12  H   UNL     1       1.165   7.668  21.465  0.00  0.00    +0.000 HD
ENDROOT
BRANCH   8  13
ATOM     13  C   UNL     1       0.969   9.347  20.167  0.00  0.00    +0.000 A 
ATOM     14  C   UNL     1       0.690   9.718  18.806  0.00  0.00    +0.000 A 
ATOM     15  C   UNL     1       0.664   8.768  17.628  0.00  0.00    +0.000 C 
ATOM     16  C   UNL     1       0.342  11.040  18.500  0.00  0.00    +0.000 A 
ATOM     17  C   UNL     1       0.233  11.998  19.499  0.00  0.00    +0.000 A 
ATOM     18 BR   UNL     1      -0.258  13.788  19.045  0.00  0.00    +0.000 Br
ATOM     19  C   UNL     1       0.461  11.648  20.826  0.00  0.00    +0.000 A 
ATOM     20  C   UNL     1       0.826  10.332  21.189  0.00  0.00    +0.000 A 
BRANCH  20  21
ATOM     21  O   UNL     1       1.059  10.002  22.492  0.00  0.00    +0.000 OA
ATOM     22  C   UNL     1       0.081   9.581  23.389  0.00  0.00    +0.000 C 
ENDBRANCH  20  21
ENDBRANCH   8  13
BRANCH   1  23
ATOM     23  N   UNL     1       3.313   2.991  18.493  0.00  0.00    +0.000 N 
BRANCH  23  25
ATOM     24  C   UNL     1       0.906   2.237  18.588  0.00  0.00    +0.000 C 
ATOM     25  C   UNL     1       2.214   2.296  17.805  0.00  0.00    +0.000 C 
ENDBRANCH  23  25
BRANCH  23  26
ATOM     26  C   UNL     1       4.240   2.261  19.357  0.00  0.00    +0.000 C 
ATOM     27  C   UNL     1       3.922   2.364  20.850  0.00  0.00    +0.000 C 
ENDBRANCH  23  26
ENDBRANCH   1  23
TORSDOF 5
ENDMDL
MODEL 6
REMARK VINA RESULT:      -5.7      5.248      7.748
REMARK  Name = 
REMARK  10 active torsions:
REMARK  status: ('A' for Active; 'I' for Inactive)
REMARK    1  A    between atoms: C_1  and  C_2
REMARK    2  A    between atoms: C_2  and  N_3
REMARK    3  A    between atoms: N_3  and  C_4
REMARK    4  A    between atoms: N_3  and  C_6
REMARK    5  A    between atoms: C_4  and  C_5
REMARK    6  A    between atoms: N_13  and  C_14
REMARK    7  A    between atoms: C_15  and  C_16
REMARK    8  A    between atoms: C_21  and  O_22
REMARK    9  A    between atoms: O_22  and  C_23
REMARK   10  A    between atoms: N_24  and  C_25
REMARK                            x       y       z     vdW  Elec       q    Type
REMARK                         _______ _______ _______ _____ _____    ______ ____
ROOT
ATOM      1  C   UNL     1       0.167  10.263  20.187  0.00  0.00    +0.000 A 
ATOM      2  C   UNL     1      -0.491  10.181  21.452  0.00  0.00    +0.000 A 
ATOM      3  C   UNL     1      -0.264   9.137  22.352  0.00  0.00    +0.000 A 
ATOM      4  C   UNL     1       0.634   8.128  22.040  0.00  0.00    +0.000 A 
ATOM      5  C   UNL     1       1.278   8.181  20.814  0.00  0.00    +0.000 A 
ATOM      6  N   UNL     1       2.123   7.255  20.358  0.00  0.00    +0.000 NA
ATOM      7  C   UNL     1       2.434   7.672  19.113  0.00  0.00    +0.000 A 
ATOM      8  N   UNL     1       3.273   6.896  18.255  0.00  0.00    +0.000 N 
ATOM      9  N   UNL     1       1.813   8.840  18.770  0.00  0.00    +0.000 N 
ATOM     10  C   UNL     1       1.859   9.431  17.425  0.00  0.00    +0.000 C 
ATOM     11  C   UNL     1       1.079   9.187  19.881  0.00  0.00    +0.000 A 
ATOM     12  H   UNL     1       3.890   7.391  17.600  0.00  0.00    +0.000 HD
ENDROOT
BRANCH   8  13
ATOM     13  C   UNL     1       3.438   5.479  18.426  0.00  0.00    +0.000 A 
ATOM     14  C   UNL     1       2.411   4.548  18.044  0.00  0.00    +0.000 A 
ATOM     15  C   UNL     1       1.123   4.908  17.334  0.00  0.00    +0.000 C 
ATOM     16  C   UNL     1       2.595   3.177  18.263  0.00  0.00    +0.000 A 
ATOM     17  C   UNL     1       3.772   2.696  18.820  0.00  0.00    +0.000 A 
ATOM     18 BR   UNL     1       3.994   0.817  19.090  0.00  0.00    +0.000 Br
ATOM     19  C   UNL     1       4.793   3.579  19.158  0.00  0.00    +0.000 A 
ATOM     20  C   UNL     1       4.655   4.972  18.970  0.00  0.00    +0.000 A 
BRANCH  20  21
ATOM     21  O   UNL     1       5.657   5.831  19.317  0.00  0.00    +0.000 OA
ATOM     22  C   UNL     1       6.841   5.994  18.603  0.00  0.00    +0.000 C 
ENDBRANCH  20  21
ENDBRANCH   8  13
BRANCH   1  23
ATOM     23  N   UNL     1      -0.125  11.407  19.353  0.00  0.00    +0.000 N 
BRANCH  23  25
ATOM     24  C   UNL     1       1.736  12.872  20.229  0.00  0.00    +0.000 C 
ATOM     25  C   UNL     1       0.983  12.318  19.023  0.00  0.00    +0.000 C 
ENDBRANCH  23  25
BRANCH  23  26
ATOM     26  C   UNL     1      -1.393  11.472  18.629  0.00  0.00    +0.000 C 
ATOM     27  C   UNL     1      -1.656  10.276  17.712  0.00  0.00    +0.000 C 
ENDBRANCH  23  26
ENDBRANCH   1  23
TORSDOF 5
ENDMDL
MODEL 7
REMARK VINA RESULT:      -5.5      2.983      5.054
REMARK  Name = 
REMARK  10 active torsions:
REMARK  status: ('A' for Active; 'I' for Inactive)
REMARK    1  A    between atoms: C_1  and  C_2
REMARK    2  A    between atoms: C_2  and  N_3
REMARK    3  A    between atoms: N_3  and  C_4
REMARK    4  A    between atoms: N_3  and  C_6
REMARK    5  A    between atoms: C_4  and  C_5
REMARK    6  A    between atoms: N_13  and  C_14
REMARK    7  A    between atoms: C_15  and  C_16
REMARK    8  A    between atoms: C_21  and  O_22
REMARK    9  A    between atoms: O_22  and  C_23
REMARK   10  A    between atoms: N_24  and  C_25
REMARK                            x       y       z     vdW  Elec       q    Type
REMARK                         _______ _______ _______ _____ _____    ______ ____
ROOT
ATOM      1  C   UNL     1      -4.881  11.313  17.685  0.00  0.00    +0.000 A 
ATOM      2  C   UNL     1      -4.674  10.823  16.359  0.00  0.00    +0.000 A 
ATOM      3  C   UNL     1      -3.402  10.699  15.794  0.00  0.00    +0.000 A 
ATOM      4  C   UNL     1      -2.275  11.050  16.522  0.00  0.00    +0.000 A 
ATOM      5  C   UNL     1      -2.453  11.536  17.808  0.00  0.00    +0.000 A 
ATOM      6  N   UNL     1      -1.470  11.962  18.602  0.00  0.00    +0.000 NA
ATOM      7  C   UNL     1      -2.104  12.415  19.704  0.00  0.00    +0.000 A 
ATOM      8  N   UNL     1      -1.386  13.028  20.776  0.00  0.00    +0.000 N 
ATOM      9  N   UNL     1      -3.462  12.282  19.631  0.00  0.00    +0.000 N 
ATOM     10  C   UNL     1      -4.395  12.830  20.624  0.00  0.00    +0.000 C 
ATOM     11  C   UNL     1      -3.692  11.690  18.410  0.00  0.00    +0.000 A 
ATOM     12  H   UNL     1      -1.734  12.894  21.734  0.00  0.00    +0.000 HD
ENDROOT
BRANCH   8  13
ATOM     13  C   UNL     1      -0.099  13.636  20.586  0.00  0.00    +0.000 A 
ATOM     14  C   UNL     1       0.038  14.971  20.069  0.00  0.00    +0.000 A 
ATOM     15  C   UNL     1      -1.107  15.919  19.781  0.00  0.00    +0.000 C 
ATOM     16  C   UNL     1       1.313  15.512  19.861  0.00  0.00    +0.000 A 
ATOM     17  C   UNL     1       2.455  14.787  20.174  0.00  0.00    +0.000 A 
ATOM     18 BR   UNL     1       4.177  15.564  19.891  0.00  0.00    +0.000 Br
ATOM     19  C   UNL     1       2.341  13.509  20.713  0.00  0.00    +0.000 A 
ATOM     20  C   UNL     1       1.080  12.911  20.932  0.00  0.00    +0.000 A 
BRANCH  20  21
ATOM     21  O   UNL     1       0.980  11.652  21.448  0.00  0.00    +0.000 OA
ATOM     22  C   UNL     1       1.011  10.483  20.693  0.00  0.00    +0.000 C 
ENDBRANCH  20  21
ENDBRANCH   8  13
BRANCH   1  23
ATOM     23  N   UNL     1      -6.240  11.366  18.173  0.00  0.00    +0.000 N 
BRANCH  23  25
ATOM     24  C   UNL     1      -7.599  11.109  20.285  0.00  0.00    +0.000 C 
ATOM     25  C   UNL     1      -6.599  10.500  19.308  0.00  0.00    +0.000 C 
ENDBRANCH  23  25
BRANCH  23  26
ATOM     26  C   UNL     1      -7.120  12.455  17.752  0.00  0.00    +0.000 C 
ATOM     27  C   UNL     1      -6.460  13.835  17.759  0.00  0.00    +0.000 C 
ENDBRANCH  23  26
ENDBRANCH   1  23
TORSDOF 5
ENDMDL
MODEL 8
REMARK VINA RESULT:      -5.4      5.765     10.311
REMARK  Name = 
REMARK  10 active torsions:
REMARK  status: ('A' for Active; 'I' for Inactive)
REMARK    1  A    between atoms: C_1  and  C_2
REMARK    2  A    between atoms: C_2  and  N_3
REMARK    3  A    between atoms: N_3  and  C_4
REMARK    4  A    between atoms: N_3  and  C_6
REMARK    5  A    between atoms: C_4  and  C_5
REMARK    6  A    between atoms: N_13  and  C_14
REMARK    7  A    between atoms: C_15  and  C_16
REMARK    8  A    between atoms: C_21  and  O_22
REMARK    9  A    between atoms: O_22  and  C_23
REMARK   10  A    between atoms: N_24  and  C_25
REMARK                            x       y       z     vdW  Elec       q    Type
REMARK                         _______ _______ _______ _____ _____    ______ ____
ROOT
ATOM      1  C   UNL     1       3.631   4.328  18.197  0.00  0.00    +0.000 A 
ATOM      2  C   UNL     1       4.507   4.442  17.075  0.00  0.00    +0.000 A 
ATOM      3  C   UNL     1       4.899   5.676  16.549  0.00  0.00    +0.000 A 
ATOM      4  C   UNL     1       4.445   6.855  17.119  0.00  0.00    +0.000 A 
ATOM      5  C   UNL     1       3.586   6.769  18.204  0.00  0.00    +0.000 A 
ATOM      6  N   UNL     1       3.028   7.814  18.817  0.00  0.00    +0.000 NA
ATOM      7  C   UNL     1       2.218   7.263  19.744  0.00  0.00    +0.000 A 
ATOM      8  N   UNL     1       1.376   8.069  20.571  0.00  0.00    +0.000 N 
ATOM      9  N   UNL     1       2.251   5.897  19.739  0.00  0.00    +0.000 N 
ATOM     10  C   UNL     1       1.357   5.050  20.540  0.00  0.00    +0.000 C 
ATOM     11  C   UNL     1       3.157   5.571  18.755  0.00  0.00    +0.000 A 
ATOM     12  H   UNL     1       1.191   7.753  21.531  0.00  0.00    +0.000 HD
ENDROOT
BRANCH   8  13
ATOM     13  C   UNL     1       0.963   9.389  20.184  0.00  0.00    +0.000 A 
ATOM     14  C   UNL     1       0.714   9.730  18.810  0.00  0.00    +0.000 A 
ATOM     15  C   UNL     1       0.738   8.759  17.649  0.00  0.00    +0.000 C 
ATOM     16  C   UNL     1       0.350  11.040  18.471  0.00  0.00    +0.000 A 
ATOM     17  C   UNL     1       0.197  12.013  19.448  0.00  0.00    +0.000 A 
ATOM     18 BR   UNL     1      -0.315  13.785  18.949  0.00  0.00    +0.000 Br
ATOM     19  C   UNL     1       0.394  11.691  20.787  0.00  0.00    +0.000 A 
ATOM     20  C   UNL     1       0.773  10.389  21.184  0.00  0.00    +0.000 A 
BRANCH  20  21
ATOM     21  O   UNL     1       0.977  10.086  22.499  0.00  0.00    +0.000 OA
ATOM     22  C   UNL     1      -0.019   9.667  23.377  0.00  0.00    +0.000 C 
ENDBRANCH  20  21
ENDBRANCH   8  13
BRANCH   1  23
ATOM     23  N   UNL     1       3.322   2.999  18.672  0.00  0.00    +0.000 N 
BRANCH  23  25
ATOM     24  C   UNL     1       4.806   1.426  19.976  0.00  0.00    +0.000 C 
ATOM     25  C   UNL     1       3.835   2.603  19.994  0.00  0.00    +0.000 C 
ENDBRANCH  23  25
BRANCH  23  26
ATOM     26  C   UNL     1       2.292   2.209  17.999  0.00  0.00    +0.000 C 
ATOM     27  C   UNL     1       0.920   2.260  18.673  0.00  0.00    +0.000 C 
ENDBRANCH  23  26
ENDBRANCH   1  23
TORSDOF 5
ENDMDL
MODEL 9
REMARK VINA RESULT:      -5.4      4.058      7.217
REMARK  Name = 
REMARK  10 active torsions:
REMARK  status: ('A' for Active; 'I' for Inactive)
REMARK    1  A    between atoms: C_1  and  C_2
REMARK    2  A    between atoms: C_2  and  N_3
REMARK    3  A    between atoms: N_3  and  C_4
REMARK    4  A    between atoms: N_3  and  C_6
REMARK    5  A    between atoms: C_4  and  C_5
REMARK    6  A    between atoms: N_13  and  C_14
REMARK    7  A    between atoms: C_15  and  C_16
REMARK    8  A    between atoms: C_21  and  O_22
REMARK    9  A    between atoms: O_22  and  C_23
REMARK   10  A    between atoms: N_24  and  C_25
REMARK                            x       y       z     vdW  Elec       q    Type
REMARK                         _______ _______ _______ _____ _____    ______ ____
ROOT
ATOM      1  C   UNL     1      -0.490  10.186  20.438  0.00  0.00    +0.000 A 
ATOM      2  C   UNL     1      -0.081   9.038  21.182  0.00  0.00    +0.000 A 
ATOM      3  C   UNL     1      -0.049   9.019  22.579  0.00  0.00    +0.000 A 
ATOM      4  C   UNL     1      -0.429  10.139  23.303  0.00  0.00    +0.000 A 
ATOM      5  C   UNL     1      -0.821  11.269  22.601  0.00  0.00    +0.000 A 
ATOM      6  N   UNL     1      -1.159  12.431  23.161  0.00  0.00    +0.000 NA
ATOM      7  C   UNL     1      -1.383  13.252  22.113  0.00  0.00    +0.000 A 
ATOM      8  N   UNL     1      -1.702  14.632  22.303  0.00  0.00    +0.000 N 
ATOM      9  N   UNL     1      -1.201  12.639  20.906  0.00  0.00    +0.000 N 
ATOM     10  C   UNL     1      -1.233  13.340  19.615  0.00  0.00    +0.000 C 
ATOM     11  C   UNL     1      -0.859  11.343  21.217  0.00  0.00    +0.000 A 
ATOM     12  H   UNL     1      -2.337  15.081  21.632  0.00  0.00    +0.000 HD
ENDROOT
BRANCH   8  13
ATOM     13  C   UNL     1      -1.345  15.341  23.500  0.00  0.00    +0.000 A 
ATOM     14  C   UNL     1      -2.151  15.271  24.689  0.00  0.00    +0.000 A 
ATOM     15  C   UNL     1      -3.367  14.388  24.871  0.00  0.00    +0.000 C 
ATOM     16  C   UNL     1      -1.788  16.009  25.823  0.00  0.00    +0.000 A 
ATOM     17  C   UNL     1      -0.640  16.790  25.828  0.00  0.00    +0.000 A 
ATOM     18 BR   UNL     1      -0.169  17.772  27.398  0.00  0.00    +0.000 Br
ATOM     19  C   UNL     1       0.174  16.838  24.700  0.00  0.00    +0.000 A 
ATOM     20  C   UNL     1      -0.152  16.123  23.526  0.00  0.00    +0.000 A 
BRANCH  20  21
ATOM     21  O   UNL     1       0.646  16.186  22.421  0.00  0.00    +0.000 OA
ATOM     22  C   UNL     1       1.784  15.410  22.221  0.00  0.00    +0.000 C 
ENDBRANCH  20  21
ENDBRANCH   8  13
BRANCH   1  23
ATOM     23  N   UNL     1      -0.514  10.076  18.997  0.00  0.00    +0.000 N 
BRANCH  23  25
ATOM     24  C   UNL     1      -1.942  10.742  17.026  0.00  0.00    +0.000 C 
ATOM     25  C   UNL     1      -1.824   9.970  18.336  0.00  0.00    +0.000 C 
ENDBRANCH  23  25
BRANCH  23  26
ATOM     26  C   UNL     1       0.695  10.368  18.228  0.00  0.00    +0.000 C 
ATOM     27  C   UNL     1       1.545   9.138  17.901  0.00  0.00    +0.000 C 
ENDBRANCH  23  26
ENDBRANCH   1  23
TORSDOF 5
ENDMDL
