MODEL 1
REMARK VINA RESULT:      -9.4      0.000      0.000
REMARK  Name = 
REMARK  7 active torsions:
REMARK  status: ('A' for Active; 'I' for Inactive)
REMARK    1  A    between atoms: C_1  and  C_2
REMARK    2  A    between atoms: C_6  and  C_7
REMARK    3  A    between atoms: C_7  and  N_8
REMARK    4  A    between atoms: N_8  and  C_9
REMARK    5  A    between atoms: C_12  and  C_13
REMARK    6  A    between atoms: C_18  and  C_19
REMARK    7  A    between atoms: C_19  and  O_20
REMARK                            x       y       z     vdW  Elec       q    Type
REMARK                         _______ _______ _______ _____ _____    ______ ____
ROOT
ATOM      1  C   UNL     1       7.743   7.218  18.319  0.00  0.00    +0.000 A 
ATOM      2  C   UNL     1       6.830   7.468  17.287  0.00  0.00    +0.000 A 
ATOM      3  C   UNL     1       5.868   6.514  16.933  0.00  0.00    +0.000 A 
ATOM      4  C   UNL     1       5.854   5.272  17.571  0.00  0.00    +0.000 A 
ATOM      5  C   UNL     1       6.888   4.954  18.456  0.00  0.00    +0.000 A 
ATOM      6  C   UNL     1       7.796   5.930  18.857  0.00  0.00    +0.000 A 
ENDROOT
BRANCH   4   7
ATOM      7  C   UNL     1       4.760   4.304  17.279  0.00  0.00    +0.000 C 
ATOM      8  O   UNL     1       4.712   3.842  16.140  0.00  0.00    +0.000 OA
ATOM      9  N   UNL     1       3.827   3.973  18.275  0.00  0.00    +0.000 N 
ATOM     10  C   UNL     1       2.934   2.837  18.035  0.00  0.00    +0.000 C 
ATOM     11  C   UNL     1       1.493   3.156  18.426  0.00  0.00    +0.000 C 
ATOM     12  C   UNL     1       1.375   3.702  19.859  0.00  0.00    +0.000 C 
ATOM     13  C   UNL     1       2.314   4.896  20.022  0.00  0.00    +0.000 C 
ATOM     14  C   UNL     1       3.744   4.573  19.610  0.00  0.00    +0.000 C 
BRANCH  12  15
ATOM     15  C   UNL     1       1.641   2.633  20.929  0.00  0.00    +0.000 C 
BRANCH  15  16
ATOM     16  O   UNL     1       2.003   3.245  22.158  0.00  0.00    +0.000 OA
ATOM     17  H   UNL     1       1.253   3.793  22.446  0.00  0.00    +0.000 HD
ENDBRANCH  15  16
ENDBRANCH  12  15
ENDBRANCH   4   7
BRANCH   1  18
ATOM     18  N   UNL     1       8.632   8.234  18.687  0.00  0.00    +0.000 N 
ATOM     19  H   UNL     1       8.695   8.291  19.702  0.00  0.00    +0.000 HD
BRANCH  18  20
ATOM     20  C   UNL     1       8.382   9.556  18.111  0.00  0.00    +0.000 C 
BRANCH  20  26
ATOM     21  C   UNL     1      12.054  12.955  17.494  0.00  0.00    +0.000 C 
ATOM     22  C   UNL     1      11.137  12.187  18.396  0.00  0.00    +0.000 A 
ATOM     23  C   UNL     1      11.216  12.332  19.790  0.00  0.00    +0.000 A 
ATOM     24  C   UNL     1      10.374  11.604  20.628  0.00  0.00    +0.000 A 
ATOM     25  C   UNL     1       9.445  10.719  20.082  0.00  0.00    +0.000 A 
ATOM     26  C   UNL     1       9.350  10.558  18.690  0.00  0.00    +0.000 A 
ATOM     27  C   UNL     1      10.204  11.294  17.858  0.00  0.00    +0.000 A 
ENDBRANCH  20  26
ENDBRANCH  18  20
ENDBRANCH   1  18
TORSDOF 6
ENDMDL
MODEL 2
REMARK VINA RESULT:      -8.9      0.519      1.452
REMARK  Name = 
REMARK  7 active torsions:
REMARK  status: ('A' for Active; 'I' for Inactive)
REMARK    1  A    between atoms: C_1  and  C_2
REMARK    2  A    between atoms: C_6  and  C_7
REMARK    3  A    between atoms: C_7  and  N_8
REMARK    4  A    between atoms: N_8  and  C_9
REMARK    5  A    between atoms: C_12  and  C_13
REMARK    6  A    between atoms: C_18  and  C_19
REMARK    7  A    between atoms: C_19  and  O_20
REMARK                            x       y       z     vdW  Elec       q    Type
REMARK                         _______ _______ _______ _____ _____    ______ ____
ROOT
ATOM      1  C   UNL     1       7.808   7.237  18.366  0.00  0.00    +0.000 A 
ATOM      2  C   UNL     1       6.880   7.569  17.370  0.00  0.00    +0.000 A 
ATOM      3  C   UNL     1       5.883   6.664  16.988  0.00  0.00    +0.000 A 
ATOM      4  C   UNL     1       5.845   5.391  17.559  0.00  0.00    +0.000 A 
ATOM      5  C   UNL     1       6.887   4.995  18.402  0.00  0.00    +0.000 A 
ATOM      6  C   UNL     1       7.833   5.922  18.834  0.00  0.00    +0.000 A 
ENDROOT
BRANCH   4   7
ATOM      7  C   UNL     1       4.716   4.472  17.242  0.00  0.00    +0.000 C 
ATOM      8  O   UNL     1       4.633   4.069  16.082  0.00  0.00    +0.000 OA
ATOM      9  N   UNL     1       3.791   4.120  18.238  0.00  0.00    +0.000 N 
ATOM     10  C   UNL     1       2.859   3.025  17.960  0.00  0.00    +0.000 C 
ATOM     11  C   UNL     1       1.436   3.368  18.395  0.00  0.00    +0.000 C 
ATOM     12  C   UNL     1       1.361   3.844  19.855  0.00  0.00    +0.000 C 
ATOM     13  C   UNL     1       2.340   5.000  20.059  0.00  0.00    +0.000 C 
ATOM     14  C   UNL     1       3.751   4.654  19.603  0.00  0.00    +0.000 C 
BRANCH  12  15
ATOM     15  C   UNL     1       1.613   2.715  20.866  0.00  0.00    +0.000 C 
BRANCH  15  16
ATOM     16  O   UNL     1       1.982   3.255  22.126  0.00  0.00    +0.000 OA
ATOM     17  H   UNL     1       2.801   2.811  22.408  0.00  0.00    +0.000 HD
ENDBRANCH  15  16
ENDBRANCH  12  15
ENDBRANCH   4   7
BRANCH   1  18
ATOM     18  N   UNL     1       8.735   8.206  18.767  0.00  0.00    +0.000 N 
ATOM     19  H   UNL     1       8.802   8.224  19.784  0.00  0.00    +0.000 HD
BRANCH  18  20
ATOM     20  C   UNL     1       8.533   9.555  18.239  0.00  0.00    +0.000 C 
BRANCH  20  26
ATOM     21  C   UNL     1       9.446  12.546  22.195  0.00  0.00    +0.000 C 
ATOM     22  C   UNL     1       9.863  11.988  20.868  0.00  0.00    +0.000 A 
ATOM     23  C   UNL     1      11.049  12.416  20.252  0.00  0.00    +0.000 A 
ATOM     24  C   UNL     1      11.426  11.909  19.009  0.00  0.00    +0.000 A 
ATOM     25  C   UNL     1      10.620  10.970  18.367  0.00  0.00    +0.000 A 
ATOM     26  C   UNL     1       9.428  10.528  18.967  0.00  0.00    +0.000 A 
ATOM     27  C   UNL     1       9.059  11.048  20.215  0.00  0.00    +0.000 A 
ENDBRANCH  20  26
ENDBRANCH  18  20
ENDBRANCH   1  18
TORSDOF 6
ENDMDL
MODEL 3
REMARK VINA RESULT:      -8.4      1.023      1.690
REMARK  Name = 
REMARK  7 active torsions:
REMARK  status: ('A' for Active; 'I' for Inactive)
REMARK    1  A    between atoms: C_1  and  C_2
REMARK    2  A    between atoms: C_6  and  C_7
REMARK    3  A    between atoms: C_7  and  N_8
REMARK    4  A    between atoms: N_8  and  C_9
REMARK    5  A    between atoms: C_12  and  C_13
REMARK    6  A    between atoms: C_18  and  C_19
REMARK    7  A    between atoms: C_19  and  O_20
REMARK                            x       y       z     vdW  Elec       q    Type
REMARK                         _______ _______ _______ _____ _____    ______ ____
ROOT
ATOM      1  C   UNL     1       6.955   7.279  17.437  0.00  0.00    +0.000 A 
ATOM      2  C   UNL     1       7.280   6.042  18.010  0.00  0.00    +0.000 A 
ATOM      3  C   UNL     1       6.347   4.999  18.045  0.00  0.00    +0.000 A 
ATOM      4  C   UNL     1       5.055   5.207  17.559  0.00  0.00    +0.000 A 
ATOM      5  C   UNL     1       4.676   6.496  17.173  0.00  0.00    +0.000 A 
ATOM      6  C   UNL     1       5.627   7.508  17.073  0.00  0.00    +0.000 A 
ENDROOT
BRANCH   4   7
ATOM      7  C   UNL     1       4.101   4.065  17.486  0.00  0.00    +0.000 C 
ATOM      8  O   UNL     1       4.053   3.445  16.424  0.00  0.00    +0.000 OA
ATOM      9  N   UNL     1       3.289   3.752  18.588  0.00  0.00    +0.000 N 
ATOM     10  C   UNL     1       2.561   2.481  18.571  0.00  0.00    +0.000 C 
ATOM     11  C   UNL     1       1.116   2.650  19.032  0.00  0.00    +0.000 C 
ATOM     12  C   UNL     1       1.005   3.371  20.385  0.00  0.00    +0.000 C 
ATOM     13  C   UNL     1       1.765   4.695  20.315  0.00  0.00    +0.000 C 
ATOM     14  C   UNL     1       3.200   4.517  19.835  0.00  0.00    +0.000 C 
BRANCH  12  15
ATOM     15  C   UNL     1       1.491   2.511  21.562  0.00  0.00    +0.000 C 
BRANCH  15  16
ATOM     16  O   UNL     1       2.289   3.287  22.443  0.00  0.00    +0.000 OA
ATOM     17  H   UNL     1       1.762   4.057  22.715  0.00  0.00    +0.000 HD
ENDBRANCH  15  16
ENDBRANCH  12  15
ENDBRANCH   4   7
BRANCH   1  18
ATOM     18  N   UNL     1       7.948   8.261  17.357  0.00  0.00    +0.000 N 
ATOM     19  H   UNL     1       8.675   7.969  16.706  0.00  0.00    +0.000 HD
BRANCH  18  20
ATOM     20  C   UNL     1       8.535   8.697  18.624  0.00  0.00    +0.000 C 
BRANCH  20  26
ATOM     21  C   UNL     1      11.563  12.469  20.045  0.00  0.00    +0.000 C 
ATOM     22  C   UNL     1      10.420  11.966  19.217  0.00  0.00    +0.000 A 
ATOM     23  C   UNL     1       9.696  12.839  18.390  0.00  0.00    +0.000 A 
ATOM     24  C   UNL     1       8.623  12.372  17.632  0.00  0.00    +0.000 A 
ATOM     25  C   UNL     1       8.259  11.028  17.696  0.00  0.00    +0.000 A 
ATOM     26  C   UNL     1       8.971  10.138  18.517  0.00  0.00    +0.000 A 
ATOM     27  C   UNL     1      10.046  10.619  19.276  0.00  0.00    +0.000 A 
ENDBRANCH  20  26
ENDBRANCH  18  20
ENDBRANCH   1  18
TORSDOF 6
ENDMDL
MODEL 4
REMARK VINA RESULT:      -8.4      0.859      1.309
REMARK  Name = 
REMARK  7 active torsions:
REMARK  status: ('A' for Active; 'I' for Inactive)
REMARK    1  A    between atoms: C_1  and  C_2
REMARK    2  A    between atoms: C_6  and  C_7
REMARK    3  A    between atoms: C_7  and  N_8
REMARK    4  A    between atoms: N_8  and  C_9
REMARK    5  A    between atoms: C_12  and  C_13
REMARK    6  A    between atoms: C_18  and  C_19
REMARK    7  A    between atoms: C_19  and  O_20
REMARK                            x       y       z     vdW  Elec       q    Type
REMARK                         _______ _______ _______ _____ _____    ______ ____
ROOT
ATOM      1  C   UNL     1       7.432   7.930  17.713  0.00  0.00    +0.000 A 
ATOM      2  C   UNL     1       7.823   6.771  18.396  0.00  0.00    +0.000 A 
ATOM      3  C   UNL     1       7.124   5.570  18.231  0.00  0.00    +0.000 A 
ATOM      4  C   UNL     1       5.986   5.534  17.423  0.00  0.00    +0.000 A 
ATOM      5  C   UNL     1       5.486   6.732  16.905  0.00  0.00    +0.000 A 
ATOM      6  C   UNL     1       6.224   7.908  17.013  0.00  0.00    +0.000 A 
ENDROOT
BRANCH   4   7
ATOM      7  C   UNL     1       5.313   4.233  17.152  0.00  0.00    +0.000 C 
ATOM      8  O   UNL     1       5.744   3.568  16.210  0.00  0.00    +0.000 OA
ATOM      9  N   UNL     1       4.224   3.824  17.938  0.00  0.00    +0.000 N 
ATOM     10  C   UNL     1       3.760   2.441  17.811  0.00  0.00    +0.000 C 
ATOM     11  C   UNL     1       2.238   2.359  17.730  0.00  0.00    +0.000 C 
ATOM     12  C   UNL     1       1.543   3.105  18.881  0.00  0.00    +0.000 C 
ATOM     13  C   UNL     1       2.059   4.543  18.932  0.00  0.00    +0.000 C 
ATOM     14  C   UNL     1       3.579   4.614  18.991  0.00  0.00    +0.000 C 
BRANCH  12  15
ATOM     15  C   UNL     1       1.710   2.404  20.236  0.00  0.00    +0.000 C 
BRANCH  15  16
ATOM     16  O   UNL     1       0.809   2.950  21.188  0.00  0.00    +0.000 OA
ATOM     17  H   UNL     1       1.319   3.537  21.773  0.00  0.00    +0.000 HD
ENDBRANCH  15  16
ENDBRANCH  12  15
ENDBRANCH   4   7
BRANCH   1  18
ATOM     18  N   UNL     1       8.211   9.084  17.852  0.00  0.00    +0.000 N 
ATOM     19  H   UNL     1       8.834   9.183  17.051  0.00  0.00    +0.000 HD
BRANCH  18  20
ATOM     20  C   UNL     1       8.957   9.218  19.104  0.00  0.00    +0.000 C 
BRANCH  20  26
ATOM     21  C   UNL     1      11.144  13.165  16.856  0.00  0.00    +0.000 C 
ATOM     22  C   UNL     1      10.657  12.489  18.101  0.00  0.00    +0.000 A 
ATOM     23  C   UNL     1      10.842  13.083  19.358  0.00  0.00    +0.000 A 
ATOM     24  C   UNL     1      10.403  12.444  20.517  0.00  0.00    +0.000 A 
ATOM     25  C   UNL     1       9.777  11.201  20.431  0.00  0.00    +0.000 A 
ATOM     26  C   UNL     1       9.583  10.589  19.182  0.00  0.00    +0.000 A 
ATOM     27  C   UNL     1      10.031  11.240  18.025  0.00  0.00    +0.000 A 
ENDBRANCH  20  26
ENDBRANCH  18  20
ENDBRANCH   1  18
TORSDOF 6
ENDMDL
MODEL 5
REMARK VINA RESULT:      -8.3      0.574      1.726
REMARK  Name = 
REMARK  7 active torsions:
REMARK  status: ('A' for Active; 'I' for Inactive)
REMARK    1  A    between atoms: C_1  and  C_2
REMARK    2  A    between atoms: C_6  and  C_7
REMARK    3  A    between atoms: C_7  and  N_8
REMARK    4  A    between atoms: N_8  and  C_9
REMARK    5  A    between atoms: C_12  and  C_13
REMARK    6  A    between atoms: C_18  and  C_19
REMARK    7  A    between atoms: C_19  and  O_20
REMARK                            x       y       z     vdW  Elec       q    Type
REMARK                         _______ _______ _______ _____ _____    ______ ____
ROOT
ATOM      1  C   UNL     1       7.609   7.364  17.936  0.00  0.00    +0.000 A 
ATOM      2  C   UNL     1       7.715   6.177  18.673  0.00  0.00    +0.000 A 
ATOM      3  C   UNL     1       6.767   5.157  18.530  0.00  0.00    +0.000 A 
ATOM      4  C   UNL     1       5.668   5.343  17.690  0.00  0.00    +0.000 A 
ATOM      5  C   UNL     1       5.461   6.599  17.114  0.00  0.00    +0.000 A 
ATOM      6  C   UNL     1       6.442   7.583  17.201  0.00  0.00    +0.000 A 
ENDROOT
BRANCH   4   7
ATOM      7  C   UNL     1       4.725   4.215  17.446  0.00  0.00    +0.000 C 
ATOM      8  O   UNL     1       4.821   3.632  16.366  0.00  0.00    +0.000 OA
ATOM      9  N   UNL     1       3.767   3.873  18.414  0.00  0.00    +0.000 N 
ATOM     10  C   UNL     1       3.041   2.612  18.253  0.00  0.00    +0.000 C 
ATOM     11  C   UNL     1       1.547   2.782  18.515  0.00  0.00    +0.000 C 
ATOM     12  C   UNL     1       1.255   3.456  19.866  0.00  0.00    +0.000 C 
ATOM     13  C   UNL     1       2.026   4.773  19.948  0.00  0.00    +0.000 C 
ATOM     14  C   UNL     1       3.512   4.596  19.663  0.00  0.00    +0.000 C 
BRANCH  12  15
ATOM     15  C   UNL     1       1.568   2.551  21.066  0.00  0.00    +0.000 C 
BRANCH  15  16
ATOM     16  O   UNL     1       2.057   3.324  22.152  0.00  0.00    +0.000 OA
ATOM     17  H   UNL     1       2.944   3.643  21.910  0.00  0.00    +0.000 HD
ENDBRANCH  15  16
ENDBRANCH  12  15
ENDBRANCH   4   7
BRANCH   1  18
ATOM     18  N   UNL     1       8.625   8.319  18.057  0.00  0.00    +0.000 N 
ATOM     19  H   UNL     1       9.234   8.083  18.839  0.00  0.00    +0.000 HD
BRANCH  18  20
ATOM     20  C   UNL     1       8.197   9.715  18.141  0.00  0.00    +0.000 C 
BRANCH  20  26
ATOM     21  C   UNL     1       9.625  12.524  22.076  0.00  0.00    +0.000 C 
ATOM     22  C   UNL     1       9.932  11.903  20.748  0.00  0.00    +0.000 A 
ATOM     23  C   UNL     1      11.166  12.130  20.119  0.00  0.00    +0.000 A 
ATOM     24  C   UNL     1      11.443  11.564  18.875  0.00  0.00    +0.000 A 
ATOM     25  C   UNL     1      10.488  10.769  18.245  0.00  0.00    +0.000 A 
ATOM     26  C   UNL     1       9.246  10.530  18.857  0.00  0.00    +0.000 A 
ATOM     27  C   UNL     1       8.979  11.106  20.106  0.00  0.00    +0.000 A 
ENDBRANCH  20  26
ENDBRANCH  18  20
ENDBRANCH   1  18
TORSDOF 6
ENDMDL
MODEL 6
REMARK VINA RESULT:      -8.1      5.116      8.044
REMARK  Name = 
REMARK  7 active torsions:
REMARK  status: ('A' for Active; 'I' for Inactive)
REMARK    1  A    between atoms: C_1  and  C_2
REMARK    2  A    between atoms: C_6  and  C_7
REMARK    3  A    between atoms: C_7  and  N_8
REMARK    4  A    between atoms: N_8  and  C_9
REMARK    5  A    between atoms: C_12  and  C_13
REMARK    6  A    between atoms: C_18  and  C_19
REMARK    7  A    between atoms: C_19  and  O_20
REMARK                            x       y       z     vdW  Elec       q    Type
REMARK                         _______ _______ _______ _____ _____    ______ ____
ROOT
ATOM      1  C   UNL     1       2.323   5.427  18.695  0.00  0.00    +0.000 A 
ATOM      2  C   UNL     1       1.918   5.312  20.031  0.00  0.00    +0.000 A 
ATOM      3  C   UNL     1       1.597   6.447  20.785  0.00  0.00    +0.000 A 
ATOM      4  C   UNL     1       1.738   7.716  20.222  0.00  0.00    +0.000 A 
ATOM      5  C   UNL     1       2.330   7.837  18.962  0.00  0.00    +0.000 A 
ATOM      6  C   UNL     1       2.579   6.704  18.190  0.00  0.00    +0.000 A 
ENDROOT
BRANCH   4   7
ATOM      7  C   UNL     1       1.284   8.915  20.980  0.00  0.00    +0.000 C 
ATOM      8  O   UNL     1       1.552   8.951  22.181  0.00  0.00    +0.000 OA
ATOM      9  N   UNL     1       0.564   9.931  20.330  0.00  0.00    +0.000 N 
ATOM     10  C   UNL     1       0.363  11.197  21.038  0.00  0.00    +0.000 C 
ATOM     11  C   UNL     1      -1.072  11.698  20.906  0.00  0.00    +0.000 C 
ATOM     12  C   UNL     1      -1.546  11.763  19.445  0.00  0.00    +0.000 C 
ATOM     13  C   UNL     1      -1.328  10.402  18.785  0.00  0.00    +0.000 C 
ATOM     14  C   UNL     1       0.102   9.902  18.940  0.00  0.00    +0.000 C 
BRANCH  12  15
ATOM     15  C   UNL     1      -0.868  12.885  18.646  0.00  0.00    +0.000 C 
BRANCH  15  16
ATOM     16  O   UNL     1      -1.142  12.739  17.260  0.00  0.00    +0.000 OA
ATOM     17  H   UNL     1      -1.407  11.815  17.109  0.00  0.00    +0.000 HD
ENDBRANCH  15  16
ENDBRANCH  12  15
ENDBRANCH   4   7
BRANCH   1  18
ATOM     18  N   UNL     1       2.556   4.257  17.963  0.00  0.00    +0.000 N 
ATOM     19  H   UNL     1       1.719   3.677  17.958  0.00  0.00    +0.000 HD
BRANCH  18  20
ATOM     20  C   UNL     1       3.727   3.471  18.351  0.00  0.00    +0.000 C 
BRANCH  20  26
ATOM     21  C   UNL     1       6.295   4.013  14.046  0.00  0.00    +0.000 C 
ATOM     22  C   UNL     1       6.194   4.206  15.529  0.00  0.00    +0.000 A 
ATOM     23  C   UNL     1       7.255   4.775  16.250  0.00  0.00    +0.000 A 
ATOM     24  C   UNL     1       7.166   4.939  17.632  0.00  0.00    +0.000 A 
ATOM     25  C   UNL     1       6.016   4.532  18.308  0.00  0.00    +0.000 A 
ATOM     26  C   UNL     1       4.943   3.960  17.604  0.00  0.00    +0.000 A 
ATOM     27  C   UNL     1       5.046   3.799  16.216  0.00  0.00    +0.000 A 
ENDBRANCH  20  26
ENDBRANCH  18  20
ENDBRANCH   1  18
TORSDOF 6
ENDMDL
MODEL 7
REMARK VINA RESULT:      -8.1      5.683      8.678
REMARK  Name = 
REMARK  7 active torsions:
REMARK  status: ('A' for Active; 'I' for Inactive)
REMARK    1  A    between atoms: C_1  and  C_2
REMARK    2  A    between atoms: C_6  and  C_7
REMARK    3  A    between atoms: C_7  and  N_8
REMARK    4  A    between atoms: N_8  and  C_9
REMARK    5  A    between atoms: C_12  and  C_13
REMARK    6  A    between atoms: C_18  and  C_19
REMARK    7  A    between atoms: C_19  and  O_20
REMARK                            x       y       z     vdW  Elec       q    Type
REMARK                         _______ _______ _______ _____ _____    ______ ____
ROOT
ATOM      1  C   UNL     1       0.902   9.796  18.922  0.00  0.00    +0.000 A 
ATOM      2  C   UNL     1       1.687   9.546  17.789  0.00  0.00    +0.000 A 
ATOM      3  C   UNL     1       2.485   8.399  17.707  0.00  0.00    +0.000 A 
ATOM      4  C   UNL     1       2.550   7.520  18.790  0.00  0.00    +0.000 A 
ATOM      5  C   UNL     1       1.924   7.874  19.988  0.00  0.00    +0.000 A 
ATOM      6  C   UNL     1       1.075   8.977  20.039  0.00  0.00    +0.000 A 
ENDROOT
BRANCH   4   7
ATOM      7  C   UNL     1       3.302   6.240  18.659  0.00  0.00    +0.000 C 
ATOM      8  O   UNL     1       4.251   6.228  17.875  0.00  0.00    +0.000 OA
ATOM      9  N   UNL     1       2.907   5.111  19.394  0.00  0.00    +0.000 N 
ATOM     10  C   UNL     1       3.814   3.962  19.437  0.00  0.00    +0.000 C 
ATOM     11  C   UNL     1       3.071   2.645  19.228  0.00  0.00    +0.000 C 
ATOM     12  C   UNL     1       1.875   2.482  20.180  0.00  0.00    +0.000 C 
ATOM     13  C   UNL     1       0.965   3.704  20.058  0.00  0.00    +0.000 C 
ATOM     14  C   UNL     1       1.720   5.013  20.248  0.00  0.00    +0.000 C 
BRANCH  12  15
ATOM     15  C   UNL     1       2.297   2.244  21.636  0.00  0.00    +0.000 C 
BRANCH  15  16
ATOM     16  O   UNL     1       1.181   2.383  22.503  0.00  0.00    +0.000 OA
ATOM     17  H   UNL     1       0.426   1.936  22.083  0.00  0.00    +0.000 HD
ENDBRANCH  15  16
ENDBRANCH  12  15
ENDBRANCH   4   7
BRANCH   1  18
ATOM     18  N   UNL     1       0.062  10.916  18.920  0.00  0.00    +0.000 N 
ATOM     19  H   UNL     1       0.482  11.666  19.468  0.00  0.00    +0.000 HD
BRANCH  18  20
ATOM     20  C   UNL     1      -1.323  10.690  19.331  0.00  0.00    +0.000 C 
BRANCH  20  26
ATOM     21  C   UNL     1      -5.564  12.250  17.095  0.00  0.00    +0.000 C 
ATOM     22  C   UNL     1      -4.285  11.470  17.048  0.00  0.00    +0.000 A 
ATOM     23  C   UNL     1      -3.949  10.713  15.916  0.00  0.00    +0.000 A 
ATOM     24  C   UNL     1      -2.767   9.974  15.881  0.00  0.00    +0.000 A 
ATOM     25  C   UNL     1      -1.910   9.982  16.981  0.00  0.00    +0.000 A 
ATOM     26  C   UNL     1      -2.228  10.733  18.124  0.00  0.00    +0.000 A 
ATOM     27  C   UNL     1      -3.420  11.469  18.148  0.00  0.00    +0.000 A 
ENDBRANCH  20  26
ENDBRANCH  18  20
ENDBRANCH   1  18
TORSDOF 6
ENDMDL
MODEL 8
REMARK VINA RESULT:      -8.1      4.769      7.882
REMARK  Name = 
REMARK  7 active torsions:
REMARK  status: ('A' for Active; 'I' for Inactive)
REMARK    1  A    between atoms: C_1  and  C_2
REMARK    2  A    between atoms: C_6  and  C_7
REMARK    3  A    between atoms: C_7  and  N_8
REMARK    4  A    between atoms: N_8  and  C_9
REMARK    5  A    between atoms: C_12  and  C_13
REMARK    6  A    between atoms: C_18  and  C_19
REMARK    7  A    between atoms: C_19  and  O_20
REMARK                            x       y       z     vdW  Elec       q    Type
REMARK                         _______ _______ _______ _____ _____    ______ ____
ROOT
ATOM      1  C   UNL     1       2.265   5.350  18.655  0.00  0.00    +0.000 A 
ATOM      2  C   UNL     1       1.845   5.229  19.985  0.00  0.00    +0.000 A 
ATOM      3  C   UNL     1       1.546   6.364  20.749  0.00  0.00    +0.000 A 
ATOM      4  C   UNL     1       1.726   7.636  20.203  0.00  0.00    +0.000 A 
ATOM      5  C   UNL     1       2.333   7.755  18.950  0.00  0.00    +0.000 A 
ATOM      6  C   UNL     1       2.560   6.625  18.168  0.00  0.00    +0.000 A 
ENDROOT
BRANCH   4   7
ATOM      7  C   UNL     1       1.296   8.838  20.971  0.00  0.00    +0.000 C 
ATOM      8  O   UNL     1       1.564   8.858  22.173  0.00  0.00    +0.000 OA
ATOM      9  N   UNL     1       0.597   9.873  20.330  0.00  0.00    +0.000 N 
ATOM     10  C   UNL     1       0.422  11.137  21.048  0.00  0.00    +0.000 C 
ATOM     11  C   UNL     1      -1.003  11.668  20.920  0.00  0.00    +0.000 C 
ATOM     12  C   UNL     1      -1.475  11.754  19.459  0.00  0.00    +0.000 C 
ATOM     13  C   UNL     1      -1.284  10.395  18.787  0.00  0.00    +0.000 C 
ATOM     14  C   UNL     1       0.135   9.865  18.939  0.00  0.00    +0.000 C 
BRANCH  12  15
ATOM     15  C   UNL     1      -0.774  12.869  18.669  0.00  0.00    +0.000 C 
BRANCH  15  16
ATOM     16  O   UNL     1      -1.121  12.793  17.294  0.00  0.00    +0.000 OA
ATOM     17  H   UNL     1      -1.619  11.968  17.162  0.00  0.00    +0.000 HD
ENDBRANCH  15  16
ENDBRANCH  12  15
ENDBRANCH   4   7
BRANCH   1  18
ATOM     18  N   UNL     1       2.475   4.183  17.911  0.00  0.00    +0.000 N 
ATOM     19  H   UNL     1       1.619   3.631  17.881  0.00  0.00    +0.000 HD
BRANCH  18  20
ATOM     20  C   UNL     1       3.611   3.353  18.311  0.00  0.00    +0.000 C 
BRANCH  20  26
ATOM     21  C   UNL     1       7.912   5.873  19.064  0.00  0.00    +0.000 C 
ATOM     22  C   UNL     1       6.961   5.180  18.136  0.00  0.00    +0.000 A 
ATOM     23  C   UNL     1       7.210   5.139  16.756  0.00  0.00    +0.000 A 
ATOM     24  C   UNL     1       6.315   4.508  15.892  0.00  0.00    +0.000 A 
ATOM     25  C   UNL     1       5.159   3.915  16.399  0.00  0.00    +0.000 A 
ATOM     26  C   UNL     1       4.892   3.946  17.778  0.00  0.00    +0.000 A 
ATOM     27  C   UNL     1       5.798   4.585  18.635  0.00  0.00    +0.000 A 
ENDBRANCH  20  26
ENDBRANCH  18  20
ENDBRANCH   1  18
TORSDOF 6
ENDMDL
MODEL 9
REMARK VINA RESULT:      -8.0      5.585      9.194
REMARK  Name = 
REMARK  7 active torsions:
REMARK  status: ('A' for Active; 'I' for Inactive)
REMARK    1  A    between atoms: C_1  and  C_2
REMARK    2  A    between atoms: C_6  and  C_7
REMARK    3  A    between atoms: C_7  and  N_8
REMARK    4  A    between atoms: N_8  and  C_9
REMARK    5  A    between atoms: C_12  and  C_13
REMARK    6  A    between atoms: C_18  and  C_19
REMARK    7  A    between atoms: C_19  and  O_20
REMARK                            x       y       z     vdW  Elec       q    Type
REMARK                         _______ _______ _______ _____ _____    ______ ____
ROOT
ATOM      1  C   UNL     1       1.036   9.576  19.003  0.00  0.00    +0.000 A 
ATOM      2  C   UNL     1       1.087   8.834  20.190  0.00  0.00    +0.000 A 
ATOM      3  C   UNL     1       1.848   7.661  20.271  0.00  0.00    +0.000 A 
ATOM      4  C   UNL     1       2.517   7.188  19.141  0.00  0.00    +0.000 A 
ATOM      5  C   UNL     1       2.302   7.819  17.913  0.00  0.00    +0.000 A 
ATOM      6  C   UNL     1       1.605   9.023  17.853  0.00  0.00    +0.000 A 
ENDROOT
BRANCH   4   7
ATOM      7  C   UNL     1       3.421   6.009  19.257  0.00  0.00    +0.000 C 
ATOM      8  O   UNL     1       3.217   5.239  20.196  0.00  0.00    +0.000 OA
ATOM      9  N   UNL     1       4.464   5.826  18.335  0.00  0.00    +0.000 N 
ATOM     10  C   UNL     1       5.160   4.538  18.326  0.00  0.00    +0.000 C 
ATOM     11  C   UNL     1       6.674   4.712  18.238  0.00  0.00    +0.000 C 
ATOM     12  C   UNL     1       7.100   5.616  17.070  0.00  0.00    +0.000 C 
ATOM     13  C   UNL     1       6.353   6.946  17.164  0.00  0.00    +0.000 C 
ATOM     14  C   UNL     1       4.845   6.760  17.272  0.00  0.00    +0.000 C 
BRANCH  12  15
ATOM     15  C   UNL     1       6.895   4.958  15.698  0.00  0.00    +0.000 C 
BRANCH  15  16
ATOM     16  O   UNL     1       7.785   5.518  14.744  0.00  0.00    +0.000 OA
ATOM     17  H   UNL     1       8.612   5.738  15.207  0.00  0.00    +0.000 HD
ENDBRANCH  15  16
ENDBRANCH  12  15
ENDBRANCH   4   7
BRANCH   1  18
ATOM     18  N   UNL     1       0.326  10.782  18.997  0.00  0.00    +0.000 N 
ATOM     19  H   UNL     1       0.855  11.500  19.490  0.00  0.00    +0.000 HD
BRANCH  18  20
ATOM     20  C   UNL     1      -1.051  10.727  19.489  0.00  0.00    +0.000 C 
BRANCH  20  26
ATOM     21  C   UNL     1      -5.408  12.208  17.431  0.00  0.00    +0.000 C 
ATOM     22  C   UNL     1      -4.125  11.441  17.336  0.00  0.00    +0.000 A 
ATOM     23  C   UNL     1      -3.833  10.671  16.200  0.00  0.00    +0.000 A 
ATOM     24  C   UNL     1      -2.645   9.945  16.120  0.00  0.00    +0.000 A 
ATOM     25  C   UNL     1      -1.737   9.979  17.179  0.00  0.00    +0.000 A 
ATOM     26  C   UNL     1      -2.011  10.742  18.325  0.00  0.00    +0.000 A 
ATOM     27  C   UNL     1      -3.209  11.466  18.394  0.00  0.00    +0.000 A 
ENDBRANCH  20  26
ENDBRANCH  18  20
ENDBRANCH   1  18
TORSDOF 6
ENDMDL
