MODEL 1
REMARK VINA RESULT:      -6.5      0.000      0.000
REMARK  Name = 
REMARK  4 active torsions:
REMARK  status: ('A' for Active; 'I' for Inactive)
REMARK    1  A    between atoms: C_1  and  C_2
REMARK    2  A    between atoms: N_10  and  C_11
REMARK    3  A    between atoms: C_21  and  C_22
REMARK    4  A    between atoms: N_24  and  C_25
REMARK                            x       y       z     vdW  Elec       q    Type
REMARK                         _______ _______ _______ _____ _____    ______ ____
ROOT
ATOM      1  C   UNL     1      -4.176  15.445  22.346  0.00  0.00    +0.000 C 
ATOM      2  C   UNL     1      -2.729  15.109  22.695  0.00  0.00    +0.000 C 
ATOM      3  O   UNL     1      -1.773  15.871  21.955  0.00  0.00    +0.000 OA
ATOM      4  C   UNL     1      -1.651  15.598  20.553  0.00  0.00    +0.000 C 
ATOM      5  C   UNL     1      -1.548  14.109  20.081  0.00  0.00    +0.000 C 
ATOM      6  C   UNL     1      -0.049  13.622  19.724  0.00  0.00    +0.000 C 
ATOM      7  C   UNL     1       0.236  12.356  18.679  0.00  0.00    +0.000 C 
ATOM      8  C   UNL     1       0.689  11.042  19.380  0.00  0.00    +0.000 A 
ATOM      9  C   UNL     1       0.524  10.962  20.745  0.00  0.00    +0.000 A 
ATOM     10  N   UNL     1       0.852   9.747  21.232  0.00  0.00    +0.000 N 
ATOM     11  C   UNL     1       0.669   9.285  22.591  0.00  0.00    +0.000 C 
ATOM     12  C   UNL     1       1.342   8.997  20.194  0.00  0.00    +0.000 A 
ATOM     13  C   UNL     1       1.833   7.677  20.237  0.00  0.00    +0.000 A 
ATOM     14  C   UNL     1       2.294   7.124  19.057  0.00  0.00    +0.000 A 
ATOM     15  C   UNL     1       2.247   7.862  17.873  0.00  0.00    +0.000 A 
ATOM     16  C   UNL     1       1.742   9.173  17.828  0.00  0.00    +0.000 A 
ATOM     17  C   UNL     1       1.271   9.774  19.021  0.00  0.00    +0.000 A 
ATOM     18  C   UNL     1      -0.093  12.049  21.494  0.00  0.00    +0.000 C 
ATOM     19  C   UNL     1      -1.605  11.863  21.107  0.00  0.00    +0.000 C 
ATOM     20  C   UNL     1      -2.300  13.195  21.096  0.00  0.00    +0.000 C 
ATOM     21  C   UNL     1      -2.345  13.660  22.561  0.00  0.00    +0.000 C 
ATOM     22  N   UNL     1       0.513  13.332  21.045  0.00  0.00    +0.000 NA
ATOM     23  C   UNL     1       1.985  13.356  21.020  0.00  0.00    +0.000 C 
ENDROOT
BRANCH  21  24
ATOM     24  C   UNL     1      -3.228  12.730  23.374  0.00  0.00    +0.000 C 
ATOM     25  O   UNL     1      -4.278  12.256  22.946  0.00  0.00    +0.000 OA
ENDBRANCH  21  24
TORSDOF 1
ENDMDL
MODEL 2
REMARK VINA RESULT:      -6.4      8.691     11.238
REMARK  Name = 
REMARK  4 active torsions:
REMARK  status: ('A' for Active; 'I' for Inactive)
REMARK    1  A    between atoms: C_1  and  C_2
REMARK    2  A    between atoms: N_10  and  C_11
REMARK    3  A    between atoms: C_21  and  C_22
REMARK    4  A    between atoms: N_24  and  C_25
REMARK                            x       y       z     vdW  Elec       q    Type
REMARK                         _______ _______ _______ _____ _____    ______ ____
ROOT
ATOM      1  C   UNL     1      11.245  11.907  17.510  0.00  0.00    +0.000 C 
ATOM      2  C   UNL     1       9.883  12.420  17.965  0.00  0.00    +0.000 C 
ATOM      3  O   UNL     1       9.740  13.838  17.850  0.00  0.00    +0.000 OA
ATOM      4  C   UNL     1      10.508  14.654  18.744  0.00  0.00    +0.000 C 
ATOM      5  C   UNL     1      10.525  14.294  20.268  0.00  0.00    +0.000 C 
ATOM      6  C   UNL     1       9.553  15.205  21.182  0.00  0.00    +0.000 C 
ATOM      7  C   UNL     1       9.830  15.422  22.811  0.00  0.00    +0.000 C 
ATOM      8  C   UNL     1       8.855  14.633  23.733  0.00  0.00    +0.000 A 
ATOM      9  C   UNL     1       8.095  13.642  23.151  0.00  0.00    +0.000 A 
ATOM     10  N   UNL     1       7.366  12.956  24.055  0.00  0.00    +0.000 N 
ATOM     11  C   UNL     1       6.570  11.774  23.803  0.00  0.00    +0.000 C 
ATOM     12  C   UNL     1       7.555  13.543  25.280  0.00  0.00    +0.000 A 
ATOM     13  C   UNL     1       6.973  13.182  26.511  0.00  0.00    +0.000 A 
ATOM     14  C   UNL     1       7.303  13.935  27.623  0.00  0.00    +0.000 A 
ATOM     15  C   UNL     1       8.199  14.998  27.506  0.00  0.00    +0.000 A 
ATOM     16  C   UNL     1       8.793  15.347  26.281  0.00  0.00    +0.000 A 
ATOM     17  C   UNL     1       8.468  14.604  25.119  0.00  0.00    +0.000 A 
ATOM     18  C   UNL     1       8.233  13.320  21.737  0.00  0.00    +0.000 C 
ATOM     19  C   UNL     1       9.597  12.538  21.737  0.00  0.00    +0.000 C 
ATOM     20  C   UNL     1      10.314  12.758  20.435  0.00  0.00    +0.000 C 
ATOM     21  C   UNL     1       9.476  12.042  19.364  0.00  0.00    +0.000 C 
ATOM     22  N   UNL     1       8.242  14.591  20.963  0.00  0.00    +0.000 NA
ATOM     23  C   UNL     1       7.150  15.526  21.280  0.00  0.00    +0.000 C 
ENDROOT
BRANCH  21  24
ATOM     24  C   UNL     1       9.493  10.543  19.607  0.00  0.00    +0.000 C 
ATOM     25  O   UNL     1       8.889   9.741  18.897  0.00  0.00    +0.000 OA
ENDBRANCH  21  24
TORSDOF 1
ENDMDL
MODEL 3
REMARK VINA RESULT:      -6.4      1.311      1.562
REMARK  Name = 
REMARK  4 active torsions:
REMARK  status: ('A' for Active; 'I' for Inactive)
REMARK    1  A    between atoms: C_1  and  C_2
REMARK    2  A    between atoms: N_10  and  C_11
REMARK    3  A    between atoms: C_21  and  C_22
REMARK    4  A    between atoms: N_24  and  C_25
REMARK                            x       y       z     vdW  Elec       q    Type
REMARK                         _______ _______ _______ _____ _____    ______ ____
ROOT
ATOM      1  C   UNL     1      -5.911  15.270  22.948  0.00  0.00    +0.000 C 
ATOM      2  C   UNL     1      -4.457  15.102  23.378  0.00  0.00    +0.000 C 
ATOM      3  O   UNL     1      -3.568  16.031  22.755  0.00  0.00    +0.000 OA
ATOM      4  C   UNL     1      -3.323  15.873  21.352  0.00  0.00    +0.000 C 
ATOM      5  C   UNL     1      -2.991  14.445  20.799  0.00  0.00    +0.000 C 
ATOM      6  C   UNL     1      -1.421  14.183  20.522  0.00  0.00    +0.000 C 
ATOM      7  C   UNL     1      -0.903  13.040  19.426  0.00  0.00    +0.000 C 
ATOM      8  C   UNL     1      -0.322  11.752  20.078  0.00  0.00    +0.000 A 
ATOM      9  C   UNL     1      -0.560  11.557  21.421  0.00  0.00    +0.000 A 
ATOM     10  N   UNL     1      -0.103  10.365  21.857  0.00  0.00    +0.000 N 
ATOM     11  C   UNL     1      -0.307   9.791  23.169  0.00  0.00    +0.000 C 
ATOM     12  C   UNL     1       0.548   9.757  20.813  0.00  0.00    +0.000 A 
ATOM     13  C   UNL     1       1.208   8.513  20.812  0.00  0.00    +0.000 A 
ATOM     14  C   UNL     1       1.812   8.107  19.637  0.00  0.00    +0.000 A 
ATOM     15  C   UNL     1       1.741   8.912  18.500  0.00  0.00    +0.000 A 
ATOM     16  C   UNL     1       1.068  10.146  18.496  0.00  0.00    +0.000 A 
ATOM     17  C   UNL     1       0.447  10.598  19.687  0.00  0.00    +0.000 A 
ATOM     18  C   UNL     1      -1.363  12.501  22.187  0.00  0.00    +0.000 C 
ATOM     19  C   UNL     1      -2.810  12.146  21.683  0.00  0.00    +0.000 C 
ATOM     20  C   UNL     1      -3.675  13.374  21.703  0.00  0.00    +0.000 C 
ATOM     21  C   UNL     1      -3.874  13.728  23.186  0.00  0.00    +0.000 C 
ATOM     22  N   UNL     1      -0.909  13.880  21.860  0.00  0.00    +0.000 NA
ATOM     23  C   UNL     1       0.545  14.097  21.941  0.00  0.00    +0.000 C 
ENDROOT
BRANCH  21  24
ATOM     24  C   UNL     1      -4.673  12.637  23.877  0.00  0.00    +0.000 C 
ATOM     25  O   UNL     1      -4.259  12.017  24.854  0.00  0.00    +0.000 OA
ENDBRANCH  21  24
TORSDOF 1
ENDMDL
MODEL 4
REMARK VINA RESULT:      -6.4      2.637      4.492
REMARK  Name = 
REMARK  4 active torsions:
REMARK  status: ('A' for Active; 'I' for Inactive)
REMARK    1  A    between atoms: C_1  and  C_2
REMARK    2  A    between atoms: N_10  and  C_11
REMARK    3  A    between atoms: C_21  and  C_22
REMARK    4  A    between atoms: N_24  and  C_25
REMARK                            x       y       z     vdW  Elec       q    Type
REMARK                         _______ _______ _______ _____ _____    ______ ____
ROOT
ATOM      1  C   UNL     1       0.700  18.585  17.075  0.00  0.00    +0.000 C 
ATOM      2  C   UNL     1       1.192  18.170  18.457  0.00  0.00    +0.000 C 
ATOM      3  O   UNL     1       2.556  17.741  18.471  0.00  0.00    +0.000 OA
ATOM      4  C   UNL     1       2.865  16.498  17.828  0.00  0.00    +0.000 C 
ATOM      5  C   UNL     1       1.966  15.251  18.124  0.00  0.00    +0.000 C 
ATOM      6  C   UNL     1       2.599  14.205  19.181  0.00  0.00    +0.000 C 
ATOM      7  C   UNL     1       2.153  12.600  19.200  0.00  0.00    +0.000 C 
ATOM      8  C   UNL     1       1.222  12.212  20.385  0.00  0.00    +0.000 A 
ATOM      9  C   UNL     1       0.636  13.238  21.093  0.00  0.00    +0.000 A 
ATOM     10  N   UNL     1      -0.229  12.789  22.027  0.00  0.00    +0.000 N 
ATOM     11  C   UNL     1      -1.108  13.595  22.846  0.00  0.00    +0.000 C 
ATOM     12  C   UNL     1      -0.172  11.419  22.029  0.00  0.00    +0.000 A 
ATOM     13  C   UNL     1      -0.878  10.525  22.856  0.00  0.00    +0.000 A 
ATOM     14  C   UNL     1      -0.647   9.173  22.687  0.00  0.00    +0.000 A 
ATOM     15  C   UNL     1       0.247   8.733  21.710  0.00  0.00    +0.000 A 
ATOM     16  C   UNL     1       0.939   9.625  20.873  0.00  0.00    +0.000 A 
ATOM     17  C   UNL     1       0.734  11.018  21.027  0.00  0.00    +0.000 A 
ATOM     18  C   UNL     1       0.846  14.629  20.716  0.00  0.00    +0.000 C 
ATOM     19  C   UNL     1      -0.062  14.736  19.436  0.00  0.00    +0.000 C 
ATOM     20  C   UNL     1       0.524  15.730  18.473  0.00  0.00    +0.000 C 
ATOM     21  C   UNL     1       0.382  17.105  19.146  0.00  0.00    +0.000 C 
ATOM     22  N   UNL     1       2.299  14.835  20.468  0.00  0.00    +0.000 NA
ATOM     23  C   UNL     1       3.192  14.341  21.530  0.00  0.00    +0.000 C 
ENDROOT
BRANCH  21  24
ATOM     24  C   UNL     1      -1.086  17.466  19.285  0.00  0.00    +0.000 C 
ATOM     25  O   UNL     1      -1.575  17.901  20.325  0.00  0.00    +0.000 OA
ENDBRANCH  21  24
TORSDOF 1
ENDMDL
MODEL 5
REMARK VINA RESULT:      -6.2      2.801      6.398
REMARK  Name = 
REMARK  4 active torsions:
REMARK  status: ('A' for Active; 'I' for Inactive)
REMARK    1  A    between atoms: C_1  and  C_2
REMARK    2  A    between atoms: N_10  and  C_11
REMARK    3  A    between atoms: C_21  and  C_22
REMARK    4  A    between atoms: N_24  and  C_25
REMARK                            x       y       z     vdW  Elec       q    Type
REMARK                         _______ _______ _______ _____ _____    ______ ____
ROOT
ATOM      1  C   UNL     1      -0.413   8.536  21.738  0.00  0.00    +0.000 C 
ATOM      2  C   UNL     1       0.425   9.763  22.083  0.00  0.00    +0.000 C 
ATOM      3  O   UNL     1      -0.094  10.519  23.179  0.00  0.00    +0.000 OA
ATOM      4  C   UNL     1      -1.318  11.235  22.968  0.00  0.00    +0.000 C 
ATOM      5  C   UNL     1      -1.472  12.100  21.671  0.00  0.00    +0.000 C 
ATOM      6  C   UNL     1      -1.249  13.685  21.894  0.00  0.00    +0.000 C 
ATOM      7  C   UNL     1      -1.919  14.816  20.870  0.00  0.00    +0.000 C 
ATOM      8  C   UNL     1      -0.897  15.483  19.904  0.00  0.00    +0.000 A 
ATOM      9  C   UNL     1       0.339  14.888  19.778  0.00  0.00    +0.000 A 
ATOM     10  N   UNL     1       1.104  15.486  18.842  0.00  0.00    +0.000 N 
ATOM     11  C   UNL     1       2.394  15.035  18.366  0.00  0.00    +0.000 C 
ATOM     12  C   UNL     1       0.418  16.576  18.371  0.00  0.00    +0.000 A 
ATOM     13  C   UNL     1       0.838  17.512  17.406  0.00  0.00    +0.000 A 
ATOM     14  C   UNL     1      -0.024  18.548  17.098  0.00  0.00    +0.000 A 
ATOM     15  C   UNL     1      -1.269  18.631  17.722  0.00  0.00    +0.000 A 
ATOM     16  C   UNL     1      -1.695  17.687  18.672  0.00  0.00    +0.000 A 
ATOM     17  C   UNL     1      -0.832  16.618  19.020  0.00  0.00    +0.000 A 
ATOM     18  C   UNL     1       0.658  13.658  20.491  0.00  0.00    +0.000 C 
ATOM     19  C   UNL     1      -0.148  12.603  19.648  0.00  0.00    +0.000 C 
ATOM     20  C   UNL     1      -0.604  11.479  20.534  0.00  0.00    +0.000 C 
ATOM     21  C   UNL     1       0.669  10.726  20.952  0.00  0.00    +0.000 C 
ATOM     22  N   UNL     1       0.210  13.802  21.903  0.00  0.00    +0.000 NA
ATOM     23  C   UNL     1       0.646  15.036  22.576  0.00  0.00    +0.000 C 
ENDROOT
BRANCH  21  24
ATOM     24  C   UNL     1       1.309  10.074  19.739  0.00  0.00    +0.000 C 
ATOM     25  O   UNL     1       0.694   9.837  18.702  0.00  0.00    +0.000 OA
ENDBRANCH  21  24
TORSDOF 1
ENDMDL
MODEL 6
REMARK VINA RESULT:      -6.1      9.245     11.783
REMARK  Name = 
REMARK  4 active torsions:
REMARK  status: ('A' for Active; 'I' for Inactive)
REMARK    1  A    between atoms: C_1  and  C_2
REMARK    2  A    between atoms: N_10  and  C_11
REMARK    3  A    between atoms: C_21  and  C_22
REMARK    4  A    between atoms: N_24  and  C_25
REMARK                            x       y       z     vdW  Elec       q    Type
REMARK                         _______ _______ _______ _____ _____    ______ ____
ROOT
ATOM      1  C   UNL     1      12.267  13.338  16.797  0.00  0.00    +0.000 C 
ATOM      2  C   UNL     1      10.828  13.550  17.256  0.00  0.00    +0.000 C 
ATOM      3  O   UNL     1      10.427  14.922  17.256  0.00  0.00    +0.000 OA
ATOM      4  C   UNL     1      11.020  15.785  18.235  0.00  0.00    +0.000 C 
ATOM      5  C   UNL     1      11.086  15.303  19.724  0.00  0.00    +0.000 C 
ATOM      6  C   UNL     1       9.952  15.938  20.684  0.00  0.00    +0.000 C 
ATOM      7  C   UNL     1      10.166  16.059  22.332  0.00  0.00    +0.000 C 
ATOM      8  C   UNL     1       9.344  15.027  23.158  0.00  0.00    +0.000 A 
ATOM      9  C   UNL     1       8.787  13.968  22.476  0.00  0.00    +0.000 A 
ATOM     10  N   UNL     1       8.188  13.084  23.299  0.00  0.00    +0.000 N 
ATOM     11  C   UNL     1       7.627  11.803  22.929  0.00  0.00    +0.000 C 
ATOM     12  C   UNL     1       8.252  13.587  24.574  0.00  0.00    +0.000 A 
ATOM     13  C   UNL     1       7.733  13.021  25.754  0.00  0.00    +0.000 A 
ATOM     14  C   UNL     1       7.905  13.721  26.933  0.00  0.00    +0.000 A 
ATOM     15  C   UNL     1       8.590  14.938  26.930  0.00  0.00    +0.000 A 
ATOM     16  C   UNL     1       9.122  15.494  25.755  0.00  0.00    +0.000 A 
ATOM     17  C   UNL     1       8.954  14.807  24.527  0.00  0.00    +0.000 A 
ATOM     18  C   UNL     1       8.998  13.801  21.044  0.00  0.00    +0.000 C 
ATOM     19  C   UNL     1      10.484  13.286  21.016  0.00  0.00    +0.000 C 
ATOM     20  C   UNL     1      11.162  13.746  19.756  0.00  0.00    +0.000 C 
ATOM     21  C   UNL     1      10.483  12.984  18.607  0.00  0.00    +0.000 C 
ATOM     22  N   UNL     1       8.781  15.114  20.379  0.00  0.00    +0.000 NA
ATOM     23  C   UNL     1       7.530  15.801  20.743  0.00  0.00    +0.000 C 
ENDROOT
BRANCH  21  24
ATOM     24  C   UNL     1      10.774  11.498  18.725  0.00  0.00    +0.000 C 
ATOM     25  O   UNL     1       9.905  10.659  18.945  0.00  0.00    +0.000 OA
ENDBRANCH  21  24
TORSDOF 1
ENDMDL
MODEL 7
REMARK VINA RESULT:      -6.1      2.704      4.714
REMARK  Name = 
REMARK  4 active torsions:
REMARK  status: ('A' for Active; 'I' for Inactive)
REMARK    1  A    between atoms: C_1  and  C_2
REMARK    2  A    between atoms: N_10  and  C_11
REMARK    3  A    between atoms: C_21  and  C_22
REMARK    4  A    between atoms: N_24  and  C_25
REMARK                            x       y       z     vdW  Elec       q    Type
REMARK                         _______ _______ _______ _____ _____    ______ ____
ROOT
ATOM      1  C   UNL     1       3.298  16.982  21.755  0.00  0.00    +0.000 C 
ATOM      2  C   UNL     1       2.435  15.878  22.358  0.00  0.00    +0.000 C 
ATOM      3  O   UNL     1       3.121  14.632  22.501  0.00  0.00    +0.000 OA
ATOM      4  C   UNL     1       3.454  13.919  21.304  0.00  0.00    +0.000 C 
ATOM      5  C   UNL     1       2.355  13.738  20.203  0.00  0.00    +0.000 C 
ATOM      6  C   UNL     1       1.650  12.284  20.193  0.00  0.00    +0.000 C 
ATOM      7  C   UNL     1       0.934  11.666  18.822  0.00  0.00    +0.000 C 
ATOM      8  C   UNL     1      -0.622  11.684  18.853  0.00  0.00    +0.000 A 
ATOM      9  C   UNL     1      -1.228  12.449  19.826  0.00  0.00    +0.000 A 
ATOM     10  N   UNL     1      -2.571  12.476  19.697  0.00  0.00    +0.000 N 
ATOM     11  C   UNL     1      -3.495  13.285  20.461  0.00  0.00    +0.000 C 
ATOM     12  C   UNL     1      -2.911  11.635  18.667  0.00  0.00    +0.000 A 
ATOM     13  C   UNL     1      -4.200  11.327  18.192  0.00  0.00    +0.000 A 
ATOM     14  C   UNL     1      -4.302  10.433  17.143  0.00  0.00    +0.000 A 
ATOM     15  C   UNL     1      -3.150   9.884  16.578  0.00  0.00    +0.000 A 
ATOM     16  C   UNL     1      -1.863  10.206  17.040  0.00  0.00    +0.000 A 
ATOM     17  C   UNL     1      -1.722  11.110  18.122  0.00  0.00    +0.000 A 
ATOM     18  C   UNL     1      -0.439  13.244  20.758  0.00  0.00    +0.000 C 
ATOM     19  C   UNL     1       0.013  14.433  19.833  0.00  0.00    +0.000 C 
ATOM     20  C   UNL     1       1.360  14.937  20.269  0.00  0.00    +0.000 C 
ATOM     21  C   UNL     1       1.142  15.595  21.641  0.00  0.00    +0.000 C 
ATOM     22  N   UNL     1       0.670  12.398  21.275  0.00  0.00    +0.000 NA
ATOM     23  C   UNL     1       0.268  11.075  21.779  0.00  0.00    +0.000 C 
ENDROOT
BRANCH  21  24
ATOM     24  C   UNL     1       0.259  16.822  21.494  0.00  0.00    +0.000 C 
ATOM     25  O   UNL     1      -0.742  17.015  22.180  0.00  0.00    +0.000 OA
ENDBRANCH  21  24
TORSDOF 1
ENDMDL
MODEL 8
REMARK VINA RESULT:      -5.9      2.867      4.319
REMARK  Name = 
REMARK  4 active torsions:
REMARK  status: ('A' for Active; 'I' for Inactive)
REMARK    1  A    between atoms: C_1  and  C_2
REMARK    2  A    between atoms: N_10  and  C_11
REMARK    3  A    between atoms: C_21  and  C_22
REMARK    4  A    between atoms: N_24  and  C_25
REMARK                            x       y       z     vdW  Elec       q    Type
REMARK                         _______ _______ _______ _____ _____    ______ ____
ROOT
ATOM      1  C   UNL     1      -7.231  13.675  22.783  0.00  0.00    +0.000 C 
ATOM      2  C   UNL     1      -6.211  12.544  22.685  0.00  0.00    +0.000 C 
ATOM      3  O   UNL     1      -5.485  12.326  23.896  0.00  0.00    +0.000 OA
ATOM      4  C   UNL     1      -4.546  13.333  24.296  0.00  0.00    +0.000 C 
ATOM      5  C   UNL     1      -3.547  13.898  23.231  0.00  0.00    +0.000 C 
ATOM      6  C   UNL     1      -2.055  13.283  23.320  0.00  0.00    +0.000 C 
ATOM      7  C   UNL     1      -0.730  14.110  22.741  0.00  0.00    +0.000 C 
ATOM      8  C   UNL     1      -0.164  13.549  21.404  0.00  0.00    +0.000 A 
ATOM      9  C   UNL     1      -0.953  12.664  20.703  0.00  0.00    +0.000 A 
ATOM     10  N   UNL     1      -0.413  12.323  19.515  0.00  0.00    +0.000 N 
ATOM     11  C   UNL     1      -1.037  11.528  18.480  0.00  0.00    +0.000 C 
ATOM     12  C   UNL     1       0.822  12.914  19.430  0.00  0.00    +0.000 A 
ATOM     13  C   UNL     1       1.757  12.816  18.382  0.00  0.00    +0.000 A 
ATOM     14  C   UNL     1       2.954  13.493  18.523  0.00  0.00    +0.000 A 
ATOM     15  C   UNL     1       3.196  14.255  19.666  0.00  0.00    +0.000 A 
ATOM     16  C   UNL     1       2.255  14.367  20.704  0.00  0.00    +0.000 A 
ATOM     17  C   UNL     1       1.022  13.677  20.597  0.00  0.00    +0.000 A 
ATOM     18  C   UNL     1      -2.284  12.304  21.176  0.00  0.00    +0.000 C 
ATOM     19  C   UNL     1      -3.093  13.605  20.821  0.00  0.00    +0.000 C 
ATOM     20  C   UNL     1      -4.198  13.809  21.817  0.00  0.00    +0.000 C 
ATOM     21  C   UNL     1      -5.202  12.670  21.575  0.00  0.00    +0.000 C 
ATOM     22  N   UNL     1      -2.200  11.999  22.630  0.00  0.00    +0.000 NA
ATOM     23  C   UNL     1      -1.133  11.060  23.013  0.00  0.00    +0.000 C 
ENDROOT
BRANCH  21  24
ATOM     24  C   UNL     1      -5.836  12.819  20.204  0.00  0.00    +0.000 C 
ATOM     25  O   UNL     1      -6.100  11.863  19.478  0.00  0.00    +0.000 OA
ENDBRANCH  21  24
TORSDOF 1
ENDMDL
MODEL 9
REMARK VINA RESULT:      -5.9      2.937      5.556
REMARK  Name = 
REMARK  4 active torsions:
REMARK  status: ('A' for Active; 'I' for Inactive)
REMARK    1  A    between atoms: C_1  and  C_2
REMARK    2  A    between atoms: N_10  and  C_11
REMARK    3  A    between atoms: C_21  and  C_22
REMARK    4  A    between atoms: N_24  and  C_25
REMARK                            x       y       z     vdW  Elec       q    Type
REMARK                         _______ _______ _______ _____ _____    ______ ____
ROOT
ATOM      1  C   UNL     1       3.147  15.807  20.584  0.00  0.00    +0.000 C 
ATOM      2  C   UNL     1       2.499  14.559  21.174  0.00  0.00    +0.000 C 
ATOM      3  O   UNL     1       2.849  13.356  20.486  0.00  0.00    +0.000 OA
ATOM      4  C   UNL     1       2.331  13.176  19.162  0.00  0.00    +0.000 C 
ATOM      5  C   UNL     1       0.811  13.454  18.903  0.00  0.00    +0.000 C 
ATOM      6  C   UNL     1      -0.108  12.127  18.827  0.00  0.00    +0.000 C 
ATOM      7  C   UNL     1      -1.556  12.110  18.003  0.00  0.00    +0.000 C 
ATOM      8  C   UNL     1      -2.812  12.121  18.922  0.00  0.00    +0.000 A 
ATOM      9  C   UNL     1      -2.623  12.439  20.249  0.00  0.00    +0.000 A 
ATOM     10  N   UNL     1      -3.786  12.521  20.928  0.00  0.00    +0.000 N 
ATOM     11  C   UNL     1      -3.957  12.964  22.295  0.00  0.00    +0.000 C 
ATOM     12  C   UNL     1      -4.798  12.162  20.074  0.00  0.00    +0.000 A 
ATOM     13  C   UNL     1      -6.175  12.074  20.354  0.00  0.00    +0.000 A 
ATOM     14  C   UNL     1      -7.014  11.673  19.331  0.00  0.00    +0.000 A 
ATOM     15  C   UNL     1      -6.492  11.388  18.069  0.00  0.00    +0.000 A 
ATOM     16  C   UNL     1      -5.119  11.493  17.786  0.00  0.00    +0.000 A 
ATOM     17  C   UNL     1      -4.229  11.891  18.814  0.00  0.00    +0.000 A 
ATOM     18  C   UNL     1      -1.305  12.794  20.758  0.00  0.00    +0.000 C 
ATOM     19  C   UNL     1      -1.142  14.250  20.188  0.00  0.00    +0.000 C 
ATOM     20  C   UNL     1       0.308  14.532  19.910  0.00  0.00    +0.000 C 
ATOM     21  C   UNL     1       0.998  14.591  21.282  0.00  0.00    +0.000 C 
ATOM     22  N   UNL     1      -0.319  11.806  20.240  0.00  0.00    +0.000 NA
ATOM     23  C   UNL     1      -0.692  10.394  20.421  0.00  0.00    +0.000 C 
ENDROOT
BRANCH  21  24
ATOM     24  C   UNL     1       0.481  15.779  22.073  0.00  0.00    +0.000 C 
ATOM     25  O   UNL     1       0.415  15.791  23.300  0.00  0.00    +0.000 OA
ENDBRANCH  21  24
TORSDOF 1
ENDMDL
