MODEL 1
REMARK VINA RESULT:      -7.7      0.000      0.000
REMARK  Name = 
REMARK  9 active torsions:
REMARK  status: ('A' for Active; 'I' for Inactive)
REMARK    1  A    between atoms: C_1  and  C_2
REMARK    2  A    between atoms: C_2  and  C_3
REMARK    3  A    between atoms: C_2  and  N_20
REMARK    4  A    between atoms: C_3  and  C_4
REMARK    5  A    between atoms: C_4  and  C_5
REMARK    6  A    between atoms: N_7  and  C_8
REMARK    7  A    between atoms: C_8  and  C_9
REMARK    8  A    between atoms: C_9  and  C_10
REMARK    9  A    between atoms: C_10  and  C_11
REMARK                            x       y       z     vdW  Elec       q    Type
REMARK                         _______ _______ _______ _____ _____    ______ ____
ROOT
ATOM      1  C   UNL     1       7.871   7.920  17.804  0.00  0.00    +0.000 C 
ATOM      2  O   UNL     1       8.406   7.252  18.680  0.00  0.00    +0.000 OA
ATOM      3  N   UNL     1       7.008   7.402  16.862  0.00  0.00    +0.000 N 
ATOM      4  H   UNL     1       6.576   8.007  16.171  0.00  0.00    +0.000 HD
ENDROOT
BRANCH   1   5
ATOM      5  C   UNL     1       7.970   9.426  17.726  0.00  0.00    +0.000 C 
BRANCH   5   6
ATOM      6  C   UNL     1       9.025  10.011  18.660  0.00  0.00    +0.000 C 
BRANCH   6   8
ATOM      7  C   UNL     1       8.221  12.110  17.632  0.00  0.00    +0.000 C 
ATOM      8  C   UNL     1       9.383  11.518  18.470  0.00  0.00    +0.000 C 
BRANCH   8   9
ATOM      9  N   UNL     1      10.698  11.818  17.824  0.00  0.00    +0.000 NA
ATOM     10  C   UNL     1      11.902  11.529  18.643  0.00  0.00    +0.000 C 
ATOM     11  C   UNL     1      11.966  12.372  19.924  0.00  0.00    +0.000 C 
ATOM     12  O   UNL     1      12.064  13.764  19.591  0.00  0.00    +0.000 OA
ATOM     13  C   UNL     1      11.002  14.176  18.716  0.00  0.00    +0.000 C 
ATOM     14  C   UNL     1      10.861  13.261  17.481  0.00  0.00    +0.000 C 
ENDBRANCH   8   9
ENDBRANCH   6   8
ENDBRANCH   5   6
ENDBRANCH   1   5
BRANCH   3  15
ATOM     15  C   UNL     1       6.613   6.013  16.874  0.00  0.00    +0.000 C 
BRANCH  15  16
ATOM     16  C   UNL     1       5.600   5.707  17.982  0.00  0.00    +0.000 C 
BRANCH  16  17
ATOM     17  C   UNL     1       4.229   6.372  17.810  0.00  0.00    +0.000 C 
BRANCH  17  18
ATOM     18  C   UNL     1       3.211   5.839  18.754  0.00  0.00    +0.000 A 
ATOM     19  N   UNL     1       2.693   6.507  19.768  0.00  0.00    +0.000 NA
ATOM     20  N   UNL     1       1.740   5.717  20.365  0.00  0.00    +0.000 NA
ATOM     21  C   UNL     1       1.696   4.579  19.713  0.00  0.00    +0.000 A 
ATOM     22  C   UNL     1       0.901   3.410  19.873  0.00  0.00    +0.000 A 
ATOM     23  C   UNL     1       1.085   2.364  19.042  0.00  0.00    +0.000 A 
ATOM     24  C   UNL     1       2.087   2.400  17.985  0.00  0.00    +0.000 A 
ATOM     25  C   UNL     1       2.824   3.509  17.823  0.00  0.00    +0.000 A 
ATOM     26  N   UNL     1       2.626   4.592  18.683  0.00  0.00    +0.000 N 
ENDBRANCH  17  18
ENDBRANCH  16  17
ENDBRANCH  15  16
ENDBRANCH   3  15
TORSDOF 8
ENDMDL
MODEL 2
REMARK VINA RESULT:      -7.6      1.697      2.430
REMARK  Name = 
REMARK  9 active torsions:
REMARK  status: ('A' for Active; 'I' for Inactive)
REMARK    1  A    between atoms: C_1  and  C_2
REMARK    2  A    between atoms: C_2  and  C_3
REMARK    3  A    between atoms: C_2  and  N_20
REMARK    4  A    between atoms: C_3  and  C_4
REMARK    5  A    between atoms: C_4  and  C_5
REMARK    6  A    between atoms: N_7  and  C_8
REMARK    7  A    between atoms: C_8  and  C_9
REMARK    8  A    between atoms: C_9  and  C_10
REMARK    9  A    between atoms: C_10  and  C_11
REMARK                            x       y       z     vdW  Elec       q    Type
REMARK                         _______ _______ _______ _____ _____    ______ ____
ROOT
ATOM      1  C   UNL     1       8.082   7.968  18.174  0.00  0.00    +0.000 C 
ATOM      2  O   UNL     1       7.498   8.093  17.103  0.00  0.00    +0.000 OA
ATOM      3  N   UNL     1       8.145   6.786  18.880  0.00  0.00    +0.000 N 
ATOM      4  H   UNL     1       8.662   6.736  19.753  0.00  0.00    +0.000 HD
ENDROOT
BRANCH   1   5
ATOM      5  C   UNL     1       8.932   9.055  18.791  0.00  0.00    +0.000 C 
BRANCH   5   6
ATOM      6  C   UNL     1       8.662  10.438  18.208  0.00  0.00    +0.000 C 
BRANCH   6   8
ATOM      7  C   UNL     1      10.707  11.690  17.614  0.00  0.00    +0.000 C 
ATOM      8  C   UNL     1       9.588  11.601  18.682  0.00  0.00    +0.000 C 
BRANCH   8   9
ATOM      9  N   UNL     1      10.180  11.472  20.049  0.00  0.00    +0.000 NA
ATOM     10  C   UNL     1       9.273  11.792  21.180  0.00  0.00    +0.000 C 
ATOM     11  C   UNL     1       8.798  13.251  21.166  0.00  0.00    +0.000 C 
ATOM     12  O   UNL     1       9.918  14.133  21.321  0.00  0.00    +0.000 OA
ATOM     13  C   UNL     1      10.935  13.878  20.340  0.00  0.00    +0.000 C 
ATOM     14  C   UNL     1      11.336  12.389  20.272  0.00  0.00    +0.000 C 
ENDBRANCH   8   9
ENDBRANCH   6   8
ENDBRANCH   5   6
ENDBRANCH   1   5
BRANCH   3  15
ATOM     15  C   UNL     1       7.569   5.564  18.372  0.00  0.00    +0.000 C 
BRANCH  15  16
ATOM     16  C   UNL     1       6.156   5.319  18.912  0.00  0.00    +0.000 C 
BRANCH  16  17
ATOM     17  C   UNL     1       5.041   5.379  17.860  0.00  0.00    +0.000 C 
BRANCH  17  18
ATOM     18  C   UNL     1       4.064   4.267  17.998  0.00  0.00    +0.000 A 
ATOM     19  N   UNL     1       4.085   3.147  17.299  0.00  0.00    +0.000 NA
ATOM     20  N   UNL     1       3.073   2.335  17.752  0.00  0.00    +0.000 NA
ATOM     21  C   UNL     1       2.445   2.973  18.713  0.00  0.00    +0.000 A 
ATOM     22  C   UNL     1       1.346   2.620  19.542  0.00  0.00    +0.000 A 
ATOM     23  C   UNL     1       0.897   3.500  20.461  0.00  0.00    +0.000 A 
ATOM     24  C   UNL     1       1.511   4.811  20.620  0.00  0.00    +0.000 A 
ATOM     25  C   UNL     1       2.561   5.138  19.849  0.00  0.00    +0.000 A 
ATOM     26  N   UNL     1       3.024   4.220  18.903  0.00  0.00    +0.000 N 
ENDBRANCH  17  18
ENDBRANCH  16  17
ENDBRANCH  15  16
ENDBRANCH   3  15
TORSDOF 8
ENDMDL
MODEL 3
REMARK VINA RESULT:      -7.4      1.334      2.203
REMARK  Name = 
REMARK  9 active torsions:
REMARK  status: ('A' for Active; 'I' for Inactive)
REMARK    1  A    between atoms: C_1  and  C_2
REMARK    2  A    between atoms: C_2  and  C_3
REMARK    3  A    between atoms: C_2  and  N_20
REMARK    4  A    between atoms: C_3  and  C_4
REMARK    5  A    between atoms: C_4  and  C_5
REMARK    6  A    between atoms: N_7  and  C_8
REMARK    7  A    between atoms: C_8  and  C_9
REMARK    8  A    between atoms: C_9  and  C_10
REMARK    9  A    between atoms: C_10  and  C_11
REMARK                            x       y       z     vdW  Elec       q    Type
REMARK                         _______ _______ _______ _____ _____    ______ ____
ROOT
ATOM      1  C   UNL     1       8.083   8.087  17.942  0.00  0.00    +0.000 C 
ATOM      2  O   UNL     1       8.424   7.293  18.811  0.00  0.00    +0.000 OA
ATOM      3  N   UNL     1       7.252   7.763  16.891  0.00  0.00    +0.000 N 
ATOM      4  H   UNL     1       6.984   8.468  16.211  0.00  0.00    +0.000 HD
ENDROOT
BRANCH   1   5
ATOM      5  C   UNL     1       8.408   9.561  17.986  0.00  0.00    +0.000 C 
BRANCH   5   6
ATOM      6  C   UNL     1       8.997  10.011  19.320  0.00  0.00    +0.000 C 
BRANCH   6   8
ATOM      7  C   UNL     1      10.357  11.480  20.769  0.00  0.00    +0.000 C 
ATOM      8  C   UNL     1       9.836  11.327  19.317  0.00  0.00    +0.000 C 
BRANCH   8   9
ATOM      9  N   UNL     1       9.130  12.571  18.882  0.00  0.00    +0.000 NA
ATOM     10  C   UNL     1       9.317  12.957  17.461  0.00  0.00    +0.000 C 
ATOM     11  C   UNL     1      10.779  13.275  17.119  0.00  0.00    +0.000 C 
ATOM     12  O   UNL     1      11.226  14.406  17.878  0.00  0.00    +0.000 OA
ATOM     13  C   UNL     1      11.022  14.215  19.286  0.00  0.00    +0.000 C 
ATOM     14  C   UNL     1       9.578  13.785  19.625  0.00  0.00    +0.000 C 
ENDBRANCH   8   9
ENDBRANCH   6   8
ENDBRANCH   5   6
ENDBRANCH   1   5
BRANCH   3  15
ATOM     15  C   UNL     1       6.658   6.454  16.765  0.00  0.00    +0.000 C 
BRANCH  15  16
ATOM     16  C   UNL     1       5.369   6.318  17.582  0.00  0.00    +0.000 C 
BRANCH  16  17
ATOM     17  C   UNL     1       5.254   5.026  18.400  0.00  0.00    +0.000 C 
BRANCH  17  18
ATOM     18  C   UNL     1       3.995   4.283  18.123  0.00  0.00    +0.000 A 
ATOM     19  N   UNL     1       3.686   3.715  16.972  0.00  0.00    +0.000 NA
ATOM     20  N   UNL     1       2.483   3.067  17.118  0.00  0.00    +0.000 NA
ATOM     21  C   UNL     1       2.072   3.255  18.351  0.00  0.00    +0.000 A 
ATOM     22  C   UNL     1       0.920   2.814  19.058  0.00  0.00    +0.000 A 
ATOM     23  C   UNL     1       0.751   3.179  20.345  0.00  0.00    +0.000 A 
ATOM     24  C   UNL     1       1.720   4.024  21.029  0.00  0.00    +0.000 A 
ATOM     25  C   UNL     1       2.817   4.425  20.367  0.00  0.00    +0.000 A 
ATOM     26  N   UNL     1       2.990   4.040  19.036  0.00  0.00    +0.000 N 
ENDBRANCH  17  18
ENDBRANCH  16  17
ENDBRANCH  15  16
ENDBRANCH   3  15
TORSDOF 8
ENDMDL
MODEL 4
REMARK VINA RESULT:      -7.4      1.059      1.256
REMARK  Name = 
REMARK  9 active torsions:
REMARK  status: ('A' for Active; 'I' for Inactive)
REMARK    1  A    between atoms: C_1  and  C_2
REMARK    2  A    between atoms: C_2  and  C_3
REMARK    3  A    between atoms: C_2  and  N_20
REMARK    4  A    between atoms: C_3  and  C_4
REMARK    5  A    between atoms: C_4  and  C_5
REMARK    6  A    between atoms: N_7  and  C_8
REMARK    7  A    between atoms: C_8  and  C_9
REMARK    8  A    between atoms: C_9  and  C_10
REMARK    9  A    between atoms: C_10  and  C_11
REMARK                            x       y       z     vdW  Elec       q    Type
REMARK                         _______ _______ _______ _____ _____    ______ ____
ROOT
ATOM      1  C   UNL     1       8.111   8.113  18.026  0.00  0.00    +0.000 C 
ATOM      2  O   UNL     1       8.487   7.273  18.835  0.00  0.00    +0.000 OA
ATOM      3  N   UNL     1       7.213   7.855  17.013  0.00  0.00    +0.000 N 
ATOM      4  H   UNL     1       6.920   8.596  16.384  0.00  0.00    +0.000 HD
ENDROOT
BRANCH   1   5
ATOM      5  C   UNL     1       8.470   9.578  18.119  0.00  0.00    +0.000 C 
BRANCH   5   6
ATOM      6  C   UNL     1       9.201   9.942  19.407  0.00  0.00    +0.000 C 
BRANCH   6   8
ATOM      7  C   UNL     1       9.067  11.992  20.780  0.00  0.00    +0.000 C 
ATOM      8  C   UNL     1       9.752  11.397  19.524  0.00  0.00    +0.000 C 
BRANCH   8   9
ATOM      9  N   UNL     1       9.543  12.290  18.343  0.00  0.00    +0.000 NA
ATOM     10  C   UNL     1      10.618  12.271  17.320  0.00  0.00    +0.000 C 
ATOM     11  C   UNL     1      11.966  12.762  17.865  0.00  0.00    +0.000 C 
ATOM     12  O   UNL     1      11.861  14.132  18.275  0.00  0.00    +0.000 OA
ATOM     13  C   UNL     1      10.788  14.325  19.210  0.00  0.00    +0.000 C 
ATOM     14  C   UNL     1       9.452  13.732  18.713  0.00  0.00    +0.000 C 
ENDBRANCH   8   9
ENDBRANCH   6   8
ENDBRANCH   5   6
ENDBRANCH   1   5
BRANCH   3  15
ATOM     15  C   UNL     1       6.587   6.563  16.862  0.00  0.00    +0.000 C 
BRANCH  15  16
ATOM     16  C   UNL     1       5.061   6.665  16.764  0.00  0.00    +0.000 C 
BRANCH  16  17
ATOM     17  C   UNL     1       4.309   5.344  16.969  0.00  0.00    +0.000 C 
BRANCH  17  18
ATOM     18  C   UNL     1       3.413   5.373  18.156  0.00  0.00    +0.000 A 
ATOM     19  N   UNL     1       3.245   6.410  18.955  0.00  0.00    +0.000 NA
ATOM     20  N   UNL     1       2.294   6.085  19.892  0.00  0.00    +0.000 NA
ATOM     21  C   UNL     1       1.903   4.854  19.658  0.00  0.00    +0.000 A 
ATOM     22  C   UNL     1       0.945   4.012  20.288  0.00  0.00    +0.000 A 
ATOM     23  C   UNL     1       0.756   2.759  19.826  0.00  0.00    +0.000 A 
ATOM     24  C   UNL     1       1.517   2.243  18.697  0.00  0.00    +0.000 A 
ATOM     25  C   UNL     1       2.408   3.043  18.090  0.00  0.00    +0.000 A 
ATOM     26  N   UNL     1       2.597   4.341  18.570  0.00  0.00    +0.000 N 
ENDBRANCH  17  18
ENDBRANCH  16  17
ENDBRANCH  15  16
ENDBRANCH   3  15
TORSDOF 8
ENDMDL
MODEL 5
REMARK VINA RESULT:      -7.3      2.488     10.339
REMARK  Name = 
REMARK  9 active torsions:
REMARK  status: ('A' for Active; 'I' for Inactive)
REMARK    1  A    between atoms: C_1  and  C_2
REMARK    2  A    between atoms: C_2  and  C_3
REMARK    3  A    between atoms: C_2  and  N_20
REMARK    4  A    between atoms: C_3  and  C_4
REMARK    5  A    between atoms: C_4  and  C_5
REMARK    6  A    between atoms: N_7  and  C_8
REMARK    7  A    between atoms: C_8  and  C_9
REMARK    8  A    between atoms: C_9  and  C_10
REMARK    9  A    between atoms: C_10  and  C_11
REMARK                            x       y       z     vdW  Elec       q    Type
REMARK                         _______ _______ _______ _____ _____    ______ ____
ROOT
ATOM      1  C   UNL     1       6.387   6.325  16.647  0.00  0.00    +0.000 C 
ATOM      2  O   UNL     1       7.181   5.786  15.884  0.00  0.00    +0.000 OA
ATOM      3  N   UNL     1       6.724   7.343  17.513  0.00  0.00    +0.000 N 
ATOM      4  H   UNL     1       6.019   7.767  18.107  0.00  0.00    +0.000 HD
ENDROOT
BRANCH   1   5
ATOM      5  C   UNL     1       4.902   6.046  16.636  0.00  0.00    +0.000 C 
BRANCH   5   6
ATOM      6  C   UNL     1       4.506   4.845  17.490  0.00  0.00    +0.000 C 
BRANCH   6   8
ATOM      7  C   UNL     1       3.028   6.555  18.487  0.00  0.00    +0.000 C 
ATOM      8  C   UNL     1       3.293   5.029  18.453  0.00  0.00    +0.000 C 
BRANCH   8   9
ATOM      9  N   UNL     1       3.452   4.495  19.841  0.00  0.00    +0.000 NA
ATOM     10  C   UNL     1       3.559   3.020  19.959  0.00  0.00    +0.000 C 
ATOM     11  C   UNL     1       2.299   2.291  19.471  0.00  0.00    +0.000 C 
ATOM     12  O   UNL     1       1.177   2.652  20.287  0.00  0.00    +0.000 OA
ATOM     13  C   UNL     1       0.999   4.076  20.345  0.00  0.00    +0.000 C 
ATOM     14  C   UNL     1       2.296   4.822  20.726  0.00  0.00    +0.000 C 
ENDBRANCH   8   9
ENDBRANCH   6   8
ENDBRANCH   5   6
ENDBRANCH   1   5
BRANCH   3  15
ATOM     15  C   UNL     1       8.053   7.905  17.545  0.00  0.00    +0.000 C 
BRANCH  15  16
ATOM     16  C   UNL     1       8.048   9.387  17.935  0.00  0.00    +0.000 C 
BRANCH  16  17
ATOM     17  C   UNL     1       8.959   9.750  19.115  0.00  0.00    +0.000 C 
BRANCH  17  18
ATOM     18  C   UNL     1       9.767  10.972  18.859  0.00  0.00    +0.000 A 
ATOM     19  N   UNL     1      10.426  11.227  17.744  0.00  0.00    +0.000 NA
ATOM     20  N   UNL     1      10.992  12.475  17.850  0.00  0.00    +0.000 NA
ATOM     21  C   UNL     1      10.678  12.959  19.030  0.00  0.00    +0.000 A 
ATOM     22  C   UNL     1      10.971  14.194  19.671  0.00  0.00    +0.000 A 
ATOM     23  C   UNL     1      10.514  14.418  20.920  0.00  0.00    +0.000 A 
ATOM     24  C   UNL     1       9.731  13.419  21.634  0.00  0.00    +0.000 A 
ATOM     25  C   UNL     1       9.439  12.260  21.022  0.00  0.00    +0.000 A 
ATOM     26  N   UNL     1       9.911  12.035  19.726  0.00  0.00    +0.000 N 
ENDBRANCH  17  18
ENDBRANCH  16  17
ENDBRANCH  15  16
ENDBRANCH   3  15
TORSDOF 8
ENDMDL
MODEL 6
REMARK VINA RESULT:      -7.3      1.015      1.793
REMARK  Name = 
REMARK  9 active torsions:
REMARK  status: ('A' for Active; 'I' for Inactive)
REMARK    1  A    between atoms: C_1  and  C_2
REMARK    2  A    between atoms: C_2  and  C_3
REMARK    3  A    between atoms: C_2  and  N_20
REMARK    4  A    between atoms: C_3  and  C_4
REMARK    5  A    between atoms: C_4  and  C_5
REMARK    6  A    between atoms: N_7  and  C_8
REMARK    7  A    between atoms: C_8  and  C_9
REMARK    8  A    between atoms: C_9  and  C_10
REMARK    9  A    between atoms: C_10  and  C_11
REMARK                            x       y       z     vdW  Elec       q    Type
REMARK                         _______ _______ _______ _____ _____    ______ ____
ROOT
ATOM      1  C   UNL     1       8.171   7.777  18.293  0.00  0.00    +0.000 C 
ATOM      2  O   UNL     1       8.391   6.725  18.881  0.00  0.00    +0.000 OA
ATOM      3  N   UNL     1       7.337   7.886  17.201  0.00  0.00    +0.000 N 
ATOM      4  H   UNL     1       7.174   8.789  16.766  0.00  0.00    +0.000 HD
ENDROOT
BRANCH   1   5
ATOM      5  C   UNL     1       8.669   9.120  18.773  0.00  0.00    +0.000 C 
BRANCH   5   6
ATOM      6  C   UNL     1       8.523  10.227  17.733  0.00  0.00    +0.000 C 
BRANCH   6   8
ATOM      7  C   UNL     1       8.202  12.656  17.415  0.00  0.00    +0.000 C 
ATOM      8  C   UNL     1       9.136  11.617  18.086  0.00  0.00    +0.000 C 
BRANCH   8   9
ATOM      9  N   UNL     1      10.555  11.848  17.676  0.00  0.00    +0.000 NA
ATOM     10  C   UNL     1      11.589  11.363  18.623  0.00  0.00    +0.000 C 
ATOM     11  C   UNL     1      11.525  12.066  19.985  0.00  0.00    +0.000 C 
ATOM     12  O   UNL     1      11.788  13.467  19.827  0.00  0.00    +0.000 OA
ATOM     13  C   UNL     1      10.912  14.066  18.859  0.00  0.00    +0.000 C 
ATOM     14  C   UNL     1      10.888  13.294  17.522  0.00  0.00    +0.000 C 
ENDBRANCH   8   9
ENDBRANCH   6   8
ENDBRANCH   5   6
ENDBRANCH   1   5
BRANCH   3  15
ATOM     15  C   UNL     1       6.595   6.756  16.693  0.00  0.00    +0.000 C 
BRANCH  15  16
ATOM     16  C   UNL     1       5.375   6.426  17.560  0.00  0.00    +0.000 C 
BRANCH  16  17
ATOM     17  C   UNL     1       5.461   5.096  18.320  0.00  0.00    +0.000 C 
BRANCH  17  18
ATOM     18  C   UNL     1       4.242   4.261  18.153  0.00  0.00    +0.000 A 
ATOM     19  N   UNL     1       4.051   3.382  17.187  0.00  0.00    +0.000 NA
ATOM     20  N   UNL     1       2.846   2.757  17.403  0.00  0.00    +0.000 NA
ATOM     21  C   UNL     1       2.317   3.268  18.490  0.00  0.00    +0.000 A 
ATOM     22  C   UNL     1       1.107   3.001  19.188  0.00  0.00    +0.000 A 
ATOM     23  C   UNL     1       0.811   3.706  20.299  0.00  0.00    +0.000 A 
ATOM     24  C   UNL     1       1.703   4.744  20.800  0.00  0.00    +0.000 A 
ATOM     25  C   UNL     1       2.854   4.984  20.152  0.00  0.00    +0.000 A 
ATOM     26  N   UNL     1       3.157   4.247  19.004  0.00  0.00    +0.000 N 
ENDBRANCH  17  18
ENDBRANCH  16  17
ENDBRANCH  15  16
ENDBRANCH   3  15
TORSDOF 8
ENDMDL
MODEL 7
REMARK VINA RESULT:      -7.3      4.694      7.304
REMARK  Name = 
REMARK  9 active torsions:
REMARK  status: ('A' for Active; 'I' for Inactive)
REMARK    1  A    between atoms: C_1  and  C_2
REMARK    2  A    between atoms: C_2  and  C_3
REMARK    3  A    between atoms: C_2  and  N_20
REMARK    4  A    between atoms: C_3  and  C_4
REMARK    5  A    between atoms: C_4  and  C_5
REMARK    6  A    between atoms: N_7  and  C_8
REMARK    7  A    between atoms: C_8  and  C_9
REMARK    8  A    between atoms: C_9  and  C_10
REMARK    9  A    between atoms: C_10  and  C_11
REMARK                            x       y       z     vdW  Elec       q    Type
REMARK                         _______ _______ _______ _____ _____    ______ ____
ROOT
ATOM      1  C   UNL     1       1.923   3.632  17.888  0.00  0.00    +0.000 C 
ATOM      2  O   UNL     1       0.853   3.929  17.368  0.00  0.00    +0.000 OA
ATOM      3  N   UNL     1       2.119   3.557  19.251  0.00  0.00    +0.000 N 
ATOM      4  H   UNL     1       3.022   3.284  19.626  0.00  0.00    +0.000 HD
ENDROOT
BRANCH   1   5
ATOM      5  C   UNL     1       3.129   3.168  17.106  0.00  0.00    +0.000 C 
BRANCH   5   6
ATOM      6  C   UNL     1       4.392   3.054  17.953  0.00  0.00    +0.000 C 
BRANCH   6   8
ATOM      7  C   UNL     1       5.449   4.820  19.320  0.00  0.00    +0.000 C 
ATOM      8  C   UNL     1       5.402   4.240  17.884  0.00  0.00    +0.000 C 
BRANCH   8   9
ATOM      9  N   UNL     1       5.101   5.321  16.895  0.00  0.00    +0.000 NA
ATOM     10  C   UNL     1       5.511   5.048  15.495  0.00  0.00    +0.000 C 
ATOM     11  C   UNL     1       7.029   4.879  15.341  0.00  0.00    +0.000 C 
ATOM     12  O   UNL     1       7.696   6.097  15.698  0.00  0.00    +0.000 OA
ATOM     13  C   UNL     1       7.324   6.541  17.012  0.00  0.00    +0.000 C 
ATOM     14  C   UNL     1       5.794   6.605  17.207  0.00  0.00    +0.000 C 
ENDBRANCH   8   9
ENDBRANCH   6   8
ENDBRANCH   5   6
ENDBRANCH   1   5
BRANCH   3  15
ATOM     15  C   UNL     1       1.041   3.766  20.188  0.00  0.00    +0.000 C 
BRANCH  15  16
ATOM     16  C   UNL     1       0.881   5.242  20.569  0.00  0.00    +0.000 C 
BRANCH  16  17
ATOM     17  C   UNL     1       2.172   6.068  20.517  0.00  0.00    +0.000 C 
BRANCH  17  18
ATOM     18  C   UNL     1       2.077   7.222  19.583  0.00  0.00    +0.000 A 
ATOM     19  N   UNL     1       2.453   7.208  18.318  0.00  0.00    +0.000 NA
ATOM     20  N   UNL     1       2.147   8.427  17.762  0.00  0.00    +0.000 NA
ATOM     21  C   UNL     1       1.596   9.168  18.696  0.00  0.00    +0.000 A 
ATOM     22  C   UNL     1       1.076  10.492  18.690  0.00  0.00    +0.000 A 
ATOM     23  C   UNL     1       0.569  11.010  19.827  0.00  0.00    +0.000 A 
ATOM     24  C   UNL     1       0.547  10.246  21.067  0.00  0.00    +0.000 A 
ATOM     25  C   UNL     1       1.021   8.991  21.068  0.00  0.00    +0.000 A 
ATOM     26  N   UNL     1       1.541   8.457  19.887  0.00  0.00    +0.000 N 
ENDBRANCH  17  18
ENDBRANCH  16  17
ENDBRANCH  15  16
ENDBRANCH   3  15
TORSDOF 8
ENDMDL
MODEL 8
REMARK VINA RESULT:      -7.2      5.665      7.133
REMARK  Name = 
REMARK  9 active torsions:
REMARK  status: ('A' for Active; 'I' for Inactive)
REMARK    1  A    between atoms: C_1  and  C_2
REMARK    2  A    between atoms: C_2  and  C_3
REMARK    3  A    between atoms: C_2  and  N_20
REMARK    4  A    between atoms: C_3  and  C_4
REMARK    5  A    between atoms: C_4  and  C_5
REMARK    6  A    between atoms: N_7  and  C_8
REMARK    7  A    between atoms: C_8  and  C_9
REMARK    8  A    between atoms: C_9  and  C_10
REMARK    9  A    between atoms: C_10  and  C_11
REMARK                            x       y       z     vdW  Elec       q    Type
REMARK                         _______ _______ _______ _____ _____    ______ ____
ROOT
ATOM      1  C   UNL     1       2.807   7.356  18.337  0.00  0.00    +0.000 C 
ATOM      2  O   UNL     1       2.695   6.801  19.424  0.00  0.00    +0.000 OA
ATOM      3  N   UNL     1       3.852   7.132  17.466  0.00  0.00    +0.000 N 
ATOM      4  H   UNL     1       3.882   7.604  16.568  0.00  0.00    +0.000 HD
ENDROOT
BRANCH   1   5
ATOM      5  C   UNL     1       1.743   8.249  17.744  0.00  0.00    +0.000 C 
BRANCH   5   6
ATOM      6  C   UNL     1       1.804   9.685  18.255  0.00  0.00    +0.000 C 
BRANCH   6   8
ATOM      7  C   UNL     1      -0.609   9.888  17.763  0.00  0.00    +0.000 C 
ATOM      8  C   UNL     1       0.475  10.304  18.789  0.00  0.00    +0.000 C 
BRANCH   8   9
ATOM      9  N   UNL     1       0.460  11.785  18.993  0.00  0.00    +0.000 NA
ATOM     10  C   UNL     1       0.921  12.260  20.322  0.00  0.00    +0.000 C 
ATOM     11  C   UNL     1       0.032  11.764  21.471  0.00  0.00    +0.000 C 
ATOM     12  O   UNL     1      -1.296  12.284  21.325  0.00  0.00    +0.000 OA
ATOM     13  C   UNL     1      -1.847  11.979  20.035  0.00  0.00    +0.000 C 
ATOM     14  C   UNL     1      -0.905  12.375  18.877  0.00  0.00    +0.000 C 
ENDBRANCH   8   9
ENDBRANCH   6   8
ENDBRANCH   5   6
ENDBRANCH   1   5
BRANCH   3  15
ATOM     15  C   UNL     1       4.882   6.161  17.746  0.00  0.00    +0.000 C 
BRANCH  15  16
ATOM     16  C   UNL     1       4.947   5.059  16.684  0.00  0.00    +0.000 C 
BRANCH  16  17
ATOM     17  C   UNL     1       4.518   3.668  17.166  0.00  0.00    +0.000 C 
BRANCH  17  18
ATOM     18  C   UNL     1       3.128   3.648  17.695  0.00  0.00    +0.000 A 
ATOM     19  N   UNL     1       2.041   3.865  16.979  0.00  0.00    +0.000 NA
ATOM     20  N   UNL     1       0.946   3.694  17.792  0.00  0.00    +0.000 NA
ATOM     21  C   UNL     1       1.380   3.383  18.991  0.00  0.00    +0.000 A 
ATOM     22  C   UNL     1       0.710   3.084  20.209  0.00  0.00    +0.000 A 
ATOM     23  C   UNL     1       1.432   2.804  21.313  0.00  0.00    +0.000 A 
ATOM     24  C   UNL     1       2.889   2.806  21.289  0.00  0.00    +0.000 A 
ATOM     25  C   UNL     1       3.521   3.071  20.136  0.00  0.00    +0.000 A 
ATOM     26  N   UNL     1       2.769   3.356  18.994  0.00  0.00    +0.000 N 
ENDBRANCH  17  18
ENDBRANCH  16  17
ENDBRANCH  15  16
ENDBRANCH   3  15
TORSDOF 8
ENDMDL
MODEL 9
REMARK VINA RESULT:      -7.2      1.650      2.308
REMARK  Name = 
REMARK  9 active torsions:
REMARK  status: ('A' for Active; 'I' for Inactive)
REMARK    1  A    between atoms: C_1  and  C_2
REMARK    2  A    between atoms: C_2  and  C_3
REMARK    3  A    between atoms: C_2  and  N_20
REMARK    4  A    between atoms: C_3  and  C_4
REMARK    5  A    between atoms: C_4  and  C_5
REMARK    6  A    between atoms: N_7  and  C_8
REMARK    7  A    between atoms: C_8  and  C_9
REMARK    8  A    between atoms: C_9  and  C_10
REMARK    9  A    between atoms: C_10  and  C_11
REMARK                            x       y       z     vdW  Elec       q    Type
REMARK                         _______ _______ _______ _____ _____    ______ ____
ROOT
ATOM      1  C   UNL     1       7.425   7.460  17.215  0.00  0.00    +0.000 C 
ATOM      2  O   UNL     1       7.975   6.796  16.344  0.00  0.00    +0.000 OA
ATOM      3  N   UNL     1       6.072   7.416  17.475  0.00  0.00    +0.000 N 
ATOM      4  H   UNL     1       5.674   7.972  18.224  0.00  0.00    +0.000 HD
ENDROOT
BRANCH   1   5
ATOM      5  C   UNL     1       8.177   8.304  18.217  0.00  0.00    +0.000 C 
BRANCH   5   6
ATOM      6  C   UNL     1       8.352   9.754  17.776  0.00  0.00    +0.000 C 
BRANCH   6   8
ATOM      7  C   UNL     1       9.210  10.225  20.045  0.00  0.00    +0.000 C 
ATOM      8  C   UNL     1       9.396  10.612  18.556  0.00  0.00    +0.000 C 
BRANCH   8   9
ATOM      9  N   UNL     1       9.306  12.095  18.386  0.00  0.00    +0.000 NA
ATOM     10  C   UNL     1      10.192  12.683  17.351  0.00  0.00    +0.000 C 
ATOM     11  C   UNL     1      11.682  12.479  17.659  0.00  0.00    +0.000 C 
ATOM     12  O   UNL     1      12.028  13.152  18.876  0.00  0.00    +0.000 OA
ATOM     13  C   UNL     1      11.184  12.748  19.965  0.00  0.00    +0.000 C 
ATOM     14  C   UNL     1       9.682  12.845  19.620  0.00  0.00    +0.000 C 
ENDBRANCH   8   9
ENDBRANCH   6   8
ENDBRANCH   5   6
ENDBRANCH   1   5
BRANCH   3  15
ATOM     15  C   UNL     1       5.190   6.520  16.765  0.00  0.00    +0.000 C 
BRANCH  15  16
ATOM     16  C   UNL     1       5.474   5.049  17.085  0.00  0.00    +0.000 C 
BRANCH  16  17
ATOM     17  C   UNL     1       4.231   4.158  17.197  0.00  0.00    +0.000 C 
BRANCH  17  18
ATOM     18  C   UNL     1       4.138   3.466  18.510  0.00  0.00    +0.000 A 
ATOM     19  N   UNL     1       5.127   2.822  19.100  0.00  0.00    +0.000 NA
ATOM     20  N   UNL     1       4.686   2.378  20.324  0.00  0.00    +0.000 NA
ATOM     21  C   UNL     1       3.435   2.750  20.459  0.00  0.00    +0.000 A 
ATOM     22  C   UNL     1       2.490   2.584  21.509  0.00  0.00    +0.000 A 
ATOM     23  C   UNL     1       1.243   3.075  21.364  0.00  0.00    +0.000 A 
ATOM     24  C   UNL     1       0.835   3.769  20.150  0.00  0.00    +0.000 A 
ATOM     25  C   UNL     1       1.732   3.941  19.166  0.00  0.00    +0.000 A 
ATOM     26  N   UNL     1       3.024   3.435  19.323  0.00  0.00    +0.000 N 
ENDBRANCH  17  18
ENDBRANCH  16  17
ENDBRANCH  15  16
ENDBRANCH   3  15
TORSDOF 8
ENDMDL
