MODEL 1
REMARK VINA RESULT:      -7.9      0.000      0.000
REMARK  Name = 
REMARK  10 active torsions:
REMARK  status: ('A' for Active; 'I' for Inactive)
REMARK    1  A    between atoms: C_1  and  O_2
REMARK    2  A    between atoms: O_2  and  C_3
REMARK    3  A    between atoms: C_7  and  C_8
REMARK    4  A    between atoms: N_10  and  C_11
REMARK    5  A    between atoms: N_10  and  C_15
REMARK    6  A    between atoms: C_11  and  C_12
REMARK    7  A    between atoms: C_12  and  O_14
REMARK    8  A    between atoms: C_15  and  C_16
REMARK    9  A    between atoms: C_16  and  O_18
REMARK   10  A    between atoms: C_23  and  C_24
REMARK                            x       y       z     vdW  Elec       q    Type
REMARK                         _______ _______ _______ _____ _____    ______ ____
ROOT
ATOM      1  C   UNL     1       1.727   9.001  18.852  0.00  0.00    +0.000 A 
ATOM      2  C   UNL     1       2.508   8.634  17.766  0.00  0.00    +0.000 A 
ATOM      3  C   UNL     1       3.176   7.414  17.762  0.00  0.00    +0.000 A 
ATOM      4  C   UNL     1       2.937   6.422  18.710  0.00  0.00    +0.000 A 
ATOM      5  C   UNL     1       3.496   5.116  18.587  0.00  0.00    +0.000 A 
ATOM      6  C   UNL     1       3.301   4.198  19.636  0.00  0.00    +0.000 A 
ATOM      7  C   UNL     1       2.555   4.539  20.761  0.00  0.00    +0.000 A 
ATOM      8  C   UNL     1       1.977   5.802  20.856  0.00  0.00    +0.000 A 
ATOM      9  C   UNL     1       2.141   6.777  19.838  0.00  0.00    +0.000 A 
ATOM     10  C   UNL     1       1.565   8.100  19.920  0.00  0.00    +0.000 A 
ENDROOT
BRANCH  10  11
ATOM     11  C   UNL     1       0.803   8.521  21.167  0.00  0.00    +0.000 C 
ATOM     12  F   UNL     1       0.352   9.806  21.202  0.00  0.00    +0.000 F 
ATOM     13  F   UNL     1      -0.305   7.755  21.382  0.00  0.00    +0.000 F 
ATOM     14  F   UNL     1       1.559   8.391  22.301  0.00  0.00    +0.000 F 
ENDBRANCH  10  11
BRANCH   5  15
ATOM     15  C   UNL     1       4.453   4.661  17.521  0.00  0.00    +0.000 C 
ATOM     16  O   UNL     1       3.928   3.990  16.622  0.00  0.00    +0.000 OA
ATOM     17  N   UNL     1       5.835   4.950  17.467  0.00  0.00    +0.000 N 
BRANCH  17  18
ATOM     18  C   UNL     1       6.608   4.182  16.460  0.00  0.00    +0.000 C 
BRANCH  18  19
ATOM     19  C   UNL     1       6.729   4.826  15.080  0.00  0.00    +0.000 C 
ATOM     20  O   UNL     1       7.657   5.482  14.637  0.00  0.00    +0.000 OA
BRANCH  19  21
ATOM     21  O   UNL     1       5.682   4.535  14.280  0.00  0.00    +0.000 OA
ATOM     22  H   UNL     1       5.333   5.419  14.032  0.00  0.00    +0.000 HD
ENDBRANCH  19  21
ENDBRANCH  18  19
ENDBRANCH  17  18
BRANCH  17  23
ATOM     23  C   UNL     1       6.652   5.671  18.460  0.00  0.00    +0.000 C 
BRANCH  23  24
ATOM     24  C   UNL     1       7.383   6.944  18.034  0.00  0.00    +0.000 C 
ATOM     25  O   UNL     1       7.089   7.618  17.055  0.00  0.00    +0.000 OA
BRANCH  24  26
ATOM     26  O   UNL     1       8.435   7.233  18.826  0.00  0.00    +0.000 OA
ATOM     27  H   UNL     1       9.280   7.390  18.362  0.00  0.00    +0.000 HD
ENDBRANCH  24  26
ENDBRANCH  23  24
ENDBRANCH  17  23
ENDBRANCH   5  15
BRANCH   1  29
ATOM     28  C   UNL     1      -0.028  10.508  18.241  0.00  0.00    +0.000 C 
ATOM     29  O   UNL     1       1.171  10.245  18.962  0.00  0.00    +0.000 OA
ENDBRANCH   1  29
TORSDOF 9
ENDMDL
MODEL 2
REMARK VINA RESULT:      -7.6      0.966      1.070
REMARK  Name = 
REMARK  10 active torsions:
REMARK  status: ('A' for Active; 'I' for Inactive)
REMARK    1  A    between atoms: C_1  and  O_2
REMARK    2  A    between atoms: O_2  and  C_3
REMARK    3  A    between atoms: C_7  and  C_8
REMARK    4  A    between atoms: N_10  and  C_11
REMARK    5  A    between atoms: N_10  and  C_15
REMARK    6  A    between atoms: C_11  and  C_12
REMARK    7  A    between atoms: C_12  and  O_14
REMARK    8  A    between atoms: C_15  and  C_16
REMARK    9  A    between atoms: C_16  and  O_18
REMARK   10  A    between atoms: C_23  and  C_24
REMARK                            x       y       z     vdW  Elec       q    Type
REMARK                         _______ _______ _______ _____ _____    ______ ____
ROOT
ATOM      1  C   UNL     1       1.483   9.510  18.724  0.00  0.00    +0.000 A 
ATOM      2  C   UNL     1       2.366   9.086  17.742  0.00  0.00    +0.000 A 
ATOM      3  C   UNL     1       3.001   7.853  17.855  0.00  0.00    +0.000 A 
ATOM      4  C   UNL     1       2.639   6.905  18.809  0.00  0.00    +0.000 A 
ATOM      5  C   UNL     1       3.176   5.583  18.795  0.00  0.00    +0.000 A 
ATOM      6  C   UNL     1       2.848   4.711  19.850  0.00  0.00    +0.000 A 
ATOM      7  C   UNL     1       1.996   5.112  20.875  0.00  0.00    +0.000 A 
ATOM      8  C   UNL     1       1.442   6.389  20.860  0.00  0.00    +0.000 A 
ATOM      9  C   UNL     1       1.736   7.320  19.831  0.00  0.00    +0.000 A 
ATOM     10  C   UNL     1       1.187   8.656  19.802  0.00  0.00    +0.000 A 
ENDROOT
BRANCH  10  11
ATOM     11  C   UNL     1       0.307   9.141  20.944  0.00  0.00    +0.000 C 
ATOM     12  F   UNL     1      -0.703   9.994  20.616  0.00  0.00    +0.000 F 
ATOM     13  F   UNL     1      -0.301   8.114  21.603  0.00  0.00    +0.000 F 
ATOM     14  F   UNL     1       1.025   9.810  21.898  0.00  0.00    +0.000 F 
ENDBRANCH  10  11
BRANCH   5  15
ATOM     15  C   UNL     1       4.230   5.067  17.855  0.00  0.00    +0.000 C 
ATOM     16  O   UNL     1       3.785   4.640  16.781  0.00  0.00    +0.000 OA
ATOM     17  N   UNL     1       5.622   5.059  18.093  0.00  0.00    +0.000 N 
BRANCH  17  18
ATOM     18  C   UNL     1       6.429   4.272  17.127  0.00  0.00    +0.000 C 
BRANCH  18  19
ATOM     19  C   UNL     1       6.735   4.960  15.798  0.00  0.00    +0.000 C 
ATOM     20  O   UNL     1       7.589   5.801  15.568  0.00  0.00    +0.000 OA
BRANCH  19  21
ATOM     21  O   UNL     1       5.986   4.483  14.783  0.00  0.00    +0.000 OA
ATOM     22  H   UNL     1       5.073   4.747  15.030  0.00  0.00    +0.000 HD
ENDBRANCH  19  21
ENDBRANCH  18  19
ENDBRANCH  17  18
BRANCH  17  23
ATOM     23  C   UNL     1       6.337   5.462  19.317  0.00  0.00    +0.000 C 
BRANCH  23  24
ATOM     24  C   UNL     1       7.776   5.965  19.202  0.00  0.00    +0.000 C 
ATOM     25  O   UNL     1       8.119   6.942  18.549  0.00  0.00    +0.000 OA
BRANCH  24  26
ATOM     26  O   UNL     1       8.657   5.187  19.863  0.00  0.00    +0.000 OA
ATOM     27  H   UNL     1       9.558   5.553  19.949  0.00  0.00    +0.000 HD
ENDBRANCH  24  26
ENDBRANCH  23  24
ENDBRANCH  17  23
ENDBRANCH   5  15
BRANCH   1  29
ATOM     28  C   UNL     1       1.843  11.874  18.651  0.00  0.00    +0.000 C 
ATOM     29  O   UNL     1       0.949  10.769  18.728  0.00  0.00    +0.000 OA
ENDBRANCH   1  29
TORSDOF 9
ENDMDL
MODEL 3
REMARK VINA RESULT:      -7.5      0.894      1.096
REMARK  Name = 
REMARK  10 active torsions:
REMARK  status: ('A' for Active; 'I' for Inactive)
REMARK    1  A    between atoms: C_1  and  O_2
REMARK    2  A    between atoms: O_2  and  C_3
REMARK    3  A    between atoms: C_7  and  C_8
REMARK    4  A    between atoms: N_10  and  C_11
REMARK    5  A    between atoms: N_10  and  C_15
REMARK    6  A    between atoms: C_11  and  C_12
REMARK    7  A    between atoms: C_12  and  O_14
REMARK    8  A    between atoms: C_15  and  C_16
REMARK    9  A    between atoms: C_16  and  O_18
REMARK   10  A    between atoms: C_23  and  C_24
REMARK                            x       y       z     vdW  Elec       q    Type
REMARK                         _______ _______ _______ _____ _____    ______ ____
ROOT
ATOM      1  C   UNL     1       1.619   9.135  18.843  0.00  0.00    +0.000 A 
ATOM      2  C   UNL     1       2.366   8.733  17.745  0.00  0.00    +0.000 A 
ATOM      3  C   UNL     1       3.003   7.496  17.745  0.00  0.00    +0.000 A 
ATOM      4  C   UNL     1       2.762   6.525  18.714  0.00  0.00    +0.000 A 
ATOM      5  C   UNL     1       3.285   5.204  18.598  0.00  0.00    +0.000 A 
ATOM      6  C   UNL     1       3.093   4.306  19.665  0.00  0.00    +0.000 A 
ATOM      7  C   UNL     1       2.382   4.683  20.801  0.00  0.00    +0.000 A 
ATOM      8  C   UNL     1       1.838   5.961  20.890  0.00  0.00    +0.000 A 
ATOM      9  C   UNL     1       2.001   6.917  19.854  0.00  0.00    +0.000 A 
ATOM     10  C   UNL     1       1.460   8.255  19.929  0.00  0.00    +0.000 A 
ENDROOT
BRANCH  10  11
ATOM     11  C   UNL     1       0.737   8.713  21.186  0.00  0.00    +0.000 C 
ATOM     12  F   UNL     1       0.260   9.989  21.185  0.00  0.00    +0.000 F 
ATOM     13  F   UNL     1      -0.344   7.934  21.476  0.00  0.00    +0.000 F 
ATOM     14  F   UNL     1       1.540   8.647  22.294  0.00  0.00    +0.000 F 
ENDBRANCH  10  11
BRANCH   5  15
ATOM     15  C   UNL     1       4.207   4.709  17.518  0.00  0.00    +0.000 C 
ATOM     16  O   UNL     1       3.727   3.805  16.819  0.00  0.00    +0.000 OA
ATOM     17  N   UNL     1       5.504   5.195  17.246  0.00  0.00    +0.000 N 
BRANCH  17  18
ATOM     18  C   UNL     1       6.305   4.380  16.300  0.00  0.00    +0.000 C 
BRANCH  18  19
ATOM     19  C   UNL     1       6.258   4.817  14.837  0.00  0.00    +0.000 C 
ATOM     20  O   UNL     1       6.506   4.150  13.846  0.00  0.00    +0.000 OA
BRANCH  19  21
ATOM     21  O   UNL     1       5.812   6.082  14.688  0.00  0.00    +0.000 OA
ATOM     22  H   UNL     1       6.058   6.511  15.536  0.00  0.00    +0.000 HD
ENDBRANCH  19  21
ENDBRANCH  18  19
ENDBRANCH  17  18
BRANCH  17  23
ATOM     23  C   UNL     1       6.269   6.212  17.992  0.00  0.00    +0.000 C 
BRANCH  23  24
ATOM     24  C   UNL     1       7.154   5.766  19.155  0.00  0.00    +0.000 C 
ATOM     25  O   UNL     1       6.832   4.935  19.994  0.00  0.00    +0.000 OA
BRANCH  24  26
ATOM     26  O   UNL     1       8.331   6.423  19.199  0.00  0.00    +0.000 OA
ATOM     27  H   UNL     1       8.820   6.352  20.041  0.00  0.00    +0.000 HD
ENDBRANCH  24  26
ENDBRANCH  23  24
ENDBRANCH  17  23
ENDBRANCH   5  15
BRANCH   1  29
ATOM     28  C   UNL     1       1.867  11.480  18.442  0.00  0.00    +0.000 C 
ATOM     29  O   UNL     1       1.097  10.394  18.946  0.00  0.00    +0.000 OA
ENDBRANCH   1  29
TORSDOF 9
ENDMDL
MODEL 4
REMARK VINA RESULT:      -7.4      1.141      1.432
REMARK  Name = 
REMARK  10 active torsions:
REMARK  status: ('A' for Active; 'I' for Inactive)
REMARK    1  A    between atoms: C_1  and  O_2
REMARK    2  A    between atoms: O_2  and  C_3
REMARK    3  A    between atoms: C_7  and  C_8
REMARK    4  A    between atoms: N_10  and  C_11
REMARK    5  A    between atoms: N_10  and  C_15
REMARK    6  A    between atoms: C_11  and  C_12
REMARK    7  A    between atoms: C_12  and  O_14
REMARK    8  A    between atoms: C_15  and  C_16
REMARK    9  A    between atoms: C_16  and  O_18
REMARK   10  A    between atoms: C_23  and  C_24
REMARK                            x       y       z     vdW  Elec       q    Type
REMARK                         _______ _______ _______ _____ _____    ______ ____
ROOT
ATOM      1  C   UNL     1       1.744   9.016  18.748  0.00  0.00    +0.000 A 
ATOM      2  C   UNL     1       2.347   8.518  17.602  0.00  0.00    +0.000 A 
ATOM      3  C   UNL     1       2.877   7.232  17.591  0.00  0.00    +0.000 A 
ATOM      4  C   UNL     1       2.651   6.315  18.615  0.00  0.00    +0.000 A 
ATOM      5  C   UNL     1       3.050   4.951  18.503  0.00  0.00    +0.000 A 
ATOM      6  C   UNL     1       2.887   4.106  19.617  0.00  0.00    +0.000 A 
ATOM      7  C   UNL     1       2.321   4.577  20.799  0.00  0.00    +0.000 A 
ATOM      8  C   UNL     1       1.895   5.900  20.887  0.00  0.00    +0.000 A 
ATOM      9  C   UNL     1       2.037   6.805  19.805  0.00  0.00    +0.000 A 
ATOM     10  C   UNL     1       1.618   8.186  19.878  0.00  0.00    +0.000 A 
ENDROOT
BRANCH  10  11
ATOM     11  C   UNL     1       1.059   8.744  21.178  0.00  0.00    +0.000 C 
ATOM     12  F   UNL     1       1.832   8.593  22.289  0.00  0.00    +0.000 F 
ATOM     13  F   UNL     1       0.808  10.082  21.103  0.00  0.00    +0.000 F 
ATOM     14  F   UNL     1      -0.138   8.168  21.512  0.00  0.00    +0.000 F 
ENDBRANCH  10  11
BRANCH   5  15
ATOM     15  C   UNL     1       3.820   4.346  17.361  0.00  0.00    +0.000 C 
ATOM     16  O   UNL     1       3.185   3.501  16.715  0.00  0.00    +0.000 OA
ATOM     17  N   UNL     1       5.140   4.675  16.983  0.00  0.00    +0.000 N 
BRANCH  17  18
ATOM     18  C   UNL     1       5.764   3.767  15.990  0.00  0.00    +0.000 C 
BRANCH  18  19
ATOM     19  C   UNL     1       6.224   4.418  14.687  0.00  0.00    +0.000 C 
ATOM     20  O   UNL     1       6.618   5.561  14.518  0.00  0.00    +0.000 OA
BRANCH  19  21
ATOM     21  O   UNL     1       6.240   3.553  13.652  0.00  0.00    +0.000 OA
ATOM     22  H   UNL     1       7.191   3.324  13.562  0.00  0.00    +0.000 HD
ENDBRANCH  19  21
ENDBRANCH  18  19
ENDBRANCH  17  18
BRANCH  17  23
ATOM     23  C   UNL     1       6.074   5.599  17.653  0.00  0.00    +0.000 C 
BRANCH  23  24
ATOM     24  C   UNL     1       6.850   5.109  18.875  0.00  0.00    +0.000 C 
ATOM     25  O   UNL     1       6.419   5.120  20.021  0.00  0.00    +0.000 OA
BRANCH  24  26
ATOM     26  O   UNL     1       8.098   4.700  18.573  0.00  0.00    +0.000 OA
ATOM     27  H   UNL     1       8.170   3.789  18.228  0.00  0.00    +0.000 HD
ENDBRANCH  24  26
ENDBRANCH  23  24
ENDBRANCH  17  23
ENDBRANCH   5  15
BRANCH   1  29
ATOM     28  C   UNL     1       2.117  11.313  18.192  0.00  0.00    +0.000 C 
ATOM     29  O   UNL     1       1.340  10.318  18.851  0.00  0.00    +0.000 OA
ENDBRANCH   1  29
TORSDOF 9
ENDMDL
MODEL 5
REMARK VINA RESULT:      -7.4      1.123      1.449
REMARK  Name = 
REMARK  10 active torsions:
REMARK  status: ('A' for Active; 'I' for Inactive)
REMARK    1  A    between atoms: C_1  and  O_2
REMARK    2  A    between atoms: O_2  and  C_3
REMARK    3  A    between atoms: C_7  and  C_8
REMARK    4  A    between atoms: N_10  and  C_11
REMARK    5  A    between atoms: N_10  and  C_15
REMARK    6  A    between atoms: C_11  and  C_12
REMARK    7  A    between atoms: C_12  and  O_14
REMARK    8  A    between atoms: C_15  and  C_16
REMARK    9  A    between atoms: C_16  and  O_18
REMARK   10  A    between atoms: C_23  and  C_24
REMARK                            x       y       z     vdW  Elec       q    Type
REMARK                         _______ _______ _______ _____ _____    ______ ____
ROOT
ATOM      1  C   UNL     1       1.525   9.331  18.883  0.00  0.00    +0.000 A 
ATOM      2  C   UNL     1       2.133   8.842  17.735  0.00  0.00    +0.000 A 
ATOM      3  C   UNL     1       2.693   7.569  17.726  0.00  0.00    +0.000 A 
ATOM      4  C   UNL     1       2.494   6.652  18.755  0.00  0.00    +0.000 A 
ATOM      5  C   UNL     1       2.924   5.296  18.646  0.00  0.00    +0.000 A 
ATOM      6  C   UNL     1       2.788   4.453  19.765  0.00  0.00    +0.000 A 
ATOM      7  C   UNL     1       2.219   4.916  20.948  0.00  0.00    +0.000 A 
ATOM      8  C   UNL     1       1.763   6.228  21.034  0.00  0.00    +0.000 A 
ATOM      9  C   UNL     1       1.877   7.132  19.947  0.00  0.00    +0.000 A 
ATOM     10  C   UNL     1       1.425   8.503  20.017  0.00  0.00    +0.000 A 
ENDROOT
BRANCH  10  11
ATOM     11  C   UNL     1       0.862   9.053  21.318  0.00  0.00    +0.000 C 
ATOM     12  F   UNL     1       1.291   8.461  22.467  0.00  0.00    +0.000 F 
ATOM     13  F   UNL     1       1.136  10.379  21.483  0.00  0.00    +0.000 F 
ATOM     14  F   UNL     1      -0.503   8.955  21.369  0.00  0.00    +0.000 F 
ENDBRANCH  10  11
BRANCH   5  15
ATOM     15  C   UNL     1       3.701   4.704  17.502  0.00  0.00    +0.000 C 
ATOM     16  O   UNL     1       3.054   3.907  16.810  0.00  0.00    +0.000 OA
ATOM     17  N   UNL     1       5.041   5.000  17.168  0.00  0.00    +0.000 N 
BRANCH  17  18
ATOM     18  C   UNL     1       5.658   4.105  16.157  0.00  0.00    +0.000 C 
BRANCH  18  19
ATOM     19  C   UNL     1       6.534   4.787  15.109  0.00  0.00    +0.000 C 
ATOM     20  O   UNL     1       6.180   5.507  14.189  0.00  0.00    +0.000 OA
BRANCH  19  21
ATOM     21  O   UNL     1       7.850   4.589  15.325  0.00  0.00    +0.000 OA
ATOM     22  H   UNL     1       8.050   3.787  14.795  0.00  0.00    +0.000 HD
ENDBRANCH  19  21
ENDBRANCH  18  19
ENDBRANCH  17  18
BRANCH  17  23
ATOM     23  C   UNL     1       5.989   5.864  17.893  0.00  0.00    +0.000 C 
BRANCH  23  24
ATOM     24  C   UNL     1       7.085   5.216  18.739  0.00  0.00    +0.000 C 
ATOM     25  O   UNL     1       8.037   4.594  18.284  0.00  0.00    +0.000 OA
BRANCH  24  26
ATOM     26  O   UNL     1       6.875   5.354  20.063  0.00  0.00    +0.000 OA
ATOM     27  H   UNL     1       5.958   5.566  20.324  0.00  0.00    +0.000 HD
ENDBRANCH  24  26
ENDBRANCH  23  24
ENDBRANCH  17  23
ENDBRANCH   5  15
BRANCH   1  29
ATOM     28  C   UNL     1      -0.199  10.937  18.469  0.00  0.00    +0.000 C 
ATOM     29  O   UNL     1       1.091  10.623  18.983  0.00  0.00    +0.000 OA
ENDBRANCH   1  29
TORSDOF 9
ENDMDL
MODEL 6
REMARK VINA RESULT:      -7.2      0.717      1.183
REMARK  Name = 
REMARK  10 active torsions:
REMARK  status: ('A' for Active; 'I' for Inactive)
REMARK    1  A    between atoms: C_1  and  O_2
REMARK    2  A    between atoms: O_2  and  C_3
REMARK    3  A    between atoms: C_7  and  C_8
REMARK    4  A    between atoms: N_10  and  C_11
REMARK    5  A    between atoms: N_10  and  C_15
REMARK    6  A    between atoms: C_11  and  C_12
REMARK    7  A    between atoms: C_12  and  O_14
REMARK    8  A    between atoms: C_15  and  C_16
REMARK    9  A    between atoms: C_16  and  O_18
REMARK   10  A    between atoms: C_23  and  C_24
REMARK                            x       y       z     vdW  Elec       q    Type
REMARK                         _______ _______ _______ _____ _____    ______ ____
ROOT
ATOM      1  C   UNL     1       1.716   9.006  18.808  0.00  0.00    +0.000 A 
ATOM      2  C   UNL     1       2.421   8.562  17.699  0.00  0.00    +0.000 A 
ATOM      3  C   UNL     1       3.019   7.306  17.704  0.00  0.00    +0.000 A 
ATOM      4  C   UNL     1       2.772   6.359  18.696  0.00  0.00    +0.000 A 
ATOM      5  C   UNL     1       3.250   5.020  18.590  0.00  0.00    +0.000 A 
ATOM      6  C   UNL     1       3.057   4.147  19.677  0.00  0.00    +0.000 A 
ATOM      7  C   UNL     1       2.388   4.565  20.824  0.00  0.00    +0.000 A 
ATOM      8  C   UNL     1       1.886   5.861  20.904  0.00  0.00    +0.000 A 
ATOM      9  C   UNL     1       2.054   6.793  19.848  0.00  0.00    +0.000 A 
ATOM     10  C   UNL     1       1.557   8.149  19.913  0.00  0.00    +0.000 A 
ENDROOT
BRANCH  10  11
ATOM     11  C   UNL     1       0.882   8.652  21.180  0.00  0.00    +0.000 C 
ATOM     12  F   UNL     1       1.603   8.563  22.332  0.00  0.00    +0.000 F 
ATOM     13  F   UNL     1       0.523   9.965  21.091  0.00  0.00    +0.000 F 
ATOM     14  F   UNL     1      -0.278   7.975  21.447  0.00  0.00    +0.000 F 
ENDBRANCH  10  11
BRANCH   5  15
ATOM     15  C   UNL     1       4.127   4.478  17.496  0.00  0.00    +0.000 C 
ATOM     16  O   UNL     1       3.562   3.668  16.749  0.00  0.00    +0.000 OA
ATOM     17  N   UNL     1       5.475   4.830  17.261  0.00  0.00    +0.000 N 
BRANCH  17  18
ATOM     18  C   UNL     1       6.195   3.976  16.283  0.00  0.00    +0.000 C 
BRANCH  18  19
ATOM     19  C   UNL     1       6.247   4.502  14.850  0.00  0.00    +0.000 C 
ATOM     20  O   UNL     1       5.380   4.433  13.994  0.00  0.00    +0.000 OA
BRANCH  19  21
ATOM     21  O   UNL     1       7.386   5.176  14.586  0.00  0.00    +0.000 OA
ATOM     22  H   UNL     1       7.212   5.583  13.710  0.00  0.00    +0.000 HD
ENDBRANCH  19  21
ENDBRANCH  18  19
ENDBRANCH  17  18
BRANCH  17  23
ATOM     23  C   UNL     1       6.336   5.718  18.063  0.00  0.00    +0.000 C 
BRANCH  23  24
ATOM     24  C   UNL     1       6.815   7.034  17.452  0.00  0.00    +0.000 C 
ATOM     25  O   UNL     1       6.247   8.110  17.588  0.00  0.00    +0.000 OA
BRANCH  24  26
ATOM     26  O   UNL     1       7.920   6.887  16.692  0.00  0.00    +0.000 OA
ATOM     27  H   UNL     1       7.760   6.648  15.759  0.00  0.00    +0.000 HD
ENDBRANCH  24  26
ENDBRANCH  23  24
ENDBRANCH  17  23
ENDBRANCH   5  15
BRANCH   1  29
ATOM     28  C   UNL     1       1.993  11.327  18.299  0.00  0.00    +0.000 C 
ATOM     29  O   UNL     1       1.237  10.283  18.903  0.00  0.00    +0.000 OA
ENDBRANCH   1  29
TORSDOF 9
ENDMDL
MODEL 7
REMARK VINA RESULT:      -7.1      1.071      1.351
REMARK  Name = 
REMARK  10 active torsions:
REMARK  status: ('A' for Active; 'I' for Inactive)
REMARK    1  A    between atoms: C_1  and  O_2
REMARK    2  A    between atoms: O_2  and  C_3
REMARK    3  A    between atoms: C_7  and  C_8
REMARK    4  A    between atoms: N_10  and  C_11
REMARK    5  A    between atoms: N_10  and  C_15
REMARK    6  A    between atoms: C_11  and  C_12
REMARK    7  A    between atoms: C_12  and  O_14
REMARK    8  A    between atoms: C_15  and  C_16
REMARK    9  A    between atoms: C_16  and  O_18
REMARK   10  A    between atoms: C_23  and  C_24
REMARK                            x       y       z     vdW  Elec       q    Type
REMARK                         _______ _______ _______ _____ _____    ______ ____
ROOT
ATOM      1  C   UNL     1       1.247   9.449  19.002  0.00  0.00    +0.000 A 
ATOM      2  C   UNL     1       1.950   9.209  17.831  0.00  0.00    +0.000 A 
ATOM      3  C   UNL     1       2.707   8.050  17.692  0.00  0.00    +0.000 A 
ATOM      4  C   UNL     1       2.634   6.992  18.594  0.00  0.00    +0.000 A 
ATOM      5  C   UNL     1       3.278   5.744  18.341  0.00  0.00    +0.000 A 
ATOM      6  C   UNL     1       3.253   4.757  19.343  0.00  0.00    +0.000 A 
ATOM      7  C   UNL     1       2.591   4.973  20.549  0.00  0.00    +0.000 A 
ATOM      8  C   UNL     1       1.929   6.177  20.773  0.00  0.00    +0.000 A 
ATOM      9  C   UNL     1       1.921   7.217  19.808  0.00  0.00    +0.000 A 
ATOM     10  C   UNL     1       1.255   8.481  20.023  0.00  0.00    +0.000 A 
ENDROOT
BRANCH  10  11
ATOM     11  C   UNL     1       0.582   8.769  21.356  0.00  0.00    +0.000 C 
ATOM     12  F   UNL     1       1.332   8.567  22.475  0.00  0.00    +0.000 F 
ATOM     13  F   UNL     1       0.150  10.059  21.452  0.00  0.00    +0.000 F 
ATOM     14  F   UNL     1      -0.533   7.997  21.546  0.00  0.00    +0.000 F 
ENDBRANCH  10  11
BRANCH   5  15
ATOM     15  C   UNL     1       4.164   5.429  17.168  0.00  0.00    +0.000 C 
ATOM     16  O   UNL     1       3.820   4.426  16.529  0.00  0.00    +0.000 OA
ATOM     17  N   UNL     1       5.290   6.175  16.754  0.00  0.00    +0.000 N 
BRANCH  17  18
ATOM     18  C   UNL     1       6.144   5.524  15.729  0.00  0.00    +0.000 C 
BRANCH  18  19
ATOM     19  C   UNL     1       6.887   4.268  16.180  0.00  0.00    +0.000 C 
ATOM     20  O   UNL     1       7.885   4.197  16.878  0.00  0.00    +0.000 OA
BRANCH  19  21
ATOM     21  O   UNL     1       6.274   3.133  15.784  0.00  0.00    +0.000 OA
ATOM     22  H   UNL     1       5.720   3.425  15.029  0.00  0.00    +0.000 HD
ENDBRANCH  19  21
ENDBRANCH  18  19
ENDBRANCH  17  18
BRANCH  17  23
ATOM     23  C   UNL     1       5.892   7.350  17.408  0.00  0.00    +0.000 C 
BRANCH  23  24
ATOM     24  C   UNL     1       7.403   7.377  17.638  0.00  0.00    +0.000 C 
ATOM     25  O   UNL     1       8.193   8.040  16.978  0.00  0.00    +0.000 OA
BRANCH  24  26
ATOM     26  O   UNL     1       7.798   6.548  18.625  0.00  0.00    +0.000 OA
ATOM     27  H   UNL     1       8.577   5.995  18.423  0.00  0.00    +0.000 HD
ENDBRANCH  24  26
ENDBRANCH  23  24
ENDBRANCH  17  23
ENDBRANCH   5  15
BRANCH   1  29
ATOM     28  C   UNL     1       1.301  11.840  18.923  0.00  0.00    +0.000 C 
ATOM     29  O   UNL     1       0.610  10.636  19.239  0.00  0.00    +0.000 OA
ENDBRANCH   1  29
TORSDOF 9
ENDMDL
MODEL 8
REMARK VINA RESULT:      -7.1      1.582      3.042
REMARK  Name = 
REMARK  10 active torsions:
REMARK  status: ('A' for Active; 'I' for Inactive)
REMARK    1  A    between atoms: C_1  and  O_2
REMARK    2  A    between atoms: O_2  and  C_3
REMARK    3  A    between atoms: C_7  and  C_8
REMARK    4  A    between atoms: N_10  and  C_11
REMARK    5  A    between atoms: N_10  and  C_15
REMARK    6  A    between atoms: C_11  and  C_12
REMARK    7  A    between atoms: C_12  and  O_14
REMARK    8  A    between atoms: C_15  and  C_16
REMARK    9  A    between atoms: C_16  and  O_18
REMARK   10  A    between atoms: C_23  and  C_24
REMARK                            x       y       z     vdW  Elec       q    Type
REMARK                         _______ _______ _______ _____ _____    ______ ____
ROOT
ATOM      1  C   UNL     1       1.448   9.479  18.641  0.00  0.00    +0.000 A 
ATOM      2  C   UNL     1       2.400   9.058  17.724  0.00  0.00    +0.000 A 
ATOM      3  C   UNL     1       3.107   7.879  17.938  0.00  0.00    +0.000 A 
ATOM      4  C   UNL     1       2.766   6.967  18.934  0.00  0.00    +0.000 A 
ATOM      5  C   UNL     1       3.387   5.686  19.023  0.00  0.00    +0.000 A 
ATOM      6  C   UNL     1       3.072   4.858  20.116  0.00  0.00    +0.000 A 
ATOM      7  C   UNL     1       2.150   5.260  21.079  0.00  0.00    +0.000 A 
ATOM      8  C   UNL     1       1.516   6.494  20.963  0.00  0.00    +0.000 A 
ATOM      9  C   UNL     1       1.794   7.379  19.891  0.00  0.00    +0.000 A 
ATOM     10  C   UNL     1       1.160   8.672  19.757  0.00  0.00    +0.000 A 
ENDROOT
BRANCH  10  11
ATOM     11  C   UNL     1       0.201   9.163  20.830  0.00  0.00    +0.000 C 
ATOM     12  F   UNL     1      -0.408   8.209  21.587  0.00  0.00    +0.000 F 
ATOM     13  F   UNL     1       0.808   9.990  21.730  0.00  0.00    +0.000 F 
ATOM     14  F   UNL     1      -0.830   9.894  20.303  0.00  0.00    +0.000 F 
ENDBRANCH  10  11
BRANCH   5  15
ATOM     15  C   UNL     1       4.514   5.188  18.160  0.00  0.00    +0.000 C 
ATOM     16  O   UNL     1       5.575   5.809  18.305  0.00  0.00    +0.000 OA
ATOM     17  N   UNL     1       4.451   4.102  17.259  0.00  0.00    +0.000 N 
BRANCH  17  18
ATOM     18  C   UNL     1       5.611   3.966  16.343  0.00  0.00    +0.000 C 
BRANCH  18  19
ATOM     19  C   UNL     1       5.496   4.700  15.009  0.00  0.00    +0.000 C 
ATOM     20  O   UNL     1       5.289   4.222  13.905  0.00  0.00    +0.000 OA
BRANCH  19  21
ATOM     21  O   UNL     1       5.569   6.040  15.146  0.00  0.00    +0.000 OA
ATOM     22  H   UNL     1       5.731   6.162  16.107  0.00  0.00    +0.000 HD
ENDBRANCH  19  21
ENDBRANCH  18  19
ENDBRANCH  17  18
BRANCH  17  23
ATOM     23  C   UNL     1       3.278   3.284  16.902  0.00  0.00    +0.000 C 
BRANCH  23  24
ATOM     24  C   UNL     1       2.897   2.104  17.796  0.00  0.00    +0.000 C 
ATOM     25  O   UNL     1       3.701   1.352  18.332  0.00  0.00    +0.000 OA
BRANCH  24  26
ATOM     26  O   UNL     1       1.564   1.938  17.904  0.00  0.00    +0.000 OA
ATOM     27  H   UNL     1       1.079   1.871  17.059  0.00  0.00    +0.000 HD
ENDBRANCH  24  26
ENDBRANCH  23  24
ENDBRANCH  17  23
ENDBRANCH   5  15
BRANCH   1  29
ATOM     28  C   UNL     1       1.635  11.863  18.701  0.00  0.00    +0.000 C 
ATOM     29  O   UNL     1       0.833  10.697  18.546  0.00  0.00    +0.000 OA
ENDBRANCH   1  29
TORSDOF 9
ENDMDL
MODEL 9
REMARK VINA RESULT:      -7.1      1.610      2.841
REMARK  Name = 
REMARK  10 active torsions:
REMARK  status: ('A' for Active; 'I' for Inactive)
REMARK    1  A    between atoms: C_1  and  O_2
REMARK    2  A    between atoms: O_2  and  C_3
REMARK    3  A    between atoms: C_7  and  C_8
REMARK    4  A    between atoms: N_10  and  C_11
REMARK    5  A    between atoms: N_10  and  C_15
REMARK    6  A    between atoms: C_11  and  C_12
REMARK    7  A    between atoms: C_12  and  O_14
REMARK    8  A    between atoms: C_15  and  C_16
REMARK    9  A    between atoms: C_16  and  O_18
REMARK   10  A    between atoms: C_23  and  C_24
REMARK                            x       y       z     vdW  Elec       q    Type
REMARK                         _______ _______ _______ _____ _____    ______ ____
ROOT
ATOM      1  C   UNL     1       1.000   9.881  18.918  0.00  0.00    +0.000 A 
ATOM      2  C   UNL     1       1.841   9.593  17.852  0.00  0.00    +0.000 A 
ATOM      3  C   UNL     1       2.641   8.454  17.877  0.00  0.00    +0.000 A 
ATOM      4  C   UNL     1       2.493   7.452  18.833  0.00  0.00    +0.000 A 
ATOM      5  C   UNL     1       3.196   6.215  18.738  0.00  0.00    +0.000 A 
ATOM      6  C   UNL     1       3.083   5.292  19.794  0.00  0.00    +0.000 A 
ATOM      7  C   UNL     1       2.280   5.559  20.899  0.00  0.00    +0.000 A 
ATOM      8  C   UNL     1       1.563   6.751  20.966  0.00  0.00    +0.000 A 
ATOM      9  C   UNL     1       1.639   7.728  19.940  0.00  0.00    +0.000 A 
ATOM     10  C   UNL     1       0.917   8.979  19.994  0.00  0.00    +0.000 A 
ENDROOT
BRANCH  10  11
ATOM     11  C   UNL     1       0.086   9.325  21.220  0.00  0.00    +0.000 C 
ATOM     12  F   UNL     1       0.771   9.697  22.337  0.00  0.00    +0.000 F 
ATOM     13  F   UNL     1      -0.784  10.349  20.985  0.00  0.00    +0.000 F 
ATOM     14  F   UNL     1      -0.692   8.275  21.628  0.00  0.00    +0.000 F 
ENDBRANCH  10  11
BRANCH   5  15
ATOM     15  C   UNL     1       4.221   5.859  17.697  0.00  0.00    +0.000 C 
ATOM     16  O   UNL     1       5.133   6.689  17.580  0.00  0.00    +0.000 OA
ATOM     17  N   UNL     1       4.226   4.691  16.903  0.00  0.00    +0.000 N 
BRANCH  17  18
ATOM     18  C   UNL     1       5.196   4.689  15.779  0.00  0.00    +0.000 C 
BRANCH  18  19
ATOM     19  C   UNL     1       6.663   4.510  16.166  0.00  0.00    +0.000 C 
ATOM     20  O   UNL     1       7.652   4.827  15.524  0.00  0.00    +0.000 OA
BRANCH  19  21
ATOM     21  O   UNL     1       6.814   4.001  17.406  0.00  0.00    +0.000 OA
ATOM     22  H   UNL     1       7.091   3.074  17.240  0.00  0.00    +0.000 HD
ENDBRANCH  19  21
ENDBRANCH  18  19
ENDBRANCH  17  18
BRANCH  17  23
ATOM     23  C   UNL     1       3.211   3.624  16.849  0.00  0.00    +0.000 C 
BRANCH  23  24
ATOM     24  C   UNL     1       3.263   2.499  17.881  0.00  0.00    +0.000 C 
ATOM     25  O   UNL     1       2.283   1.906  18.313  0.00  0.00    +0.000 OA
BRANCH  24  26
ATOM     26  O   UNL     1       4.514   2.246  18.318  0.00  0.00    +0.000 OA
ATOM     27  H   UNL     1       5.062   3.034  18.502  0.00  0.00    +0.000 HD
ENDBRANCH  24  26
ENDBRANCH  23  24
ENDBRANCH  17  23
ENDBRANCH   5  15
BRANCH   1  29
ATOM     28  C   UNL     1       1.048  12.272  18.974  0.00  0.00    +0.000 C 
ATOM     29  O   UNL     1       0.307  11.056  19.001  0.00  0.00    +0.000 OA
ENDBRANCH   1  29
TORSDOF 9
ENDMDL
