MODEL 1
REMARK VINA RESULT:      -6.9      0.000      0.000
REMARK  Name = 
REMARK  12 active torsions:
REMARK  status: ('A' for Active; 'I' for Inactive)
REMARK    1  A    between atoms: C_1  and  C_2
REMARK    2  A    between atoms: C_7  and  C_8
REMARK    3  A    between atoms: C_8  and  C_9
REMARK    4  A    between atoms: C_9  and  N_10
REMARK    5  A    between atoms: C_14  and  C_15
REMARK    6  A    between atoms: C_15  and  N_16
REMARK    7  A    between atoms: N_16  and  C_17
REMARK    8  A    between atoms: N_16  and  C_18
REMARK    9  A    between atoms: C_18  and  C_19
REMARK   10  A    between atoms: C_19  and  C_20
REMARK   11  A    between atoms: C_19  and  C_21
REMARK   12  A    between atoms: C_19  and  C_22
REMARK                            x       y       z     vdW  Elec       q    Type
REMARK                         _______ _______ _______ _____ _____    ______ ____
ROOT
ATOM      1  N   UNL     1       7.753   7.590  17.620  0.00  0.00    +0.000 NA
ATOM      2  C   UNL     1       8.053   6.803  18.822  0.00  0.00    +0.000 C 
ATOM      3  C   UNL     1       7.766   5.324  18.555  0.00  0.00    +0.000 C 
ATOM      4  C   UNL     1       6.309   5.092  18.165  0.00  0.00    +0.000 C 
ATOM      5  C   UNL     1       5.859   6.028  17.028  0.00  0.00    +0.000 C 
ATOM      6  C   UNL     1       6.322   7.466  17.299  0.00  0.00    +0.000 C 
ENDROOT
BRANCH   1   7
ATOM      7  C   UNL     1       8.082   9.025  17.780  0.00  0.00    +0.000 C 
BRANCH   7   8
ATOM      8  C   UNL     1       8.901   9.331  19.044  0.00  0.00    +0.000 C 
BRANCH   8  15
ATOM      9  C   UNL     1       9.015  11.244  21.409  0.00  0.00    +0.000 C 
ATOM     10  C   UNL     1       9.610  11.583  20.068  0.00  0.00    +0.000 A 
ATOM     11  C   UNL     1      10.229  12.834  19.908  0.00  0.00    +0.000 A 
ATOM     12  C   UNL     1      10.792  13.205  18.684  0.00  0.00    +0.000 A 
ATOM     13  C   UNL     1      10.752  12.324  17.608  0.00  0.00    +0.000 A 
ATOM     14  C   UNL     1      10.144  11.081  17.755  0.00  0.00    +0.000 A 
ATOM     15  C   UNL     1       9.557  10.694  18.976  0.00  0.00    +0.000 A 
ENDBRANCH   8  15
ENDBRANCH   7   8
ENDBRANCH   1   7
BRANCH   5  16
ATOM     16  C   UNL     1       4.316   5.928  16.854  0.00  0.00    +0.000 C 
BRANCH  16  17
ATOM     17  N   UNL     1       3.456   5.697  18.032  0.00  0.00    +0.000 NA
ATOM     18  C   UNL     1       2.965   6.928  18.634  0.00  0.00    +0.000 C 
BRANCH  17  19
ATOM     19  C   UNL     1       2.461   4.631  17.825  0.00  0.00    +0.000 C 
BRANCH  19  20
ATOM     20  C   UNL     1       2.597   3.278  18.608  0.00  0.00    +0.000 C 
ATOM     21  C   UNL     1       1.267   2.507  18.707  0.00  0.00    +0.000 C 
ATOM     22  C   UNL     1       3.567   2.360  17.828  0.00  0.00    +0.000 C 
ATOM     23  C   UNL     1       3.183   3.514  20.013  0.00  0.00    +0.000 C 
ENDBRANCH  19  20
ENDBRANCH  17  19
ENDBRANCH  16  17
ENDBRANCH   5  16
TORSDOF 7
ENDMDL
MODEL 2
REMARK VINA RESULT:      -6.8      0.407      1.046
REMARK  Name = 
REMARK  12 active torsions:
REMARK  status: ('A' for Active; 'I' for Inactive)
REMARK    1  A    between atoms: C_1  and  C_2
REMARK    2  A    between atoms: C_7  and  C_8
REMARK    3  A    between atoms: C_8  and  C_9
REMARK    4  A    between atoms: C_9  and  N_10
REMARK    5  A    between atoms: C_14  and  C_15
REMARK    6  A    between atoms: C_15  and  N_16
REMARK    7  A    between atoms: N_16  and  C_17
REMARK    8  A    between atoms: N_16  and  C_18
REMARK    9  A    between atoms: C_18  and  C_19
REMARK   10  A    between atoms: C_19  and  C_20
REMARK   11  A    between atoms: C_19  and  C_21
REMARK   12  A    between atoms: C_19  and  C_22
REMARK                            x       y       z     vdW  Elec       q    Type
REMARK                         _______ _______ _______ _____ _____    ______ ____
ROOT
ATOM      1  N   UNL     1       7.732   7.720  17.584  0.00  0.00    +0.000 NA
ATOM      2  C   UNL     1       8.091   6.907  18.752  0.00  0.00    +0.000 C 
ATOM      3  C   UNL     1       7.670   5.454  18.518  0.00  0.00    +0.000 C 
ATOM      4  C   UNL     1       6.169   5.332  18.275  0.00  0.00    +0.000 C 
ATOM      5  C   UNL     1       5.679   6.306  17.187  0.00  0.00    +0.000 C 
ATOM      6  C   UNL     1       6.271   7.704  17.407  0.00  0.00    +0.000 C 
ENDROOT
BRANCH   1   7
ATOM      7  C   UNL     1       8.180   9.126  17.707  0.00  0.00    +0.000 C 
BRANCH   7   8
ATOM      8  C   UNL     1       8.879   9.433  19.041  0.00  0.00    +0.000 C 
BRANCH   8  15
ATOM      9  C   UNL     1       9.061  11.300  21.439  0.00  0.00    +0.000 C 
ATOM     10  C   UNL     1       9.692  11.628  20.112  0.00  0.00    +0.000 A 
ATOM     11  C   UNL     1      10.378  12.847  19.980  0.00  0.00    +0.000 A 
ATOM     12  C   UNL     1      10.977  13.207  18.770  0.00  0.00    +0.000 A 
ATOM     13  C   UNL     1      10.906  12.347  17.680  0.00  0.00    +0.000 A 
ATOM     14  C   UNL     1      10.231  11.135  17.798  0.00  0.00    +0.000 A 
ATOM     15  C   UNL     1       9.607  10.761  19.005  0.00  0.00    +0.000 A 
ENDBRANCH   8  15
ENDBRANCH   7   8
ENDBRANCH   1   7
BRANCH   5  16
ATOM     16  C   UNL     1       4.123   6.320  17.167  0.00  0.00    +0.000 C 
BRANCH  16  17
ATOM     17  N   UNL     1       3.367   5.740  18.297  0.00  0.00    +0.000 NA
ATOM     18  C   UNL     1       2.778   6.745  19.169  0.00  0.00    +0.000 C 
BRANCH  17  19
ATOM     19  C   UNL     1       2.488   4.628  17.896  0.00  0.00    +0.000 C 
BRANCH  19  20
ATOM     20  C   UNL     1       2.466   3.310  18.747  0.00  0.00    +0.000 C 
ATOM     21  C   UNL     1       3.564   3.275  19.827  0.00  0.00    +0.000 C 
ATOM     22  C   UNL     1       1.119   3.241  19.504  0.00  0.00    +0.000 C 
ATOM     23  C   UNL     1       2.570   2.069  17.840  0.00  0.00    +0.000 C 
ENDBRANCH  19  20
ENDBRANCH  17  19
ENDBRANCH  16  17
ENDBRANCH   5  16
TORSDOF 7
ENDMDL
MODEL 3
REMARK VINA RESULT:      -6.6      3.804      7.183
REMARK  Name = 
REMARK  12 active torsions:
REMARK  status: ('A' for Active; 'I' for Inactive)
REMARK    1  A    between atoms: C_1  and  C_2
REMARK    2  A    between atoms: C_7  and  C_8
REMARK    3  A    between atoms: C_8  and  C_9
REMARK    4  A    between atoms: C_9  and  N_10
REMARK    5  A    between atoms: C_14  and  C_15
REMARK    6  A    between atoms: C_15  and  N_16
REMARK    7  A    between atoms: N_16  and  C_17
REMARK    8  A    between atoms: N_16  and  C_18
REMARK    9  A    between atoms: C_18  and  C_19
REMARK   10  A    between atoms: C_19  and  C_20
REMARK   11  A    between atoms: C_19  and  C_21
REMARK   12  A    between atoms: C_19  and  C_22
REMARK                            x       y       z     vdW  Elec       q    Type
REMARK                         _______ _______ _______ _____ _____    ______ ____
ROOT
ATOM      1  N   UNL     1       2.562   4.810  19.632  0.00  0.00    +0.000 NA
ATOM      2  C   UNL     1       1.998   4.529  18.306  0.00  0.00    +0.000 C 
ATOM      3  C   UNL     1       2.688   3.305  17.701  0.00  0.00    +0.000 C 
ATOM      4  C   UNL     1       4.193   3.514  17.562  0.00  0.00    +0.000 C 
ATOM      5  C   UNL     1       4.832   4.003  18.875  0.00  0.00    +0.000 C 
ATOM      6  C   UNL     1       3.993   5.127  19.497  0.00  0.00    +0.000 C 
ENDROOT
BRANCH   1   7
ATOM      7  C   UNL     1       1.887   5.938  20.313  0.00  0.00    +0.000 C 
BRANCH   7   8
ATOM      8  C   UNL     1       2.292   7.316  19.767  0.00  0.00    +0.000 C 
BRANCH   8  15
ATOM      9  C   UNL     1       1.423   9.686  18.065  0.00  0.00    +0.000 C 
ATOM     10  C   UNL     1       0.980   9.515  19.494  0.00  0.00    +0.000 A 
ATOM     11  C   UNL     1       0.146  10.494  20.058  0.00  0.00    +0.000 A 
ATOM     12  C   UNL     1      -0.291  10.389  21.381  0.00  0.00    +0.000 A 
ATOM     13  C   UNL     1       0.095   9.299  22.153  0.00  0.00    +0.000 A 
ATOM     14  C   UNL     1       0.919   8.321  21.605  0.00  0.00    +0.000 A 
ATOM     15  C   UNL     1       1.383   8.416  20.278  0.00  0.00    +0.000 A 
ENDBRANCH   8  15
ENDBRANCH   7   8
ENDBRANCH   1   7
BRANCH   5  16
ATOM     16  C   UNL     1       6.300   4.443  18.604  0.00  0.00    +0.000 C 
BRANCH  16  17
ATOM     17  N   UNL     1       6.599   5.360  17.486  0.00  0.00    +0.000 NA
ATOM     18  C   UNL     1       7.295   6.567  17.905  0.00  0.00    +0.000 C 
BRANCH  17  19
ATOM     19  C   UNL     1       7.142   4.673  16.302  0.00  0.00    +0.000 C 
BRANCH  19  20
ATOM     20  C   UNL     1       6.503   4.931  14.893  0.00  0.00    +0.000 C 
ATOM     21  C   UNL     1       7.537   5.356  13.833  0.00  0.00    +0.000 C 
ATOM     22  C   UNL     1       5.891   3.604  14.385  0.00  0.00    +0.000 C 
ATOM     23  C   UNL     1       5.374   5.975  14.985  0.00  0.00    +0.000 C 
ENDBRANCH  19  20
ENDBRANCH  17  19
ENDBRANCH  16  17
ENDBRANCH   5  16
TORSDOF 7
ENDMDL
MODEL 4
REMARK VINA RESULT:      -6.6      3.432      6.434
REMARK  Name = 
REMARK  12 active torsions:
REMARK  status: ('A' for Active; 'I' for Inactive)
REMARK    1  A    between atoms: C_1  and  C_2
REMARK    2  A    between atoms: C_7  and  C_8
REMARK    3  A    between atoms: C_8  and  C_9
REMARK    4  A    between atoms: C_9  and  N_10
REMARK    5  A    between atoms: C_14  and  C_15
REMARK    6  A    between atoms: C_15  and  N_16
REMARK    7  A    between atoms: N_16  and  C_17
REMARK    8  A    between atoms: N_16  and  C_18
REMARK    9  A    between atoms: C_18  and  C_19
REMARK   10  A    between atoms: C_19  and  C_20
REMARK   11  A    between atoms: C_19  and  C_21
REMARK   12  A    between atoms: C_19  and  C_22
REMARK                            x       y       z     vdW  Elec       q    Type
REMARK                         _______ _______ _______ _____ _____    ______ ____
ROOT
ATOM      1  N   UNL     1       3.181   3.939  19.044  0.00  0.00    +0.000 NA
ATOM      2  C   UNL     1       2.485   2.983  19.914  0.00  0.00    +0.000 C 
ATOM      3  C   UNL     1       1.029   3.417  20.094  0.00  0.00    +0.000 C 
ATOM      4  C   UNL     1       0.925   4.810  20.709  0.00  0.00    +0.000 C 
ATOM      5  C   UNL     1       1.792   5.838  19.959  0.00  0.00    +0.000 C 
ATOM      6  C   UNL     1       3.188   5.265  19.681  0.00  0.00    +0.000 C 
ENDROOT
BRANCH   1   7
ATOM      7  C   UNL     1       4.579   3.540  18.762  0.00  0.00    +0.000 C 
BRANCH   7   8
ATOM      8  C   UNL     1       5.129   4.117  17.448  0.00  0.00    +0.000 C 
BRANCH   8  15
ATOM      9  C   UNL     1       5.041   6.722  15.874  0.00  0.00    +0.000 C 
ATOM     10  C   UNL     1       6.050   6.472  16.965  0.00  0.00    +0.000 A 
ATOM     11  C   UNL     1       6.987   7.478  17.253  0.00  0.00    +0.000 A 
ATOM     12  C   UNL     1       7.949   7.298  18.250  0.00  0.00    +0.000 A 
ATOM     13  C   UNL     1       7.979   6.114  18.978  0.00  0.00    +0.000 A 
ATOM     14  C   UNL     1       7.054   5.111  18.704  0.00  0.00    +0.000 A 
ATOM     15  C   UNL     1       6.086   5.266  17.692  0.00  0.00    +0.000 A 
ENDBRANCH   8  15
ENDBRANCH   7   8
ENDBRANCH   1   7
BRANCH   5  16
ATOM     16  C   UNL     1       1.849   7.161  20.775  0.00  0.00    +0.000 C 
BRANCH  16  17
ATOM     17  N   UNL     1       0.850   8.221  20.528  0.00  0.00    +0.000 NA
ATOM     18  C   UNL     1      -0.122   8.356  21.603  0.00  0.00    +0.000 C 
BRANCH  17  19
ATOM     19  C   UNL     1       1.445   9.472  20.027  0.00  0.00    +0.000 C 
BRANCH  19  20
ATOM     20  C   UNL     1       1.428   9.778  18.488  0.00  0.00    +0.000 C 
ATOM     21  C   UNL     1       2.147   8.700  17.654  0.00  0.00    +0.000 C 
ATOM     22  C   UNL     1      -0.042   9.780  18.007  0.00  0.00    +0.000 C 
ATOM     23  C   UNL     1       2.030  11.166  18.197  0.00  0.00    +0.000 C 
ENDBRANCH  19  20
ENDBRANCH  17  19
ENDBRANCH  16  17
ENDBRANCH   5  16
TORSDOF 7
ENDMDL
MODEL 5
REMARK VINA RESULT:      -6.6      3.810      7.099
REMARK  Name = 
REMARK  12 active torsions:
REMARK  status: ('A' for Active; 'I' for Inactive)
REMARK    1  A    between atoms: C_1  and  C_2
REMARK    2  A    between atoms: C_7  and  C_8
REMARK    3  A    between atoms: C_8  and  C_9
REMARK    4  A    between atoms: C_9  and  N_10
REMARK    5  A    between atoms: C_14  and  C_15
REMARK    6  A    between atoms: C_15  and  N_16
REMARK    7  A    between atoms: N_16  and  C_17
REMARK    8  A    between atoms: N_16  and  C_18
REMARK    9  A    between atoms: C_18  and  C_19
REMARK   10  A    between atoms: C_19  and  C_20
REMARK   11  A    between atoms: C_19  and  C_21
REMARK   12  A    between atoms: C_19  and  C_22
REMARK                            x       y       z     vdW  Elec       q    Type
REMARK                         _______ _______ _______ _____ _____    ______ ____
ROOT
ATOM      1  N   UNL     1       2.549   6.043  19.148  0.00  0.00    +0.000 NA
ATOM      2  C   UNL     1       1.941   5.289  18.046  0.00  0.00    +0.000 C 
ATOM      3  C   UNL     1       2.293   3.806  18.181  0.00  0.00    +0.000 C 
ATOM      4  C   UNL     1       3.802   3.578  18.161  0.00  0.00    +0.000 C 
ATOM      5  C   UNL     1       4.536   4.487  19.166  0.00  0.00    +0.000 C 
ATOM      6  C   UNL     1       4.013   5.926  19.073  0.00  0.00    +0.000 C 
ENDROOT
BRANCH   1   7
ATOM      7  C   UNL     1       2.185   7.479  19.127  0.00  0.00    +0.000 C 
BRANCH   7   8
ATOM      8  C   UNL     1       1.618   7.989  20.460  0.00  0.00    +0.000 C 
BRANCH   8  15
ATOM      9  C   UNL     1       0.105   9.330  22.737  0.00  0.00    +0.000 C 
ATOM     10  C   UNL     1       0.080   9.862  21.328  0.00  0.00    +0.000 A 
ATOM     11  C   UNL     1      -0.681  11.013  21.062  0.00  0.00    +0.000 A 
ATOM     12  C   UNL     1      -0.746  11.546  19.772  0.00  0.00    +0.000 A 
ATOM     13  C   UNL     1      -0.043  10.942  18.736  0.00  0.00    +0.000 A 
ATOM     14  C   UNL     1       0.716   9.803  18.988  0.00  0.00    +0.000 A 
ATOM     15  C   UNL     1       0.782   9.240  20.278  0.00  0.00    +0.000 A 
ENDBRANCH   8  15
ENDBRANCH   7   8
ENDBRANCH   1   7
BRANCH   5  16
ATOM     16  C   UNL     1       6.070   4.398  18.919  0.00  0.00    +0.000 C 
BRANCH  16  17
ATOM     17  N   UNL     1       6.719   5.332  17.976  0.00  0.00    +0.000 NA
ATOM     18  C   UNL     1       7.677   6.220  18.616  0.00  0.00    +0.000 C 
BRANCH  17  19
ATOM     19  C   UNL     1       7.164   4.682  16.731  0.00  0.00    +0.000 C 
BRANCH  19  20
ATOM     20  C   UNL     1       6.321   4.859  15.419  0.00  0.00    +0.000 C 
ATOM     21  C   UNL     1       5.310   6.018  15.506  0.00  0.00    +0.000 C 
ATOM     22  C   UNL     1       7.287   5.220  14.265  0.00  0.00    +0.000 C 
ATOM     23  C   UNL     1       5.600   3.549  15.049  0.00  0.00    +0.000 C 
ENDBRANCH  19  20
ENDBRANCH  17  19
ENDBRANCH  16  17
ENDBRANCH   5  16
TORSDOF 7
ENDMDL
MODEL 6
REMARK VINA RESULT:      -6.6      5.123      9.077
REMARK  Name = 
REMARK  12 active torsions:
REMARK  status: ('A' for Active; 'I' for Inactive)
REMARK    1  A    between atoms: C_1  and  C_2
REMARK    2  A    between atoms: C_7  and  C_8
REMARK    3  A    between atoms: C_8  and  C_9
REMARK    4  A    between atoms: C_9  and  N_10
REMARK    5  A    between atoms: C_14  and  C_15
REMARK    6  A    between atoms: C_15  and  N_16
REMARK    7  A    between atoms: N_16  and  C_17
REMARK    8  A    between atoms: N_16  and  C_18
REMARK    9  A    between atoms: C_18  and  C_19
REMARK   10  A    between atoms: C_19  and  C_20
REMARK   11  A    between atoms: C_19  and  C_21
REMARK   12  A    between atoms: C_19  and  C_22
REMARK                            x       y       z     vdW  Elec       q    Type
REMARK                         _______ _______ _______ _____ _____    ______ ____
ROOT
ATOM      1  N   UNL     1       1.257   8.159  20.368  0.00  0.00    +0.000 NA
ATOM      2  C   UNL     1       1.457   8.491  21.784  0.00  0.00    +0.000 C 
ATOM      3  C   UNL     1       0.144   8.997  22.385  0.00  0.00    +0.000 C 
ATOM      4  C   UNL     1      -0.372  10.235  21.656  0.00  0.00    +0.000 C 
ATOM      5  C   UNL     1      -0.425  10.027  20.131  0.00  0.00    +0.000 C 
ATOM      6  C   UNL     1       0.869   9.372  19.631  0.00  0.00    +0.000 C 
ENDROOT
BRANCH   1   7
ATOM      7  C   UNL     1       2.469   7.587  19.739  0.00  0.00    +0.000 C 
BRANCH   7   8
ATOM      8  C   UNL     1       2.312   7.318  18.235  0.00  0.00    +0.000 C 
BRANCH   8  15
ATOM      9  C   UNL     1       5.077   6.639  17.155  0.00  0.00    +0.000 C 
ATOM     10  C   UNL     1       4.013   5.593  17.364  0.00  0.00    +0.000 A 
ATOM     11  C   UNL     1       4.312   4.260  17.036  0.00  0.00    +0.000 A 
ATOM     12  C   UNL     1       3.362   3.250  17.202  0.00  0.00    +0.000 A 
ATOM     13  C   UNL     1       2.104   3.559  17.709  0.00  0.00    +0.000 A 
ATOM     14  C   UNL     1       1.797   4.875  18.041  0.00  0.00    +0.000 A 
ATOM     15  C   UNL     1       2.736   5.911  17.865  0.00  0.00    +0.000 A 
ENDBRANCH   8  15
ENDBRANCH   7   8
ENDBRANCH   1   7
BRANCH   5  16
ATOM     16  C   UNL     1      -0.707  11.388  19.432  0.00  0.00    +0.000 C 
BRANCH  16  17
ATOM     17  N   UNL     1      -2.080  11.726  19.006  0.00  0.00    +0.000 NA
ATOM     18  C   UNL     1      -2.679  12.793  19.793  0.00  0.00    +0.000 C 
BRANCH  17  19
ATOM     19  C   UNL     1      -2.223  11.835  17.544  0.00  0.00    +0.000 C 
BRANCH  19  20
ATOM     20  C   UNL     1      -3.261  10.928  16.795  0.00  0.00    +0.000 C 
ATOM     21  C   UNL     1      -2.833  10.590  15.354  0.00  0.00    +0.000 C 
ATOM     22  C   UNL     1      -3.354   9.576  17.541  0.00  0.00    +0.000 C 
ATOM     23  C   UNL     1      -4.659  11.575  16.798  0.00  0.00    +0.000 C 
ENDBRANCH  19  20
ENDBRANCH  17  19
ENDBRANCH  16  17
ENDBRANCH   5  16
TORSDOF 7
ENDMDL
MODEL 7
REMARK VINA RESULT:      -6.5      4.747      6.126
REMARK  Name = 
REMARK  12 active torsions:
REMARK  status: ('A' for Active; 'I' for Inactive)
REMARK    1  A    between atoms: C_1  and  C_2
REMARK    2  A    between atoms: C_7  and  C_8
REMARK    3  A    between atoms: C_8  and  C_9
REMARK    4  A    between atoms: C_9  and  N_10
REMARK    5  A    between atoms: C_14  and  C_15
REMARK    6  A    between atoms: C_15  and  N_16
REMARK    7  A    between atoms: N_16  and  C_17
REMARK    8  A    between atoms: N_16  and  C_18
REMARK    9  A    between atoms: C_18  and  C_19
REMARK   10  A    between atoms: C_19  and  C_20
REMARK   11  A    between atoms: C_19  and  C_21
REMARK   12  A    between atoms: C_19  and  C_22
REMARK                            x       y       z     vdW  Elec       q    Type
REMARK                         _______ _______ _______ _____ _____    ______ ____
ROOT
ATOM      1  N   UNL     1       3.786   6.856  17.001  0.00  0.00    +0.000 NA
ATOM      2  C   UNL     1       5.046   7.077  16.281  0.00  0.00    +0.000 C 
ATOM      3  C   UNL     1       5.420   5.817  15.499  0.00  0.00    +0.000 C 
ATOM      4  C   UNL     1       5.582   4.608  16.416  0.00  0.00    +0.000 C 
ATOM      5  C   UNL     1       4.370   4.425  17.349  0.00  0.00    +0.000 C 
ATOM      6  C   UNL     1       3.962   5.767  17.973  0.00  0.00    +0.000 C 
ENDROOT
BRANCH   1   7
ATOM      7  C   UNL     1       3.321   8.064  17.720  0.00  0.00    +0.000 C 
BRANCH   7   8
ATOM      8  C   UNL     1       2.193   7.784  18.726  0.00  0.00    +0.000 C 
BRANCH   8  15
ATOM      9  C   UNL     1       1.040   8.218  21.510  0.00  0.00    +0.000 C 
ATOM     10  C   UNL     1       0.938   9.256  20.424  0.00  0.00    +0.000 A 
ATOM     11  C   UNL     1       0.275  10.462  20.711  0.00  0.00    +0.000 A 
ATOM     12  C   UNL     1       0.145  11.457  19.740  0.00  0.00    +0.000 A 
ATOM     13  C   UNL     1       0.686  11.264  18.473  0.00  0.00    +0.000 A 
ATOM     14  C   UNL     1       1.347  10.076  18.178  0.00  0.00    +0.000 A 
ATOM     15  C   UNL     1       1.475   9.053  19.138  0.00  0.00    +0.000 A 
ENDBRANCH   8  15
ENDBRANCH   7   8
ENDBRANCH   1   7
BRANCH   5  16
ATOM     16  C   UNL     1       4.701   3.350  18.424  0.00  0.00    +0.000 C 
BRANCH  16  17
ATOM     17  N   UNL     1       3.640   2.445  18.911  0.00  0.00    +0.000 NA
ATOM     18  C   UNL     1       3.824   1.065  18.488  0.00  0.00    +0.000 C 
BRANCH  17  19
ATOM     19  C   UNL     1       3.306   2.653  20.330  0.00  0.00    +0.000 C 
BRANCH  19  20
ATOM     20  C   UNL     1       1.918   3.272  20.719  0.00  0.00    +0.000 C 
ATOM     21  C   UNL     1       1.987   4.790  20.973  0.00  0.00    +0.000 C 
ATOM     22  C   UNL     1       0.949   3.081  19.529  0.00  0.00    +0.000 C 
ATOM     23  C   UNL     1       1.321   2.553  21.944  0.00  0.00    +0.000 C 
ENDBRANCH  19  20
ENDBRANCH  17  19
ENDBRANCH  16  17
ENDBRANCH   5  16
TORSDOF 7
ENDMDL
MODEL 8
REMARK VINA RESULT:      -6.5      3.462      7.239
REMARK  Name = 
REMARK  12 active torsions:
REMARK  status: ('A' for Active; 'I' for Inactive)
REMARK    1  A    between atoms: C_1  and  C_2
REMARK    2  A    between atoms: C_7  and  C_8
REMARK    3  A    between atoms: C_8  and  C_9
REMARK    4  A    between atoms: C_9  and  N_10
REMARK    5  A    between atoms: C_14  and  C_15
REMARK    6  A    between atoms: C_15  and  N_16
REMARK    7  A    between atoms: N_16  and  C_17
REMARK    8  A    between atoms: N_16  and  C_18
REMARK    9  A    between atoms: C_18  and  C_19
REMARK   10  A    between atoms: C_19  and  C_20
REMARK   11  A    between atoms: C_19  and  C_21
REMARK   12  A    between atoms: C_19  and  C_22
REMARK                            x       y       z     vdW  Elec       q    Type
REMARK                         _______ _______ _______ _____ _____    ______ ____
ROOT
ATOM      1  N   UNL     1       2.275   4.498  19.757  0.00  0.00    +0.000 NA
ATOM      2  C   UNL     1       1.180   3.585  19.410  0.00  0.00    +0.000 C 
ATOM      3  C   UNL     1       1.749   2.320  18.765  0.00  0.00    +0.000 C 
ATOM      4  C   UNL     1       2.546   2.636  17.503  0.00  0.00    +0.000 C 
ATOM      5  C   UNL     1       3.595   3.738  17.743  0.00  0.00    +0.000 C 
ATOM      6  C   UNL     1       2.982   4.903  18.532  0.00  0.00    +0.000 C 
ENDROOT
BRANCH   1   7
ATOM      7  C   UNL     1       1.804   5.715  20.458  0.00  0.00    +0.000 C 
BRANCH   7   8
ATOM      8  C   UNL     1       2.271   7.023  19.801  0.00  0.00    +0.000 C 
BRANCH   8  15
ATOM      9  C   UNL     1       1.511   9.334  17.970  0.00  0.00    +0.000 C 
ATOM     10  C   UNL     1       1.100   9.283  19.418  0.00  0.00    +0.000 A 
ATOM     11  C   UNL     1       0.348  10.349  19.937  0.00  0.00    +0.000 A 
ATOM     12  C   UNL     1      -0.056  10.358  21.275  0.00  0.00    +0.000 A 
ATOM     13  C   UNL     1       0.279   9.295  22.107  0.00  0.00    +0.000 A 
ATOM     14  C   UNL     1       1.022   8.231  21.603  0.00  0.00    +0.000 A 
ATOM     15  C   UNL     1       1.452   8.211  20.261  0.00  0.00    +0.000 A 
ENDBRANCH   8  15
ENDBRANCH   7   8
ENDBRANCH   1   7
BRANCH   5  16
ATOM     16  C   UNL     1       4.188   4.195  16.379  0.00  0.00    +0.000 C 
BRANCH  16  17
ATOM     17  N   UNL     1       5.648   4.359  16.230  0.00  0.00    +0.000 NA
ATOM     18  C   UNL     1       6.224   3.481  15.222  0.00  0.00    +0.000 C 
BRANCH  17  19
ATOM     19  C   UNL     1       6.072   5.769  16.185  0.00  0.00    +0.000 C 
BRANCH  19  20
ATOM     20  C   UNL     1       6.339   6.543  17.523  0.00  0.00    +0.000 C 
ATOM     21  C   UNL     1       6.628   5.606  18.711  0.00  0.00    +0.000 C 
ATOM     22  C   UNL     1       7.610   7.407  17.341  0.00  0.00    +0.000 C 
ATOM     23  C   UNL     1       5.165   7.482  17.858  0.00  0.00    +0.000 C 
ENDBRANCH  19  20
ENDBRANCH  17  19
ENDBRANCH  16  17
ENDBRANCH   5  16
TORSDOF 7
ENDMDL
MODEL 9
REMARK VINA RESULT:      -6.5      0.962      1.432
REMARK  Name = 
REMARK  12 active torsions:
REMARK  status: ('A' for Active; 'I' for Inactive)
REMARK    1  A    between atoms: C_1  and  C_2
REMARK    2  A    between atoms: C_7  and  C_8
REMARK    3  A    between atoms: C_8  and  C_9
REMARK    4  A    between atoms: C_9  and  N_10
REMARK    5  A    between atoms: C_14  and  C_15
REMARK    6  A    between atoms: C_15  and  N_16
REMARK    7  A    between atoms: N_16  and  C_17
REMARK    8  A    between atoms: N_16  and  C_18
REMARK    9  A    between atoms: C_18  and  C_19
REMARK   10  A    between atoms: C_19  and  C_20
REMARK   11  A    between atoms: C_19  and  C_21
REMARK   12  A    between atoms: C_19  and  C_22
REMARK                            x       y       z     vdW  Elec       q    Type
REMARK                         _______ _______ _______ _____ _____    ______ ____
ROOT
ATOM      1  N   UNL     1       7.857   7.182  17.974  0.00  0.00    +0.000 NA
ATOM      2  C   UNL     1       8.057   5.968  18.774  0.00  0.00    +0.000 C 
ATOM      3  C   UNL     1       7.541   4.751  18.004  0.00  0.00    +0.000 C 
ATOM      4  C   UNL     1       6.058   4.882  17.668  0.00  0.00    +0.000 C 
ATOM      5  C   UNL     1       5.735   6.228  16.994  0.00  0.00    +0.000 C 
ATOM      6  C   UNL     1       6.419   7.382  17.740  0.00  0.00    +0.000 C 
ENDROOT
BRANCH   1   7
ATOM      7  C   UNL     1       8.406   8.393  18.626  0.00  0.00    +0.000 C 
BRANCH   7   8
ATOM      8  C   UNL     1       8.215   9.675  17.801  0.00  0.00    +0.000 C 
BRANCH   8  15
ATOM      9  C   UNL     1       7.686  12.574  17.037  0.00  0.00    +0.000 C 
ATOM     10  C   UNL     1       8.753  12.183  18.026  0.00  0.00    +0.000 A 
ATOM     11  C   UNL     1       9.534  13.197  18.603  0.00  0.00    +0.000 A 
ATOM     12  C   UNL     1      10.542  12.891  19.522  0.00  0.00    +0.000 A 
ATOM     13  C   UNL     1      10.773  11.567  19.881  0.00  0.00    +0.000 A 
ATOM     14  C   UNL     1      10.003  10.554  19.318  0.00  0.00    +0.000 A 
ATOM     15  C   UNL     1       8.993  10.840  18.378  0.00  0.00    +0.000 A 
ENDBRANCH   8  15
ENDBRANCH   7   8
ENDBRANCH   1   7
BRANCH   5  16
ATOM     16  C   UNL     1       4.192   6.410  16.913  0.00  0.00    +0.000 C 
BRANCH  16  17
ATOM     17  N   UNL     1       3.346   6.043  18.067  0.00  0.00    +0.000 NA
ATOM     18  C   UNL     1       2.794   7.196  18.762  0.00  0.00    +0.000 C 
BRANCH  17  19
ATOM     19  C   UNL     1       2.406   4.948  17.772  0.00  0.00    +0.000 C 
BRANCH  19  20
ATOM     20  C   UNL     1       2.505   3.603  18.574  0.00  0.00    +0.000 C 
ATOM     21  C   UNL     1       1.130   2.965  18.850  0.00  0.00    +0.000 C 
ATOM     22  C   UNL     1       3.286   2.580  17.715  0.00  0.00    +0.000 C 
ATOM     23  C   UNL     1       3.273   3.806  19.894  0.00  0.00    +0.000 C 
ENDBRANCH  19  20
ENDBRANCH  17  19
ENDBRANCH  16  17
ENDBRANCH   5  16
TORSDOF 7
ENDMDL
