MODEL 1
REMARK VINA RESULT:      -8.0      0.000      0.000
REMARK  Name = 
REMARK  9 active torsions:
REMARK  status: ('A' for Active; 'I' for Inactive)
REMARK    1  A    between atoms: C_1  and  O_2
REMARK    2  A    between atoms: O_2  and  C_3
REMARK    3  A    between atoms: C_6  and  O_7
REMARK    4  A    between atoms: O_7  and  C_8
REMARK    5  A    between atoms: C_9  and  C_10
REMARK    6  A    between atoms: C_10  and  C_11
REMARK    7  A    between atoms: C_11  and  N_12
REMARK    8  A    between atoms: C_13  and  C_15
REMARK    9  A    between atoms: C_19  and  N_20
REMARK                            x       y       z     vdW  Elec       q    Type
REMARK                         _______ _______ _______ _____ _____    ______ ____
ROOT
ATOM      1  C   UNL     1       0.351  10.854  19.355  0.00  0.00    +0.000 A 
ATOM      2  C   UNL     1       1.164  11.939  19.012  0.00  0.00    +0.000 A 
ATOM      3  C   UNL     1       0.581  13.147  18.617  0.00  0.00    +0.000 A 
ATOM      4  C   UNL     1      -0.811  13.268  18.531  0.00  0.00    +0.000 A 
ATOM      5  C   UNL     1      -1.645  12.187  18.841  0.00  0.00    +0.000 A 
ATOM      6  C   UNL     1      -1.040  11.003  19.294  0.00  0.00    +0.000 A 
ENDROOT
BRANCH   5   7
ATOM      7  N   UNL     1      -3.038  12.295  18.634  0.00  0.00    +0.000 N 
ATOM      8  C   UNL     1      -3.951  12.396  19.643  0.00  0.00    +0.000 C 
ATOM      9  N   UNL     1      -3.749  12.721  20.883  0.00  0.00    +0.000 NA
ATOM     10  C   UNL     1      -4.989  12.508  21.617  0.00  0.00    +0.000 C 
ATOM     11  C   UNL     1      -5.126  13.300  22.900  0.00  0.00    +0.000 C 
ATOM     12  S   UNL     1      -6.914  13.441  23.081  0.00  0.00    +0.000 S 
ATOM     13  O   UNL     1      -7.350  12.628  24.200  0.00  0.00    +0.000 OA
ATOM     14  O   UNL     1      -7.279  14.835  22.952  0.00  0.00    +0.000 OA
ATOM     15  C   UNL     1      -7.359  12.602  21.544  0.00  0.00    +0.000 C 
ATOM     16  C   UNL     1      -6.141  12.917  20.711  0.00  0.00    +0.000 C 
ATOM     17  S   UNL     1      -5.646  12.047  19.213  0.00  0.00    +0.000 S 
ATOM     18  H   UNL     1      -3.385  11.891  17.776  0.00  0.00    +0.000 HD
ENDBRANCH   5   7
BRANCH   1  20
ATOM     19  N   UNL     1       1.677   8.835  18.913  0.00  0.00    +0.000 N 
ATOM     20  C   UNL     1       0.888   9.533  19.807  0.00  0.00    +0.000 C 
ATOM     21  O   UNL     1       0.608   9.101  20.920  0.00  0.00    +0.000 OA
ATOM     22  H   UNL     1       1.734   9.131  17.950  0.00  0.00    +0.000 HD
BRANCH  19  23
ATOM     23  C   UNL     1       2.285   7.557  19.268  0.00  0.00    +0.000 C 
BRANCH  23  24
ATOM     24  C   UNL     1       2.859   6.818  18.055  0.00  0.00    +0.000 C 
BRANCH  24  29
ATOM     25  C   UNL     1       1.902   3.326  19.262  0.00  0.00    +0.000 A 
ATOM     26  C   UNL     1       2.735   2.519  18.494  0.00  0.00    +0.000 A 
ATOM     27  C   UNL     1       3.635   3.084  17.591  0.00  0.00    +0.000 A 
ATOM     28  C   UNL     1       3.720   4.473  17.445  0.00  0.00    +0.000 A 
ATOM     29  C   UNL     1       2.868   5.303  18.196  0.00  0.00    +0.000 A 
ATOM     30  C   UNL     1       1.965   4.711  19.107  0.00  0.00    +0.000 A 
BRANCH  25  32
ATOM     31  C   UNL     1       1.448   2.638  21.488  0.00  0.00    +0.000 C 
ATOM     32  O   UNL     1       1.080   2.643  20.115  0.00  0.00    +0.000 OA
ENDBRANCH  25  32
BRANCH  28  33
ATOM     33  O   UNL     1       4.575   5.082  16.563  0.00  0.00    +0.000 OA
ATOM     34  C   UNL     1       5.494   4.214  15.902  0.00  0.00    +0.000 C 
ENDBRANCH  28  33
ENDBRANCH  24  29
ENDBRANCH  23  24
ENDBRANCH  19  23
ENDBRANCH   1  20
TORSDOF 7
ENDMDL
MODEL 2
REMARK VINA RESULT:      -8.0      4.945      6.433
REMARK  Name = 
REMARK  9 active torsions:
REMARK  status: ('A' for Active; 'I' for Inactive)
REMARK    1  A    between atoms: C_1  and  O_2
REMARK    2  A    between atoms: O_2  and  C_3
REMARK    3  A    between atoms: C_6  and  O_7
REMARK    4  A    between atoms: O_7  and  C_8
REMARK    5  A    between atoms: C_9  and  C_10
REMARK    6  A    between atoms: C_10  and  C_11
REMARK    7  A    between atoms: C_11  and  N_12
REMARK    8  A    between atoms: C_13  and  C_15
REMARK    9  A    between atoms: C_19  and  N_20
REMARK                            x       y       z     vdW  Elec       q    Type
REMARK                         _______ _______ _______ _____ _____    ______ ____
ROOT
ATOM      1  C   UNL     1       1.763   8.322  19.410  0.00  0.00    +0.000 A 
ATOM      2  C   UNL     1       1.650   8.183  20.797  0.00  0.00    +0.000 A 
ATOM      3  C   UNL     1       1.021   9.183  21.546  0.00  0.00    +0.000 A 
ATOM      4  C   UNL     1       0.533  10.338  20.922  0.00  0.00    +0.000 A 
ATOM      5  C   UNL     1       0.662  10.512  19.538  0.00  0.00    +0.000 A 
ATOM      6  C   UNL     1       1.242   9.469  18.797  0.00  0.00    +0.000 A 
ENDROOT
BRANCH   5   7
ATOM      7  N   UNL     1       0.271  11.734  18.948  0.00  0.00    +0.000 N 
ATOM      8  C   UNL     1       0.894  12.925  19.183  0.00  0.00    +0.000 C 
ATOM      9  N   UNL     1       2.074  13.132  19.683  0.00  0.00    +0.000 NA
ATOM     10  C   UNL     1       2.225  14.562  19.915  0.00  0.00    +0.000 C 
ATOM     11  C   UNL     1       3.653  15.061  19.981  0.00  0.00    +0.000 C 
ATOM     12  S   UNL     1       3.489  16.782  19.475  0.00  0.00    +0.000 S 
ATOM     13  O   UNL     1       3.731  17.645  20.615  0.00  0.00    +0.000 OA
ATOM     14  O   UNL     1       4.177  16.957  18.215  0.00  0.00    +0.000 OA
ATOM     15  C   UNL     1       1.713  16.746  19.140  0.00  0.00    +0.000 C 
ATOM     16  C   UNL     1       1.547  15.294  18.766  0.00  0.00    +0.000 C 
ATOM     17  S   UNL     1      -0.014  14.394  18.739  0.00  0.00    +0.000 S 
ATOM     18  H   UNL     1      -0.702  11.801  18.683  0.00  0.00    +0.000 HD
ENDBRANCH   5   7
BRANCH   1  20
ATOM     19  N   UNL     1       2.151   5.969  18.822  0.00  0.00    +0.000 N 
ATOM     20  C   UNL     1       2.402   7.295  18.529  0.00  0.00    +0.000 C 
ATOM     21  O   UNL     1       3.132   7.642  17.606  0.00  0.00    +0.000 OA
ATOM     22  H   UNL     1       1.701   5.720  19.690  0.00  0.00    +0.000 HD
BRANCH  19  23
ATOM     23  C   UNL     1       2.689   4.891  18.001  0.00  0.00    +0.000 C 
BRANCH  23  24
ATOM     24  C   UNL     1       4.075   4.430  18.464  0.00  0.00    +0.000 C 
BRANCH  24  29
ATOM     25  C   UNL     1       5.638   4.370  14.983  0.00  0.00    +0.000 A 
ATOM     26  C   UNL     1       6.985   4.560  15.270  0.00  0.00    +0.000 A 
ATOM     27  C   UNL     1       7.418   4.688  16.590  0.00  0.00    +0.000 A 
ATOM     28  C   UNL     1       6.506   4.623  17.648  0.00  0.00    +0.000 A 
ATOM     29  C   UNL     1       5.136   4.455  17.375  0.00  0.00    +0.000 A 
ATOM     30  C   UNL     1       4.718   4.325  16.031  0.00  0.00    +0.000 A 
BRANCH  25  32
ATOM     31  C   UNL     1       6.295   3.529  12.863  0.00  0.00    +0.000 C 
ATOM     32  O   UNL     1       5.355   4.246  13.651  0.00  0.00    +0.000 OA
ENDBRANCH  25  32
BRANCH  28  33
ATOM     33  O   UNL     1       6.873   4.757  18.962  0.00  0.00    +0.000 OA
ATOM     34  C   UNL     1       7.823   5.786  19.231  0.00  0.00    +0.000 C 
ENDBRANCH  28  33
ENDBRANCH  24  29
ENDBRANCH  23  24
ENDBRANCH  19  23
ENDBRANCH   1  20
TORSDOF 7
ENDMDL
MODEL 3
REMARK VINA RESULT:      -7.9      2.722      4.542
REMARK  Name = 
REMARK  9 active torsions:
REMARK  status: ('A' for Active; 'I' for Inactive)
REMARK    1  A    between atoms: C_1  and  O_2
REMARK    2  A    between atoms: O_2  and  C_3
REMARK    3  A    between atoms: C_6  and  O_7
REMARK    4  A    between atoms: O_7  and  C_8
REMARK    5  A    between atoms: C_9  and  C_10
REMARK    6  A    between atoms: C_10  and  C_11
REMARK    7  A    between atoms: C_11  and  N_12
REMARK    8  A    between atoms: C_13  and  C_15
REMARK    9  A    between atoms: C_19  and  N_20
REMARK                            x       y       z     vdW  Elec       q    Type
REMARK                         _______ _______ _______ _____ _____    ______ ____
ROOT
ATOM      1  C   UNL     1       2.031   7.741  19.406  0.00  0.00    +0.000 A 
ATOM      2  C   UNL     1       2.563   8.146  18.178  0.00  0.00    +0.000 A 
ATOM      3  C   UNL     1       2.292   9.429  17.693  0.00  0.00    +0.000 A 
ATOM      4  C   UNL     1       1.465  10.300  18.412  0.00  0.00    +0.000 A 
ATOM      5  C   UNL     1       0.896   9.906  19.630  0.00  0.00    +0.000 A 
ATOM      6  C   UNL     1       1.231   8.636  20.128  0.00  0.00    +0.000 A 
ENDROOT
BRANCH   5   7
ATOM      7  N   UNL     1      -0.027  10.755  20.277  0.00  0.00    +0.000 N 
ATOM      8  C   UNL     1      -1.223  11.132  19.735  0.00  0.00    +0.000 C 
ATOM      9  N   UNL     1      -1.869  10.585  18.752  0.00  0.00    +0.000 NA
ATOM     10  C   UNL     1      -2.994  11.445  18.413  0.00  0.00    +0.000 C 
ATOM     11  C   UNL     1      -4.138  10.762  17.693  0.00  0.00    +0.000 C 
ATOM     12  S   UNL     1      -5.549  11.789  18.141  0.00  0.00    +0.000 S 
ATOM     13  O   UNL     1      -5.999  12.525  16.976  0.00  0.00    +0.000 OA
ATOM     14  O   UNL     1      -6.451  11.000  18.951  0.00  0.00    +0.000 OA
ATOM     15  C   UNL     1      -4.661  12.920  19.236  0.00  0.00    +0.000 C 
ATOM     16  C   UNL     1      -3.554  12.011  19.709  0.00  0.00    +0.000 C 
ATOM     17  S   UNL     1      -2.013  12.550  20.472  0.00  0.00    +0.000 S 
ATOM     18  H   UNL     1       0.366  11.402  20.945  0.00  0.00    +0.000 HD
ENDBRANCH   5   7
BRANCH   1  20
ATOM     19  N   UNL     1       3.460   5.760  19.663  0.00  0.00    +0.000 N 
ATOM     20  C   UNL     1       2.284   6.396  20.010  0.00  0.00    +0.000 C 
ATOM     21  O   UNL     1       1.456   5.891  20.761  0.00  0.00    +0.000 OA
ATOM     22  H   UNL     1       4.024   6.119  18.907  0.00  0.00    +0.000 HD
BRANCH  19  23
ATOM     23  C   UNL     1       3.823   4.466  20.228  0.00  0.00    +0.000 C 
BRANCH  23  24
ATOM     24  C   UNL     1       5.051   3.848  19.551  0.00  0.00    +0.000 C 
BRANCH  24  29
ATOM     25  C   UNL     1       6.700   5.960  16.834  0.00  0.00    +0.000 A 
ATOM     26  C   UNL     1       6.064   5.499  15.687  0.00  0.00    +0.000 A 
ATOM     27  C   UNL     1       5.077   4.516  15.768  0.00  0.00    +0.000 A 
ATOM     28  C   UNL     1       4.706   3.981  17.006  0.00  0.00    +0.000 A 
ATOM     29  C   UNL     1       5.356   4.419  18.175  0.00  0.00    +0.000 A 
ATOM     30  C   UNL     1       6.351   5.416  18.070  0.00  0.00    +0.000 A 
BRANCH  25  32
ATOM     31  C   UNL     1       7.643   8.029  17.515  0.00  0.00    +0.000 C 
ATOM     32  O   UNL     1       7.635   6.932  16.611  0.00  0.00    +0.000 OA
ENDBRANCH  25  32
BRANCH  28  33
ATOM     33  O   UNL     1       3.754   3.004  17.144  0.00  0.00    +0.000 OA
ATOM     34  C   UNL     1       2.402   3.452  17.082  0.00  0.00    +0.000 C 
ENDBRANCH  28  33
ENDBRANCH  24  29
ENDBRANCH  23  24
ENDBRANCH  19  23
ENDBRANCH   1  20
TORSDOF 7
ENDMDL
MODEL 4
REMARK VINA RESULT:      -7.8      2.672      4.597
REMARK  Name = 
REMARK  9 active torsions:
REMARK  status: ('A' for Active; 'I' for Inactive)
REMARK    1  A    between atoms: C_1  and  O_2
REMARK    2  A    between atoms: O_2  and  C_3
REMARK    3  A    between atoms: C_6  and  O_7
REMARK    4  A    between atoms: O_7  and  C_8
REMARK    5  A    between atoms: C_9  and  C_10
REMARK    6  A    between atoms: C_10  and  C_11
REMARK    7  A    between atoms: C_11  and  N_12
REMARK    8  A    between atoms: C_13  and  C_15
REMARK    9  A    between atoms: C_19  and  N_20
REMARK                            x       y       z     vdW  Elec       q    Type
REMARK                         _______ _______ _______ _____ _____    ______ ____
ROOT
ATOM      1  C   UNL     1       2.045   7.648  19.192  0.00  0.00    +0.000 A 
ATOM      2  C   UNL     1       2.627   8.148  18.024  0.00  0.00    +0.000 A 
ATOM      3  C   UNL     1       2.417   9.482  17.659  0.00  0.00    +0.000 A 
ATOM      4  C   UNL     1       1.602  10.311  18.439  0.00  0.00    +0.000 A 
ATOM      5  C   UNL     1       0.985   9.824  19.599  0.00  0.00    +0.000 A 
ATOM      6  C   UNL     1       1.259   8.500  19.978  0.00  0.00    +0.000 A 
ENDROOT
BRANCH   5   7
ATOM      7  N   UNL     1       0.074  10.642  20.302  0.00  0.00    +0.000 N 
ATOM      8  C   UNL     1      -1.114  11.075  19.788  0.00  0.00    +0.000 C 
ATOM      9  N   UNL     1      -1.767  10.608  18.769  0.00  0.00    +0.000 NA
ATOM     10  C   UNL     1      -2.878  11.509  18.490  0.00  0.00    +0.000 C 
ATOM     11  C   UNL     1      -4.032  10.897  17.724  0.00  0.00    +0.000 C 
ATOM     12  S   UNL     1      -5.426  11.914  18.242  0.00  0.00    +0.000 S 
ATOM     13  O   UNL     1      -5.862  12.736  17.130  0.00  0.00    +0.000 OA
ATOM     14  O   UNL     1      -6.342  11.086  18.994  0.00  0.00    +0.000 OA
ATOM     15  C   UNL     1      -4.520  12.951  19.412  0.00  0.00    +0.000 C 
ATOM     16  C   UNL     1      -3.430  11.993  19.822  0.00  0.00    +0.000 C 
ATOM     17  S   UNL     1      -1.881  12.452  20.620  0.00  0.00    +0.000 S 
ATOM     18  H   UNL     1       0.478  11.234  21.014  0.00  0.00    +0.000 HD
ENDBRANCH   5   7
BRANCH   1  20
ATOM     19  N   UNL     1       2.760   5.337  18.768  0.00  0.00    +0.000 N 
ATOM     20  C   UNL     1       2.232   6.241  19.668  0.00  0.00    +0.000 C 
ATOM     21  O   UNL     1       1.901   5.926  20.806  0.00  0.00    +0.000 OA
ATOM     22  H   UNL     1       2.847   5.585  17.794  0.00  0.00    +0.000 HD
BRANCH  19  23
ATOM     23  C   UNL     1       3.022   3.952  19.143  0.00  0.00    +0.000 C 
BRANCH  23  24
ATOM     24  C   UNL     1       4.519   3.636  19.233  0.00  0.00    +0.000 C 
BRANCH  24  29
ATOM     25  C   UNL     1       5.564   4.286  15.621  0.00  0.00    +0.000 A 
ATOM     26  C   UNL     1       6.703   5.065  15.788  0.00  0.00    +0.000 A 
ATOM     27  C   UNL     1       7.169   5.378  17.065  0.00  0.00    +0.000 A 
ATOM     28  C   UNL     1       6.501   4.908  18.201  0.00  0.00    +0.000 A 
ATOM     29  C   UNL     1       5.333   4.138  18.051  0.00  0.00    +0.000 A 
ATOM     30  C   UNL     1       4.880   3.831  16.748  0.00  0.00    +0.000 A 
BRANCH  25  32
ATOM     31  C   UNL     1       6.301   3.943  13.391  0.00  0.00    +0.000 C 
ATOM     32  O   UNL     1       5.228   4.045  14.318  0.00  0.00    +0.000 OA
ENDBRANCH  25  32
BRANCH  28  33
ATOM     33  O   UNL     1       6.905   5.196  19.479  0.00  0.00    +0.000 OA
ATOM     34  C   UNL     1       8.135   5.909  19.588  0.00  0.00    +0.000 C 
ENDBRANCH  28  33
ENDBRANCH  24  29
ENDBRANCH  23  24
ENDBRANCH  19  23
ENDBRANCH   1  20
TORSDOF 7
ENDMDL
MODEL 5
REMARK VINA RESULT:      -7.7      7.051     10.751
REMARK  Name = 
REMARK  9 active torsions:
REMARK  status: ('A' for Active; 'I' for Inactive)
REMARK    1  A    between atoms: C_1  and  O_2
REMARK    2  A    between atoms: O_2  and  C_3
REMARK    3  A    between atoms: C_6  and  O_7
REMARK    4  A    between atoms: O_7  and  C_8
REMARK    5  A    between atoms: C_9  and  C_10
REMARK    6  A    between atoms: C_10  and  C_11
REMARK    7  A    between atoms: C_11  and  N_12
REMARK    8  A    between atoms: C_13  and  C_15
REMARK    9  A    between atoms: C_19  and  N_20
REMARK                            x       y       z     vdW  Elec       q    Type
REMARK                         _______ _______ _______ _____ _____    ______ ____
ROOT
ATOM      1  C   UNL     1       6.408   5.270  17.804  0.00  0.00    +0.000 A 
ATOM      2  C   UNL     1       7.269   4.809  18.805  0.00  0.00    +0.000 A 
ATOM      3  C   UNL     1       8.228   5.670  19.347  0.00  0.00    +0.000 A 
ATOM      4  C   UNL     1       8.354   6.981  18.874  0.00  0.00    +0.000 A 
ATOM      5  C   UNL     1       7.522   7.457  17.851  0.00  0.00    +0.000 A 
ATOM      6  C   UNL     1       6.526   6.594  17.364  0.00  0.00    +0.000 A 
ENDROOT
BRANCH   5   7
ATOM      7  N   UNL     1       7.745   8.741  17.309  0.00  0.00    +0.000 N 
ATOM      8  C   UNL     1       8.278   9.782  18.013  0.00  0.00    +0.000 C 
ATOM      9  N   UNL     1       8.946   9.743  19.125  0.00  0.00    +0.000 NA
ATOM     10  C   UNL     1       9.142  11.112  19.585  0.00  0.00    +0.000 C 
ATOM     11  C   UNL     1      10.307  11.317  20.530  0.00  0.00    +0.000 C 
ATOM     12  S   UNL     1      10.735  13.045  20.251  0.00  0.00    +0.000 S 
ATOM     13  O   UNL     1      10.380  13.824  21.421  0.00  0.00    +0.000 OA
ATOM     14  O   UNL     1      12.054  13.100  19.658  0.00  0.00    +0.000 OA
ATOM     15  C   UNL     1       9.524  13.365  18.949  0.00  0.00    +0.000 C 
ATOM     16  C   UNL     1       9.397  11.980  18.363  0.00  0.00    +0.000 C 
ATOM     17  S   UNL     1       8.043  11.407  17.321  0.00  0.00    +0.000 S 
ATOM     18  H   UNL     1       7.143   9.003  16.541  0.00  0.00    +0.000 HD
ENDBRANCH   5   7
BRANCH   1  20
ATOM     19  N   UNL     1       4.579   3.647  18.030  0.00  0.00    +0.000 N 
ATOM     20  C   UNL     1       5.342   4.425  17.181  0.00  0.00    +0.000 C 
ATOM     21  O   UNL     1       5.187   4.425  15.965  0.00  0.00    +0.000 OA
ATOM     22  H   UNL     1       4.852   3.533  18.994  0.00  0.00    +0.000 HD
BRANCH  19  23
ATOM     23  C   UNL     1       3.485   2.820  17.530  0.00  0.00    +0.000 C 
BRANCH  23  24
ATOM     24  C   UNL     1       2.126   3.522  17.615  0.00  0.00    +0.000 C 
BRANCH  24  29
ATOM     25  C   UNL     1       2.451   7.195  18.596  0.00  0.00    +0.000 A 
ATOM     26  C   UNL     1       2.087   7.167  19.937  0.00  0.00    +0.000 A 
ATOM     27  C   UNL     1       1.752   5.963  20.557  0.00  0.00    +0.000 A 
ATOM     28  C   UNL     1       1.781   4.762  19.841  0.00  0.00    +0.000 A 
ATOM     29  C   UNL     1       2.125   4.775  18.476  0.00  0.00    +0.000 A 
ATOM     30  C   UNL     1       2.463   6.005  17.869  0.00  0.00    +0.000 A 
BRANCH  25  32
ATOM     31  C   UNL     1       1.762   9.436  18.224  0.00  0.00    +0.000 C 
ATOM     32  O   UNL     1       2.768   8.438  18.121  0.00  0.00    +0.000 OA
ENDBRANCH  25  32
BRANCH  28  33
ATOM     33  O   UNL     1       1.448   3.553  20.394  0.00  0.00    +0.000 OA
ATOM     34  C   UNL     1       2.309   3.096  21.436  0.00  0.00    +0.000 C 
ENDBRANCH  28  33
ENDBRANCH  24  29
ENDBRANCH  23  24
ENDBRANCH  19  23
ENDBRANCH   1  20
TORSDOF 7
ENDMDL
MODEL 6
REMARK VINA RESULT:      -7.7      4.351     11.443
REMARK  Name = 
REMARK  9 active torsions:
REMARK  status: ('A' for Active; 'I' for Inactive)
REMARK    1  A    between atoms: C_1  and  O_2
REMARK    2  A    between atoms: O_2  and  C_3
REMARK    3  A    between atoms: C_6  and  O_7
REMARK    4  A    between atoms: O_7  and  C_8
REMARK    5  A    between atoms: C_9  and  C_10
REMARK    6  A    between atoms: C_10  and  C_11
REMARK    7  A    between atoms: C_11  and  N_12
REMARK    8  A    between atoms: C_13  and  C_15
REMARK    9  A    between atoms: C_19  and  N_20
REMARK                            x       y       z     vdW  Elec       q    Type
REMARK                         _______ _______ _______ _____ _____    ______ ____
ROOT
ATOM      1  C   UNL     1       0.576   9.016  20.549  0.00  0.00    +0.000 A 
ATOM      2  C   UNL     1       0.553   9.799  19.391  0.00  0.00    +0.000 A 
ATOM      3  C   UNL     1       1.348   9.445  18.296  0.00  0.00    +0.000 A 
ATOM      4  C   UNL     1       2.191   8.330  18.362  0.00  0.00    +0.000 A 
ATOM      5  C   UNL     1       2.253   7.546  19.522  0.00  0.00    +0.000 A 
ATOM      6  C   UNL     1       1.402   7.885  20.587  0.00  0.00    +0.000 A 
ENDROOT
BRANCH   5   7
ATOM      7  N   UNL     1       3.196   6.499  19.609  0.00  0.00    +0.000 N 
ATOM      8  C   UNL     1       3.838   5.963  18.529  0.00  0.00    +0.000 C 
ATOM      9  N   UNL     1       3.969   6.464  17.340  0.00  0.00    +0.000 NA
ATOM     10  C   UNL     1       4.565   5.449  16.482  0.00  0.00    +0.000 C 
ATOM     11  C   UNL     1       5.274   5.975  15.252  0.00  0.00    +0.000 C 
ATOM     12  S   UNL     1       6.485   4.684  14.918  0.00  0.00    +0.000 S 
ATOM     13  O   UNL     1       6.113   3.975  13.708  0.00  0.00    +0.000 OA
ATOM     14  O   UNL     1       7.808   5.235  15.113  0.00  0.00    +0.000 OA
ATOM     15  C   UNL     1       6.098   3.644  16.344  0.00  0.00    +0.000 C 
ATOM     16  C   UNL     1       5.597   4.692  17.305  0.00  0.00    +0.000 C 
ATOM     17  S   UNL     1       4.607   4.374  18.776  0.00  0.00    +0.000 S 
ATOM     18  H   UNL     1       3.092   5.880  20.400  0.00  0.00    +0.000 HD
ENDBRANCH   5   7
BRANCH   1  20
ATOM     19  N   UNL     1      -0.407  10.635  22.112  0.00  0.00    +0.000 N 
ATOM     20  C   UNL     1      -0.254   9.309  21.759  0.00  0.00    +0.000 C 
ATOM     21  O   UNL     1      -0.749   8.391  22.404  0.00  0.00    +0.000 OA
ATOM     22  H   UNL     1       0.160  11.344  21.671  0.00  0.00    +0.000 HD
BRANCH  19  23
ATOM     23  C   UNL     1      -1.231  11.033  23.248  0.00  0.00    +0.000 C 
BRANCH  23  24
ATOM     24  C   UNL     1      -1.701  12.488  23.157  0.00  0.00    +0.000 C 
BRANCH  24  29
ATOM     25  C   UNL     1      -5.464  13.049  22.855  0.00  0.00    +0.000 A 
ATOM     26  C   UNL     1      -5.641  13.067  21.476  0.00  0.00    +0.000 A 
ATOM     27  C   UNL     1      -4.557  12.877  20.618  0.00  0.00    +0.000 A 
ATOM     28  C   UNL     1      -3.274  12.660  21.130  0.00  0.00    +0.000 A 
ATOM     29  C   UNL     1      -3.072  12.662  22.523  0.00  0.00    +0.000 A 
ATOM     30  C   UNL     1      -4.183  12.854  23.374  0.00  0.00    +0.000 A 
BRANCH  25  32
ATOM     31  C   UNL     1      -7.639  12.269  23.399  0.00  0.00    +0.000 C 
ATOM     32  O   UNL     1      -6.610  13.234  23.576  0.00  0.00    +0.000 OA
ENDBRANCH  25  32
BRANCH  28  33
ATOM     33  O   UNL     1      -2.171  12.482  20.335  0.00  0.00    +0.000 OA
ATOM     34  C   UNL     1      -1.447  13.669  20.017  0.00  0.00    +0.000 C 
ENDBRANCH  28  33
ENDBRANCH  24  29
ENDBRANCH  23  24
ENDBRANCH  19  23
ENDBRANCH   1  20
TORSDOF 7
ENDMDL
MODEL 7
REMARK VINA RESULT:      -7.7      1.252      2.953
REMARK  Name = 
REMARK  9 active torsions:
REMARK  status: ('A' for Active; 'I' for Inactive)
REMARK    1  A    between atoms: C_1  and  O_2
REMARK    2  A    between atoms: O_2  and  C_3
REMARK    3  A    between atoms: C_6  and  O_7
REMARK    4  A    between atoms: O_7  and  C_8
REMARK    5  A    between atoms: C_9  and  C_10
REMARK    6  A    between atoms: C_10  and  C_11
REMARK    7  A    between atoms: C_11  and  N_12
REMARK    8  A    between atoms: C_13  and  C_15
REMARK    9  A    between atoms: C_19  and  N_20
REMARK                            x       y       z     vdW  Elec       q    Type
REMARK                         _______ _______ _______ _____ _____    ______ ____
ROOT
ATOM      1  C   UNL     1       0.712  10.757  18.833  0.00  0.00    +0.000 A 
ATOM      2  C   UNL     1       1.534  11.878  18.683  0.00  0.00    +0.000 A 
ATOM      3  C   UNL     1       0.961  13.148  18.558  0.00  0.00    +0.000 A 
ATOM      4  C   UNL     1      -0.430  13.302  18.550  0.00  0.00    +0.000 A 
ATOM      5  C   UNL     1      -1.274  12.190  18.670  0.00  0.00    +0.000 A 
ATOM      6  C   UNL     1      -0.677  10.932  18.855  0.00  0.00    +0.000 A 
ENDROOT
BRANCH   5   7
ATOM      7  N   UNL     1      -2.670  12.355  18.540  0.00  0.00    +0.000 N 
ATOM      8  C   UNL     1      -3.524  12.470  19.599  0.00  0.00    +0.000 C 
ATOM      9  N   UNL     1      -3.243  12.764  20.831  0.00  0.00    +0.000 NA
ATOM     10  C   UNL     1      -4.450  12.584  21.627  0.00  0.00    +0.000 C 
ATOM     11  C   UNL     1      -4.487  13.355  22.930  0.00  0.00    +0.000 C 
ATOM     12  S   UNL     1      -6.256  13.560  23.210  0.00  0.00    +0.000 S 
ATOM     13  O   UNL     1      -6.662  12.742  24.337  0.00  0.00    +0.000 OA
ATOM     14  O   UNL     1      -6.573  14.968  23.125  0.00  0.00    +0.000 OA
ATOM     15  C   UNL     1      -6.814  12.768  21.685  0.00  0.00    +0.000 C 
ATOM     16  C   UNL     1      -5.631  13.053  20.793  0.00  0.00    +0.000 C 
ATOM     17  S   UNL     1      -5.251  12.195  19.255  0.00  0.00    +0.000 S 
ATOM     18  H   UNL     1      -3.079  11.982  17.695  0.00  0.00    +0.000 HD
ENDBRANCH   5   7
BRANCH   1  20
ATOM     19  N   UNL     1       1.760   8.757  17.868  0.00  0.00    +0.000 N 
ATOM     20  C   UNL     1       1.239   9.366  18.993  0.00  0.00    +0.000 C 
ATOM     21  O   UNL     1       1.178   8.804  20.081  0.00  0.00    +0.000 OA
ATOM     22  H   UNL     1       1.627   9.174  16.959  0.00  0.00    +0.000 HD
BRANCH  19  23
ATOM     23  C   UNL     1       2.338   7.419  17.924  0.00  0.00    +0.000 C 
BRANCH  23  24
ATOM     24  C   UNL     1       3.861   7.424  17.754  0.00  0.00    +0.000 C 
BRANCH  24  29
ATOM     25  C   UNL     1       5.796   5.166  15.363  0.00  0.00    +0.000 A 
ATOM     26  C   UNL     1       5.578   3.910  15.916  0.00  0.00    +0.000 A 
ATOM     27  C   UNL     1       4.786   3.762  17.055  0.00  0.00    +0.000 A 
ATOM     28  C   UNL     1       4.193   4.877  17.658  0.00  0.00    +0.000 A 
ATOM     29  C   UNL     1       4.422   6.159  17.126  0.00  0.00    +0.000 A 
ATOM     30  C   UNL     1       5.225   6.285  15.970  0.00  0.00    +0.000 A 
BRANCH  25  32
ATOM     31  C   UNL     1       6.488   4.020  13.403  0.00  0.00    +0.000 C 
ATOM     32  O   UNL     1       6.578   5.164  14.241  0.00  0.00    +0.000 OA
ENDBRANCH  25  32
BRANCH  28  33
ATOM     33  O   UNL     1       3.419   4.793  18.787  0.00  0.00    +0.000 OA
ATOM     34  C   UNL     1       3.352   3.502  19.390  0.00  0.00    +0.000 C 
ENDBRANCH  28  33
ENDBRANCH  24  29
ENDBRANCH  23  24
ENDBRANCH  19  23
ENDBRANCH   1  20
TORSDOF 7
ENDMDL
MODEL 8
REMARK VINA RESULT:      -7.7      2.600      4.073
REMARK  Name = 
REMARK  9 active torsions:
REMARK  status: ('A' for Active; 'I' for Inactive)
REMARK    1  A    between atoms: C_1  and  O_2
REMARK    2  A    between atoms: O_2  and  C_3
REMARK    3  A    between atoms: C_6  and  O_7
REMARK    4  A    between atoms: O_7  and  C_8
REMARK    5  A    between atoms: C_9  and  C_10
REMARK    6  A    between atoms: C_10  and  C_11
REMARK    7  A    between atoms: C_11  and  N_12
REMARK    8  A    between atoms: C_13  and  C_15
REMARK    9  A    between atoms: C_19  and  N_20
REMARK                            x       y       z     vdW  Elec       q    Type
REMARK                         _______ _______ _______ _____ _____    ______ ____
ROOT
ATOM      1  C   UNL     1       1.968   7.768  19.002  0.00  0.00    +0.000 A 
ATOM      2  C   UNL     1       2.136   8.491  17.817  0.00  0.00    +0.000 A 
ATOM      3  C   UNL     1       1.846   9.859  17.791  0.00  0.00    +0.000 A 
ATOM      4  C   UNL     1       1.357  10.503  18.934  0.00  0.00    +0.000 A 
ATOM      5  C   UNL     1       1.153   9.793  20.124  0.00  0.00    +0.000 A 
ATOM      6  C   UNL     1       1.508   8.434  20.145  0.00  0.00    +0.000 A 
ENDROOT
BRANCH   5   7
ATOM      7  N   UNL     1       0.548  10.436  21.226  0.00  0.00    +0.000 N 
ATOM      8  C   UNL     1      -0.578  11.202  21.136  0.00  0.00    +0.000 C 
ATOM      9  N   UNL     1      -1.453  11.238  20.178  0.00  0.00    +0.000 NA
ATOM     10  C   UNL     1      -2.369  12.339  20.441  0.00  0.00    +0.000 C 
ATOM     11  C   UNL     1      -3.724  12.228  19.773  0.00  0.00    +0.000 C 
ATOM     12  S   UNL     1      -4.778  13.195  20.868  0.00  0.00    +0.000 S 
ATOM     13  O   UNL     1      -5.177  14.418  20.197  0.00  0.00    +0.000 OA
ATOM     14  O   UNL     1      -5.738  12.306  21.484  0.00  0.00    +0.000 OA
ATOM     15  C   UNL     1      -3.515  13.592  22.098  0.00  0.00    +0.000 C 
ATOM     16  C   UNL     1      -2.612  12.394  21.941  0.00  0.00    +0.000 C 
ATOM     17  S   UNL     1      -0.905  12.292  22.508  0.00  0.00    +0.000 S 
ATOM     18  H   UNL     1       1.166  10.665  21.992  0.00  0.00    +0.000 HD
ENDBRANCH   5   7
BRANCH   1  20
ATOM     19  N   UNL     1       2.176   5.545  17.979  0.00  0.00    +0.000 N 
ATOM     20  C   UNL     1       2.271   6.308  19.126  0.00  0.00    +0.000 C 
ATOM     21  O   UNL     1       2.569   5.830  20.215  0.00  0.00    +0.000 OA
ATOM     22  H   UNL     1       1.754   5.932  17.148  0.00  0.00    +0.000 HD
BRANCH  19  23
ATOM     23  C   UNL     1       2.492   4.121  17.981  0.00  0.00    +0.000 C 
BRANCH  23  24
ATOM     24  C   UNL     1       3.578   3.755  16.963  0.00  0.00    +0.000 C 
BRANCH  24  29
ATOM     25  C   UNL     1       6.584   5.186  18.827  0.00  0.00    +0.000 A 
ATOM     26  C   UNL     1       7.393   5.615  17.781  0.00  0.00    +0.000 A 
ATOM     27  C   UNL     1       6.976   5.472  16.457  0.00  0.00    +0.000 A 
ATOM     28  C   UNL     1       5.735   4.899  16.159  0.00  0.00    +0.000 A 
ATOM     29  C   UNL     1       4.914   4.438  17.205  0.00  0.00    +0.000 A 
ATOM     30  C   UNL     1       5.354   4.595  18.539  0.00  0.00    +0.000 A 
BRANCH  25  32
ATOM     31  C   UNL     1       8.525   5.404  20.176  0.00  0.00    +0.000 C 
ATOM     32  O   UNL     1       7.108   5.400  20.072  0.00  0.00    +0.000 OA
ENDBRANCH  25  32
BRANCH  28  33
ATOM     33  O   UNL     1       5.282   4.720  14.878  0.00  0.00    +0.000 OA
ATOM     34  C   UNL     1       6.134   3.955  14.027  0.00  0.00    +0.000 C 
ENDBRANCH  28  33
ENDBRANCH  24  29
ENDBRANCH  23  24
ENDBRANCH  19  23
ENDBRANCH   1  20
TORSDOF 7
ENDMDL
MODEL 9
REMARK VINA RESULT:      -7.7      4.382      6.480
REMARK  Name = 
REMARK  9 active torsions:
REMARK  status: ('A' for Active; 'I' for Inactive)
REMARK    1  A    between atoms: C_1  and  O_2
REMARK    2  A    between atoms: O_2  and  C_3
REMARK    3  A    between atoms: C_6  and  O_7
REMARK    4  A    between atoms: O_7  and  C_8
REMARK    5  A    between atoms: C_9  and  C_10
REMARK    6  A    between atoms: C_10  and  C_11
REMARK    7  A    between atoms: C_11  and  N_12
REMARK    8  A    between atoms: C_13  and  C_15
REMARK    9  A    between atoms: C_19  and  N_20
REMARK                            x       y       z     vdW  Elec       q    Type
REMARK                         _______ _______ _______ _____ _____    ______ ____
ROOT
ATOM      1  C   UNL     1       0.563   8.932  21.291  0.00  0.00    +0.000 A 
ATOM      2  C   UNL     1       0.050   9.141  22.575  0.00  0.00    +0.000 A 
ATOM      3  C   UNL     1      -0.568  10.356  22.887  0.00  0.00    +0.000 A 
ATOM      4  C   UNL     1      -0.650  11.377  21.933  0.00  0.00    +0.000 A 
ATOM      5  C   UNL     1      -0.119  11.202  20.649  0.00  0.00    +0.000 A 
ATOM      6  C   UNL     1       0.444   9.953  20.339  0.00  0.00    +0.000 A 
ENDROOT
BRANCH   5   7
ATOM      7  N   UNL     1      -0.107  12.285  19.744  0.00  0.00    +0.000 N 
ATOM      8  C   UNL     1       0.818  13.289  19.772  0.00  0.00    +0.000 C 
ATOM      9  N   UNL     1       1.976  13.301  20.358  0.00  0.00    +0.000 NA
ATOM     10  C   UNL     1       2.517  14.650  20.266  0.00  0.00    +0.000 C 
ATOM     11  C   UNL     1       4.022  14.755  20.398  0.00  0.00    +0.000 C 
ATOM     12  S   UNL     1       4.390  16.264  19.486  0.00  0.00    +0.000 S 
ATOM     13  O   UNL     1       4.802  17.300  20.414  0.00  0.00    +0.000 OA
ATOM     14  O   UNL     1       5.172  15.916  18.320  0.00  0.00    +0.000 OA
ATOM     15  C   UNL     1       2.702  16.610  18.941  0.00  0.00    +0.000 C 
ATOM     16  C   UNL     1       2.147  15.208  18.900  0.00  0.00    +0.000 C 
ATOM     17  S   UNL     1       0.398  14.776  18.882  0.00  0.00    +0.000 S 
ATOM     18  H   UNL     1      -1.002  12.534  19.347  0.00  0.00    +0.000 HD
ENDBRANCH   5   7
BRANCH   1  20
ATOM     19  N   UNL     1       2.130   7.737  19.827  0.00  0.00    +0.000 N 
ATOM     20  C   UNL     1       1.223   7.659  20.864  0.00  0.00    +0.000 C 
ATOM     21  O   UNL     1       0.936   6.601  21.415  0.00  0.00    +0.000 OA
ATOM     22  H   UNL     1       2.203   8.583  19.281  0.00  0.00    +0.000 HD
BRANCH  19  23
ATOM     23  C   UNL     1       2.861   6.563  19.362  0.00  0.00    +0.000 C 
BRANCH  23  24
ATOM     24  C   UNL     1       2.936   6.480  17.834  0.00  0.00    +0.000 C 
BRANCH  24  29
ATOM     25  C   UNL     1       6.608   6.280  16.812  0.00  0.00    +0.000 A 
ATOM     26  C   UNL     1       6.724   4.951  16.420  0.00  0.00    +0.000 A 
ATOM     27  C   UNL     1       5.619   4.101  16.456  0.00  0.00    +0.000 A 
ATOM     28  C   UNL     1       4.372   4.571  16.882  0.00  0.00    +0.000 A 
ATOM     29  C   UNL     1       4.242   5.907  17.305  0.00  0.00    +0.000 A 
ATOM     30  C   UNL     1       5.373   6.752  17.259  0.00  0.00    +0.000 A 
BRANCH  25  32
ATOM     31  C   UNL     1       7.883   8.135  17.566  0.00  0.00    +0.000 C 
ATOM     32  O   UNL     1       7.764   7.003  16.714  0.00  0.00    +0.000 OA
ENDBRANCH  25  32
BRANCH  28  33
ATOM     33  O   UNL     1       3.257   3.777  16.952  0.00  0.00    +0.000 OA
ATOM     34  C   UNL     1       3.368   2.636  17.801  0.00  0.00    +0.000 C 
ENDBRANCH  28  33
ENDBRANCH  24  29
ENDBRANCH  23  24
ENDBRANCH  19  23
ENDBRANCH   1  20
TORSDOF 7
ENDMDL
