MODEL 1
REMARK VINA RESULT:      -8.7      0.000      0.000
REMARK  Name = 
REMARK  9 active torsions:
REMARK  status: ('A' for Active; 'I' for Inactive)
REMARK    1  A    between atoms: C_1  and  C_2
REMARK    2  A    between atoms: C_2  and  C_3
REMARK    3  A    between atoms: C_2  and  C_6
REMARK    4  A    between atoms: C_3  and  O_5
REMARK    5  A    between atoms: N_8  and  C_9
REMARK    6  A    between atoms: C_9  and  C_10
REMARK    7  A    between atoms: C_14  and  O_15
REMARK    8  A    between atoms: O_15  and  C_16
REMARK    9  A    between atoms: C_16  and  C_17
REMARK                            x       y       z     vdW  Elec       q    Type
REMARK                         _______ _______ _______ _____ _____    ______ ____
ROOT
ATOM      1  C   UNL     1       5.381   5.810  17.929  0.00  0.00    +0.000 A 
ATOM      2  N   UNL     1       4.390   6.558  17.556  0.00  0.00    +0.000 NA
ATOM      3  N   UNL     1       3.111   6.153  17.834  0.00  0.00    +0.000 N 
ATOM      4  C   UNL     1       2.792   4.841  18.203  0.00  0.00    +0.000 A 
ATOM      5  C   UNL     1       1.491   4.315  18.154  0.00  0.00    +0.000 A 
ATOM      6  C   UNL     1       1.213   3.002  18.548  0.00  0.00    +0.000 A 
ATOM      7  C   UNL     1       2.234   2.187  19.012  0.00  0.00    +0.000 A 
ATOM      8  C   UNL     1       3.537   2.675  19.080  0.00  0.00    +0.000 A 
ATOM      9  C   UNL     1       3.801   3.984  18.667  0.00  0.00    +0.000 A 
ATOM     10  C   UNL     1       5.155   4.540  18.710  0.00  0.00    +0.000 A 
ATOM     11  O   UNL     1       6.102   4.040  19.308  0.00  0.00    +0.000 OA
ENDROOT
BRANCH   1  13
ATOM     12  C   UNL     1       7.669   6.163  18.908  0.00  0.00    +0.000 C 
ATOM     13  C   UNL     1       6.821   6.157  17.638  0.00  0.00    +0.000 C 
BRANCH  13  14
ATOM     14  C   UNL     1       7.406   5.250  16.578  0.00  0.00    +0.000 C 
ATOM     15  O   UNL     1       7.319   5.429  15.376  0.00  0.00    +0.000 OA
BRANCH  14  16
ATOM     16  O   UNL     1       8.047   4.166  17.083  0.00  0.00    +0.000 OA
ATOM     17  H   UNL     1       7.719   3.861  17.961  0.00  0.00    +0.000 HD
ENDBRANCH  14  16
ENDBRANCH  13  14
ENDBRANCH   1  13
BRANCH   3  18
ATOM     18  C   UNL     1       2.038   7.107  17.528  0.00  0.00    +0.000 C 
BRANCH  18  19
ATOM     19  C   UNL     1       2.047   8.437  18.222  0.00  0.00    +0.000 A 
ATOM     20  C   UNL     1       1.446   8.727  19.431  0.00  0.00    +0.000 A 
ATOM     21  N   UNL     1       1.123  10.047  19.296  0.00  0.00    +0.000 N 
ATOM     22  C   UNL     1       0.007  10.719  19.775  0.00  0.00    +0.000 A 
ATOM     23  C   UNL     1      -0.194  11.995  19.383  0.00  0.00    +0.000 A 
ATOM     24  C   UNL     1       0.932  12.685  18.726  0.00  0.00    +0.000 A 
ATOM     25 CL   UNL     1       0.960  14.415  18.718  0.00  0.00    +0.000 Cl
ATOM     26  C   UNL     1       1.980  11.996  18.223  0.00  0.00    +0.000 A 
ATOM     27  C   UNL     1       1.985  10.578  18.347  0.00  0.00    +0.000 A 
ATOM     28  N   UNL     1       2.511   9.604  17.627  0.00  0.00    +0.000 NA
BRANCH  23  29
ATOM     29  O   UNL     1      -1.368  12.711  19.474  0.00  0.00    +0.000 OA
BRANCH  29  30
ATOM     30  C   UNL     1      -2.589  11.970  19.416  0.00  0.00    +0.000 C 
BRANCH  30  31
ATOM     31  C   UNL     1      -2.886  11.595  17.994  0.00  0.00    +0.000 C 
ATOM     32  C   UNL     1      -3.330  10.203  17.619  0.00  0.00    +0.000 C 
ATOM     33  C   UNL     1      -4.317  11.337  17.581  0.00  0.00    +0.000 C 
ENDBRANCH  30  31
ENDBRANCH  29  30
ENDBRANCH  23  29
ENDBRANCH  18  19
ENDBRANCH   3  18
TORSDOF 8
ENDMDL
MODEL 2
REMARK VINA RESULT:      -8.6      1.048      1.262
REMARK  Name = 
REMARK  9 active torsions:
REMARK  status: ('A' for Active; 'I' for Inactive)
REMARK    1  A    between atoms: C_1  and  C_2
REMARK    2  A    between atoms: C_2  and  C_3
REMARK    3  A    between atoms: C_2  and  C_6
REMARK    4  A    between atoms: C_3  and  O_5
REMARK    5  A    between atoms: N_8  and  C_9
REMARK    6  A    between atoms: C_9  and  C_10
REMARK    7  A    between atoms: C_14  and  O_15
REMARK    8  A    between atoms: O_15  and  C_16
REMARK    9  A    between atoms: C_16  and  C_17
REMARK                            x       y       z     vdW  Elec       q    Type
REMARK                         _______ _______ _______ _____ _____    ______ ____
ROOT
ATOM      1  C   UNL     1       4.842   4.907  17.586  0.00  0.00    +0.000 A 
ATOM      2  N   UNL     1       3.852   5.692  17.295  0.00  0.00    +0.000 NA
ATOM      3  N   UNL     1       2.766   5.728  18.129  0.00  0.00    +0.000 N 
ATOM      4  C   UNL     1       2.513   4.743  19.091  0.00  0.00    +0.000 A 
ATOM      5  C   UNL     1       1.264   4.561  19.707  0.00  0.00    +0.000 A 
ATOM      6  C   UNL     1       1.059   3.574  20.678  0.00  0.00    +0.000 A 
ATOM      7  C   UNL     1       2.108   2.753  21.062  0.00  0.00    +0.000 A 
ATOM      8  C   UNL     1       3.363   2.908  20.478  0.00  0.00    +0.000 A 
ATOM      9  C   UNL     1       3.547   3.886  19.498  0.00  0.00    +0.000 A 
ATOM     10  C   UNL     1       4.845   4.082  18.848  0.00  0.00    +0.000 A 
ATOM     11  O   UNL     1       5.906   3.610  19.241  0.00  0.00    +0.000 OA
ENDROOT
BRANCH   1  13
ATOM     12  C   UNL     1       5.703   4.794  15.226  0.00  0.00    +0.000 C 
ATOM     13  C   UNL     1       6.065   4.775  16.710  0.00  0.00    +0.000 C 
BRANCH  13  14
ATOM     14  C   UNL     1       7.102   5.824  17.048  0.00  0.00    +0.000 C 
ATOM     15  O   UNL     1       7.181   6.924  16.529  0.00  0.00    +0.000 OA
BRANCH  14  16
ATOM     16  O   UNL     1       7.984   5.430  17.999  0.00  0.00    +0.000 OA
ATOM     17  H   UNL     1       8.922   5.379  17.700  0.00  0.00    +0.000 HD
ENDBRANCH  14  16
ENDBRANCH  13  14
ENDBRANCH   1  13
BRANCH   3  18
ATOM     18  C   UNL     1       1.746   6.742  17.838  0.00  0.00    +0.000 C 
BRANCH  18  19
ATOM     19  C   UNL     1       1.923   8.116  18.413  0.00  0.00    +0.000 A 
ATOM     20  C   UNL     1       1.535   8.526  19.674  0.00  0.00    +0.000 A 
ATOM     21  N   UNL     1       1.251   9.848  19.486  0.00  0.00    +0.000 N 
ATOM     22  C   UNL     1       0.255  10.614  20.077  0.00  0.00    +0.000 A 
ATOM     23  C   UNL     1       0.050  11.867  19.620  0.00  0.00    +0.000 A 
ATOM     24  C   UNL     1       1.086  12.445  18.743  0.00  0.00    +0.000 A 
ATOM     25 CL   UNL     1       1.186  14.165  18.594  0.00  0.00    +0.000 Cl
ATOM     26  C   UNL     1       2.010  11.664  18.141  0.00  0.00    +0.000 A 
ATOM     27  C   UNL     1       1.974  10.261  18.375  0.00  0.00    +0.000 A 
ATOM     28  N   UNL     1       2.335   9.211  17.662  0.00  0.00    +0.000 NA
BRANCH  23  29
ATOM     29  O   UNL     1      -1.063  12.651  19.836  0.00  0.00    +0.000 OA
BRANCH  29  30
ATOM     30  C   UNL     1      -2.338  12.052  19.595  0.00  0.00    +0.000 C 
BRANCH  30  31
ATOM     31  C   UNL     1      -2.476  11.723  18.139  0.00  0.00    +0.000 C 
ATOM     32  C   UNL     1      -2.697  10.308  17.664  0.00  0.00    +0.000 C 
ATOM     33  C   UNL     1      -3.824  11.302  17.599  0.00  0.00    +0.000 C 
ENDBRANCH  30  31
ENDBRANCH  29  30
ENDBRANCH  23  29
ENDBRANCH  18  19
ENDBRANCH   3  18
TORSDOF 8
ENDMDL
MODEL 3
REMARK VINA RESULT:      -8.6      2.890      4.706
REMARK  Name = 
REMARK  9 active torsions:
REMARK  status: ('A' for Active; 'I' for Inactive)
REMARK    1  A    between atoms: C_1  and  C_2
REMARK    2  A    between atoms: C_2  and  C_3
REMARK    3  A    between atoms: C_2  and  C_6
REMARK    4  A    between atoms: C_3  and  O_5
REMARK    5  A    between atoms: N_8  and  C_9
REMARK    6  A    between atoms: C_9  and  C_10
REMARK    7  A    between atoms: C_14  and  O_15
REMARK    8  A    between atoms: O_15  and  C_16
REMARK    9  A    between atoms: C_16  and  C_17
REMARK                            x       y       z     vdW  Elec       q    Type
REMARK                         _______ _______ _______ _____ _____    ______ ____
ROOT
ATOM      1  C   UNL     1       3.079   3.860  18.694  0.00  0.00    +0.000 A 
ATOM      2  N   UNL     1       3.069   5.152  18.786  0.00  0.00    +0.000 NA
ATOM      3  N   UNL     1       3.711   5.892  17.828  0.00  0.00    +0.000 N 
ATOM      4  C   UNL     1       4.645   5.341  16.942  0.00  0.00    +0.000 A 
ATOM      5  C   UNL     1       5.558   6.109  16.201  0.00  0.00    +0.000 A 
ATOM      6  C   UNL     1       6.464   5.519  15.313  0.00  0.00    +0.000 A 
ATOM      7  C   UNL     1       6.466   4.143  15.139  0.00  0.00    +0.000 A 
ATOM      8  C   UNL     1       5.571   3.349  15.852  0.00  0.00    +0.000 A 
ATOM      9  C   UNL     1       4.684   3.953  16.747  0.00  0.00    +0.000 A 
ATOM     10  C   UNL     1       3.730   3.161  17.527  0.00  0.00    +0.000 A 
ATOM     11  O   UNL     1       3.449   1.987  17.312  0.00  0.00    +0.000 OA
ENDROOT
BRANCH   1  13
ATOM     12  C   UNL     1       2.873   3.309  21.138  0.00  0.00    +0.000 C 
ATOM     13  C   UNL     1       2.428   2.962  19.719  0.00  0.00    +0.000 C 
BRANCH  13  14
ATOM     14  C   UNL     1       0.921   2.973  19.585  0.00  0.00    +0.000 C 
ATOM     15  O   UNL     1       0.273   2.211  18.890  0.00  0.00    +0.000 OA
BRANCH  14  16
ATOM     16  O   UNL     1       0.317   3.945  20.315  0.00  0.00    +0.000 OA
ATOM     17  H   UNL     1       0.251   4.821  19.867  0.00  0.00    +0.000 HD
ENDBRANCH  14  16
ENDBRANCH  13  14
ENDBRANCH   1  13
BRANCH   3  18
ATOM     18  C   UNL     1       3.539   7.347  17.895  0.00  0.00    +0.000 C 
BRANCH  18  19
ATOM     19  C   UNL     1       2.331   7.891  18.600  0.00  0.00    +0.000 A 
ATOM     20  C   UNL     1       1.558   8.957  18.182  0.00  0.00    +0.000 A 
ATOM     21  N   UNL     1       1.106   9.479  19.360  0.00  0.00    +0.000 N 
ATOM     22  C   UNL     1       0.892  10.810  19.693  0.00  0.00    +0.000 A 
ATOM     23  C   UNL     1       0.598  11.113  20.975  0.00  0.00    +0.000 A 
ATOM     24  C   UNL     1       0.224   9.999  21.865  0.00  0.00    +0.000 A 
ATOM     25 CL   UNL     1      -0.689  10.343  23.294  0.00  0.00    +0.000 Cl
ATOM     26  C   UNL     1       0.494   8.717  21.535  0.00  0.00    +0.000 A 
ATOM     27  C   UNL     1       1.144   8.455  20.296  0.00  0.00    +0.000 A 
ATOM     28  N   UNL     1       1.951   7.498  19.877  0.00  0.00    +0.000 NA
BRANCH  23  29
ATOM     29  O   UNL     1       0.669  12.357  21.564  0.00  0.00    +0.000 OA
BRANCH  29  30
ATOM     30  C   UNL     1      -0.518  13.154  21.552  0.00  0.00    +0.000 C 
BRANCH  30  31
ATOM     31  C   UNL     1      -0.403  14.247  22.572  0.00  0.00    +0.000 C 
ATOM     32  C   UNL     1      -1.469  15.305  22.722  0.00  0.00    +0.000 C 
ATOM     33  C   UNL     1      -1.321  14.239  23.773  0.00  0.00    +0.000 C 
ENDBRANCH  30  31
ENDBRANCH  29  30
ENDBRANCH  23  29
ENDBRANCH  18  19
ENDBRANCH   3  18
TORSDOF 8
ENDMDL
MODEL 4
REMARK VINA RESULT:      -8.6      1.689      2.142
REMARK  Name = 
REMARK  9 active torsions:
REMARK  status: ('A' for Active; 'I' for Inactive)
REMARK    1  A    between atoms: C_1  and  C_2
REMARK    2  A    between atoms: C_2  and  C_3
REMARK    3  A    between atoms: C_2  and  C_6
REMARK    4  A    between atoms: C_3  and  O_5
REMARK    5  A    between atoms: N_8  and  C_9
REMARK    6  A    between atoms: C_9  and  C_10
REMARK    7  A    between atoms: C_14  and  O_15
REMARK    8  A    between atoms: O_15  and  C_16
REMARK    9  A    between atoms: C_16  and  C_17
REMARK                            x       y       z     vdW  Elec       q    Type
REMARK                         _______ _______ _______ _____ _____    ______ ____
ROOT
ATOM      1  C   UNL     1       5.199   5.759  17.827  0.00  0.00    +0.000 A 
ATOM      2  N   UNL     1       4.161   6.466  17.511  0.00  0.00    +0.000 NA
ATOM      3  N   UNL     1       2.977   6.235  18.160  0.00  0.00    +0.000 N 
ATOM      4  C   UNL     1       2.733   5.077  18.907  0.00  0.00    +0.000 A 
ATOM      5  C   UNL     1       1.449   4.652  19.284  0.00  0.00    +0.000 A 
ATOM      6  C   UNL     1       1.250   3.495  20.047  0.00  0.00    +0.000 A 
ATOM      7  C   UNL     1       2.340   2.743  20.458  0.00  0.00    +0.000 A 
ATOM      8  C   UNL     1       3.630   3.136  20.109  0.00  0.00    +0.000 A 
ATOM      9  C   UNL     1       3.809   4.284  19.333  0.00  0.00    +0.000 A 
ATOM     10  C   UNL     1       5.144   4.733  18.932  0.00  0.00    +0.000 A 
ATOM     11  O   UNL     1       6.197   4.323  19.408  0.00  0.00    +0.000 OA
ENDROOT
BRANCH   1  13
ATOM     12  C   UNL     1       7.565   6.580  18.060  0.00  0.00    +0.000 C 
ATOM     13  C   UNL     1       6.537   5.919  17.144  0.00  0.00    +0.000 C 
BRANCH  13  14
ATOM     14  C   UNL     1       7.039   4.602  16.595  0.00  0.00    +0.000 C 
ATOM     15  O   UNL     1       6.537   3.992  15.667  0.00  0.00    +0.000 OA
BRANCH  14  16
ATOM     16  O   UNL     1       8.125   4.119  17.249  0.00  0.00    +0.000 OA
ATOM     17  H   UNL     1       8.945   4.655  17.144  0.00  0.00    +0.000 HD
ENDBRANCH  14  16
ENDBRANCH  13  14
ENDBRANCH   1  13
BRANCH   3  18
ATOM     18  C   UNL     1       1.877   7.163  17.873  0.00  0.00    +0.000 C 
BRANCH  18  19
ATOM     19  C   UNL     1       1.838   8.471  18.607  0.00  0.00    +0.000 A 
ATOM     20  C   UNL     1       1.629   8.636  19.962  0.00  0.00    +0.000 A 
ATOM     21  N   UNL     1       1.010   9.851  20.025  0.00  0.00    +0.000 N 
ATOM     22  C   UNL     1       0.004  10.269  20.885  0.00  0.00    +0.000 A 
ATOM     23  C   UNL     1      -0.579  11.465  20.662  0.00  0.00    +0.000 A 
ATOM     24  C   UNL     1       0.090  12.377  19.716  0.00  0.00    +0.000 A 
ATOM     25 CL   UNL     1      -0.250  14.071  19.808  0.00  0.00    +0.000 Cl
ATOM     26  C   UNL     1       1.030  11.929  18.855  0.00  0.00    +0.000 A 
ATOM     27  C   UNL     1       1.374  10.548  18.881  0.00  0.00    +0.000 A 
ATOM     28  N   UNL     1       1.820   9.705  17.968  0.00  0.00    +0.000 NA
BRANCH  23  29
ATOM     29  O   UNL     1      -1.778  11.908  21.178  0.00  0.00    +0.000 OA
BRANCH  29  30
ATOM     30  C   UNL     1      -1.949  11.821  22.595  0.00  0.00    +0.000 C 
BRANCH  30  31
ATOM     31  C   UNL     1      -2.896  12.888  23.056  0.00  0.00    +0.000 C 
ATOM     32  C   UNL     1      -4.377  12.807  22.775  0.00  0.00    +0.000 C 
ATOM     33  C   UNL     1      -3.868  12.583  24.173  0.00  0.00    +0.000 C 
ENDBRANCH  30  31
ENDBRANCH  29  30
ENDBRANCH  23  29
ENDBRANCH  18  19
ENDBRANCH   3  18
TORSDOF 8
ENDMDL
MODEL 5
REMARK VINA RESULT:      -8.5      2.727      4.636
REMARK  Name = 
REMARK  9 active torsions:
REMARK  status: ('A' for Active; 'I' for Inactive)
REMARK    1  A    between atoms: C_1  and  C_2
REMARK    2  A    between atoms: C_2  and  C_3
REMARK    3  A    between atoms: C_2  and  C_6
REMARK    4  A    between atoms: C_3  and  O_5
REMARK    5  A    between atoms: N_8  and  C_9
REMARK    6  A    between atoms: C_9  and  C_10
REMARK    7  A    between atoms: C_14  and  O_15
REMARK    8  A    between atoms: O_15  and  C_16
REMARK    9  A    between atoms: C_16  and  C_17
REMARK                            x       y       z     vdW  Elec       q    Type
REMARK                         _______ _______ _______ _____ _____    ______ ____
ROOT
ATOM      1  C   UNL     1       3.030   3.949  18.730  0.00  0.00    +0.000 A 
ATOM      2  N   UNL     1       3.048   5.243  18.799  0.00  0.00    +0.000 NA
ATOM      3  N   UNL     1       3.679   5.953  17.811  0.00  0.00    +0.000 N 
ATOM      4  C   UNL     1       4.577   5.368  16.910  0.00  0.00    +0.000 A 
ATOM      5  C   UNL     1       5.485   6.103  16.132  0.00  0.00    +0.000 A 
ATOM      6  C   UNL     1       6.355   5.478  15.230  0.00  0.00    +0.000 A 
ATOM      7  C   UNL     1       6.324   4.100  15.081  0.00  0.00    +0.000 A 
ATOM      8  C   UNL     1       5.432   3.338  15.831  0.00  0.00    +0.000 A 
ATOM      9  C   UNL     1       4.583   3.975  16.739  0.00  0.00    +0.000 A 
ATOM     10  C   UNL     1       3.634   3.217  17.558  0.00  0.00    +0.000 A 
ATOM     11  O   UNL     1       3.323   2.046  17.372  0.00  0.00    +0.000 OA
ENDROOT
BRANCH   1  13
ATOM     12  C   UNL     1       2.732   3.563  21.196  0.00  0.00    +0.000 C 
ATOM     13  C   UNL     1       2.388   3.084  19.788  0.00  0.00    +0.000 C 
BRANCH  13  14
ATOM     14  C   UNL     1       0.893   2.975  19.582  0.00  0.00    +0.000 C 
ATOM     15  O   UNL     1       0.346   2.215  18.802  0.00  0.00    +0.000 OA
BRANCH  14  16
ATOM     16  O   UNL     1       0.175   3.833  20.349  0.00  0.00    +0.000 OA
ATOM     17  H   UNL     1      -0.551   3.417  20.870  0.00  0.00    +0.000 HD
ENDBRANCH  14  16
ENDBRANCH  13  14
ENDBRANCH   1  13
BRANCH   3  18
ATOM     18  C   UNL     1       3.539   7.413  17.857  0.00  0.00    +0.000 C 
BRANCH  18  19
ATOM     19  C   UNL     1       2.322   7.992  18.517  0.00  0.00    +0.000 A 
ATOM     20  C   UNL     1       1.464   8.923  17.966  0.00  0.00    +0.000 A 
ATOM     21  N   UNL     1       1.020   9.607  19.061  0.00  0.00    +0.000 N 
ATOM     22  C   UNL     1       0.728  10.959  19.179  0.00  0.00    +0.000 A 
ATOM     23  C   UNL     1       0.459  11.454  20.405  0.00  0.00    +0.000 A 
ATOM     24  C   UNL     1       0.193  10.484  21.484  0.00  0.00    +0.000 A 
ATOM     25 CL   UNL     1      -0.690  11.006  22.876  0.00  0.00    +0.000 Cl
ATOM     26  C   UNL     1       0.538   9.183  21.357  0.00  0.00    +0.000 A 
ATOM     27  C   UNL     1       1.160   8.758  20.150  0.00  0.00    +0.000 A 
ATOM     28  N   UNL     1       2.015   7.795  19.858  0.00  0.00    +0.000 NA
BRANCH  23  29
ATOM     29  O   UNL     1       0.467  12.781  20.778  0.00  0.00    +0.000 OA
BRANCH  29  30
ATOM     30  C   UNL     1       0.509  13.753  19.730  0.00  0.00    +0.000 C 
BRANCH  30  31
ATOM     31  C   UNL     1       1.836  14.453  19.743  0.00  0.00    +0.000 C 
ATOM     32  C   UNL     1       2.978  13.999  18.868  0.00  0.00    +0.000 C 
ATOM     33  C   UNL     1       2.250  15.275  18.545  0.00  0.00    +0.000 C 
ENDBRANCH  30  31
ENDBRANCH  29  30
ENDBRANCH  23  29
ENDBRANCH  18  19
ENDBRANCH   3  18
TORSDOF 8
ENDMDL
MODEL 6
REMARK VINA RESULT:      -8.5      1.996      3.455
REMARK  Name = 
REMARK  9 active torsions:
REMARK  status: ('A' for Active; 'I' for Inactive)
REMARK    1  A    between atoms: C_1  and  C_2
REMARK    2  A    between atoms: C_2  and  C_3
REMARK    3  A    between atoms: C_2  and  C_6
REMARK    4  A    between atoms: C_3  and  O_5
REMARK    5  A    between atoms: N_8  and  C_9
REMARK    6  A    between atoms: C_9  and  C_10
REMARK    7  A    between atoms: C_14  and  O_15
REMARK    8  A    between atoms: O_15  and  C_16
REMARK    9  A    between atoms: C_16  and  C_17
REMARK                            x       y       z     vdW  Elec       q    Type
REMARK                         _______ _______ _______ _____ _____    ______ ____
ROOT
ATOM      1  C   UNL     1       4.601   5.238  17.145  0.00  0.00    +0.000 A 
ATOM      2  N   UNL     1       4.166   6.116  17.992  0.00  0.00    +0.000 NA
ATOM      3  N   UNL     1       3.288   5.721  18.967  0.00  0.00    +0.000 N 
ATOM      4  C   UNL     1       2.585   4.511  18.912  0.00  0.00    +0.000 A 
ATOM      5  C   UNL     1       1.448   4.239  19.689  0.00  0.00    +0.000 A 
ATOM      6  C   UNL     1       0.784   3.009  19.615  0.00  0.00    +0.000 A 
ATOM      7  C   UNL     1       1.254   2.019  18.766  0.00  0.00    +0.000 A 
ATOM      8  C   UNL     1       2.383   2.251  17.984  0.00  0.00    +0.000 A 
ATOM      9  C   UNL     1       3.024   3.490  18.057  0.00  0.00    +0.000 A 
ATOM     10  C   UNL     1       4.208   3.785  17.248  0.00  0.00    +0.000 A 
ATOM     11  O   UNL     1       4.874   2.951  16.644  0.00  0.00    +0.000 OA
ENDROOT
BRANCH   1  13
ATOM     12  C   UNL     1       5.090   6.839  15.269  0.00  0.00    +0.000 C 
ATOM     13  C   UNL     1       5.543   5.587  16.017  0.00  0.00    +0.000 C 
BRANCH  13  14
ATOM     14  C   UNL     1       6.970   5.711  16.507  0.00  0.00    +0.000 C 
ATOM     15  O   UNL     1       7.576   6.760  16.642  0.00  0.00    +0.000 OA
BRANCH  14  16
ATOM     16  O   UNL     1       7.556   4.519  16.783  0.00  0.00    +0.000 OA
ATOM     17  H   UNL     1       7.081   3.731  16.429  0.00  0.00    +0.000 HD
ENDBRANCH  14  16
ENDBRANCH  13  14
ENDBRANCH   1  13
BRANCH   3  18
ATOM     18  C   UNL     1       2.948   6.717  19.989  0.00  0.00    +0.000 C 
BRANCH  18  19
ATOM     19  C   UNL     1       1.957   7.788  19.640  0.00  0.00    +0.000 A 
ATOM     20  C   UNL     1       1.904   8.489  18.451  0.00  0.00    +0.000 A 
ATOM     21  N   UNL     1       1.399   9.697  18.838  0.00  0.00    +0.000 N 
ATOM     22  C   UNL     1       1.707  10.961  18.355  0.00  0.00    +0.000 A 
ATOM     23  C   UNL     1       1.206  12.037  18.998  0.00  0.00    +0.000 A 
ATOM     24  C   UNL     1       0.127  11.798  19.975  0.00  0.00    +0.000 A 
ATOM     25 CL   UNL     1      -0.923  13.108  20.394  0.00  0.00    +0.000 Cl
ATOM     26  C   UNL     1      -0.114  10.562  20.465  0.00  0.00    +0.000 A 
ATOM     27  C   UNL     1       0.693   9.481  20.014  0.00  0.00    +0.000 A 
ATOM     28  N   UNL     1       1.076   8.342  20.560  0.00  0.00    +0.000 NA
BRANCH  23  29
ATOM     29  O   UNL     1       1.640  13.340  18.887  0.00  0.00    +0.000 OA
BRANCH  29  30
ATOM     30  C   UNL     1       2.973  13.545  18.413  0.00  0.00    +0.000 C 
BRANCH  30  31
ATOM     31  C   UNL     1       3.326  15.000  18.510  0.00  0.00    +0.000 C 
ATOM     32  C   UNL     1       4.677  15.517  18.080  0.00  0.00    +0.000 C 
ATOM     33  C   UNL     1       3.462  15.814  17.244  0.00  0.00    +0.000 C 
ENDBRANCH  30  31
ENDBRANCH  29  30
ENDBRANCH  23  29
ENDBRANCH  18  19
ENDBRANCH   3  18
TORSDOF 8
ENDMDL
MODEL 7
REMARK VINA RESULT:      -8.5      1.767      2.409
REMARK  Name = 
REMARK  9 active torsions:
REMARK  status: ('A' for Active; 'I' for Inactive)
REMARK    1  A    between atoms: C_1  and  C_2
REMARK    2  A    between atoms: C_2  and  C_3
REMARK    3  A    between atoms: C_2  and  C_6
REMARK    4  A    between atoms: C_3  and  O_5
REMARK    5  A    between atoms: N_8  and  C_9
REMARK    6  A    between atoms: C_9  and  C_10
REMARK    7  A    between atoms: C_14  and  O_15
REMARK    8  A    between atoms: O_15  and  C_16
REMARK    9  A    between atoms: C_16  and  C_17
REMARK                            x       y       z     vdW  Elec       q    Type
REMARK                         _______ _______ _______ _____ _____    ______ ____
ROOT
ATOM      1  C   UNL     1       5.298   5.501  17.862  0.00  0.00    +0.000 A 
ATOM      2  N   UNL     1       4.303   6.230  17.464  0.00  0.00    +0.000 NA
ATOM      3  N   UNL     1       3.085   6.081  18.073  0.00  0.00    +0.000 N 
ATOM      4  C   UNL     1       2.763   4.976  18.869  0.00  0.00    +0.000 A 
ATOM      5  C   UNL     1       1.449   4.623  19.213  0.00  0.00    +0.000 A 
ATOM      6  C   UNL     1       1.172   3.518  20.026  0.00  0.00    +0.000 A 
ATOM      7  C   UNL     1       2.212   2.748  20.524  0.00  0.00    +0.000 A 
ATOM      8  C   UNL     1       3.530   3.070  20.210  0.00  0.00    +0.000 A 
ATOM      9  C   UNL     1       3.788   4.166  19.382  0.00  0.00    +0.000 A 
ATOM     10  C   UNL     1       5.155   4.540  19.015  0.00  0.00    +0.000 A 
ATOM     11  O   UNL     1       6.170   4.116  19.558  0.00  0.00    +0.000 OA
ENDROOT
BRANCH   1  13
ATOM     12  C   UNL     1       6.589   5.522  15.704  0.00  0.00    +0.000 C 
ATOM     13  C   UNL     1       6.667   5.571  17.229  0.00  0.00    +0.000 C 
BRANCH  13  14
ATOM     14  C   UNL     1       7.438   6.780  17.712  0.00  0.00    +0.000 C 
ATOM     15  O   UNL     1       7.515   7.844  17.124  0.00  0.00    +0.000 OA
BRANCH  14  16
ATOM     16  O   UNL     1       8.079   6.580  18.891  0.00  0.00    +0.000 OA
ATOM     17  H   UNL     1       9.063   6.569  18.833  0.00  0.00    +0.000 HD
ENDBRANCH  14  16
ENDBRANCH  13  14
ENDBRANCH   1  13
BRANCH   3  18
ATOM     18  C   UNL     1       2.038   7.035  17.690  0.00  0.00    +0.000 C 
BRANCH  18  19
ATOM     19  C   UNL     1       2.004   8.369  18.374  0.00  0.00    +0.000 A 
ATOM     20  C   UNL     1       1.761   8.589  19.716  0.00  0.00    +0.000 A 
ATOM     21  N   UNL     1       1.164   9.817  19.715  0.00  0.00    +0.000 N 
ATOM     22  C   UNL     1       0.143  10.286  20.530  0.00  0.00    +0.000 A 
ATOM     23  C   UNL     1      -0.410  11.483  20.246  0.00  0.00    +0.000 A 
ATOM     24  C   UNL     1       0.304  12.347  19.287  0.00  0.00    +0.000 A 
ATOM     25 CL   UNL     1      -0.005  14.049  19.307  0.00  0.00    +0.000 Cl
ATOM     26  C   UNL     1       1.258  11.848  18.470  0.00  0.00    +0.000 A 
ATOM     27  C   UNL     1       1.573  10.463  18.557  0.00  0.00    +0.000 A 
ATOM     28  N   UNL     1       2.028   9.578  17.689  0.00  0.00    +0.000 NA
BRANCH  23  29
ATOM     29  O   UNL     1      -1.613  11.967  20.712  0.00  0.00    +0.000 OA
BRANCH  29  30
ATOM     30  C   UNL     1      -1.789  12.023  22.130  0.00  0.00    +0.000 C 
BRANCH  30  31
ATOM     31  C   UNL     1      -1.059  13.211  22.683  0.00  0.00    +0.000 C 
ATOM     32  C   UNL     1      -1.546  14.619  22.446  0.00  0.00    +0.000 C 
ATOM     33  C   UNL     1      -1.681  14.002  23.811  0.00  0.00    +0.000 C 
ENDBRANCH  30  31
ENDBRANCH  29  30
ENDBRANCH  23  29
ENDBRANCH  18  19
ENDBRANCH   3  18
TORSDOF 8
ENDMDL
MODEL 8
REMARK VINA RESULT:      -8.4      1.778      3.715
REMARK  Name = 
REMARK  9 active torsions:
REMARK  status: ('A' for Active; 'I' for Inactive)
REMARK    1  A    between atoms: C_1  and  C_2
REMARK    2  A    between atoms: C_2  and  C_3
REMARK    3  A    between atoms: C_2  and  C_6
REMARK    4  A    between atoms: C_3  and  O_5
REMARK    5  A    between atoms: N_8  and  C_9
REMARK    6  A    between atoms: C_9  and  C_10
REMARK    7  A    between atoms: C_14  and  O_15
REMARK    8  A    between atoms: O_15  and  C_16
REMARK    9  A    between atoms: C_16  and  C_17
REMARK                            x       y       z     vdW  Elec       q    Type
REMARK                         _______ _______ _______ _____ _____    ______ ____
ROOT
ATOM      1  C   UNL     1       3.260   4.301  19.442  0.00  0.00    +0.000 A 
ATOM      2  N   UNL     1       2.652   5.330  18.941  0.00  0.00    +0.000 NA
ATOM      3  N   UNL     1       3.344   6.170  18.108  0.00  0.00    +0.000 N 
ATOM      4  C   UNL     1       4.742   6.172  18.021  0.00  0.00    +0.000 A 
ATOM      5  C   UNL     1       5.483   7.224  17.460  0.00  0.00    +0.000 A 
ATOM      6  C   UNL     1       6.879   7.179  17.377  0.00  0.00    +0.000 A 
ATOM      7  C   UNL     1       7.564   6.068  17.847  0.00  0.00    +0.000 A 
ATOM      8  C   UNL     1       6.863   5.002  18.404  0.00  0.00    +0.000 A 
ATOM      9  C   UNL     1       5.470   5.071  18.495  0.00  0.00    +0.000 A 
ATOM     10  C   UNL     1       4.688   3.980  19.081  0.00  0.00    +0.000 A 
ATOM     11  O   UNL     1       5.115   2.854  19.314  0.00  0.00    +0.000 OA
ENDROOT
BRANCH   1  13
ATOM     12  C   UNL     1       2.194   4.023  21.703  0.00  0.00    +0.000 C 
ATOM     13  C   UNL     1       2.589   3.340  20.395  0.00  0.00    +0.000 C 
BRANCH  13  14
ATOM     14  C   UNL     1       1.409   2.651  19.744  0.00  0.00    +0.000 C 
ATOM     15  O   UNL     1       1.486   1.819  18.856  0.00  0.00    +0.000 OA
BRANCH  14  16
ATOM     16  O   UNL     1       0.208   3.053  20.231  0.00  0.00    +0.000 OA
ATOM     17  H   UNL     1      -0.484   2.351  20.260  0.00  0.00    +0.000 HD
ENDBRANCH  14  16
ENDBRANCH  13  14
ENDBRANCH   1  13
BRANCH   3  18
ATOM     18  C   UNL     1       2.570   7.228  17.448  0.00  0.00    +0.000 C 
BRANCH  18  19
ATOM     19  C   UNL     1       2.290   8.488  18.212  0.00  0.00    +0.000 A 
ATOM     20  C   UNL     1       1.690   8.570  19.453  0.00  0.00    +0.000 A 
ATOM     21  N   UNL     1       1.054   9.777  19.400  0.00  0.00    +0.000 N 
ATOM     22  C   UNL     1      -0.169  10.137  19.950  0.00  0.00    +0.000 A 
ATOM     23  C   UNL     1      -0.686  11.343  19.634  0.00  0.00    +0.000 A 
ATOM     24  C   UNL     1       0.211  12.313  18.980  0.00  0.00    +0.000 A 
ATOM     25 CL   UNL     1      -0.177  13.997  19.065  0.00  0.00    +0.000 Cl
ATOM     26  C   UNL     1       1.371  11.921  18.408  0.00  0.00    +0.000 A 
ATOM     27  C   UNL     1       1.722  10.543  18.455  0.00  0.00    +0.000 A 
ATOM     28  N   UNL     1       2.434   9.758  17.667  0.00  0.00    +0.000 NA
BRANCH  23  29
ATOM     29  O   UNL     1      -1.993  11.748  19.800  0.00  0.00    +0.000 OA
BRANCH  29  30
ATOM     30  C   UNL     1      -2.860  11.636  18.669  0.00  0.00    +0.000 C 
BRANCH  30  31
ATOM     31  C   UNL     1      -2.583  10.351  17.946  0.00  0.00    +0.000 C 
ATOM     32  C   UNL     1      -3.551   9.788  16.936  0.00  0.00    +0.000 C 
ATOM     33  C   UNL     1      -2.253  10.388  16.471  0.00  0.00    +0.000 C 
ENDBRANCH  30  31
ENDBRANCH  29  30
ENDBRANCH  23  29
ENDBRANCH  18  19
ENDBRANCH   3  18
TORSDOF 8
ENDMDL
MODEL 9
REMARK VINA RESULT:      -8.4      2.900      4.503
REMARK  Name = 
REMARK  9 active torsions:
REMARK  status: ('A' for Active; 'I' for Inactive)
REMARK    1  A    between atoms: C_1  and  C_2
REMARK    2  A    between atoms: C_2  and  C_3
REMARK    3  A    between atoms: C_2  and  C_6
REMARK    4  A    between atoms: C_3  and  O_5
REMARK    5  A    between atoms: N_8  and  C_9
REMARK    6  A    between atoms: C_9  and  C_10
REMARK    7  A    between atoms: C_14  and  O_15
REMARK    8  A    between atoms: O_15  and  C_16
REMARK    9  A    between atoms: C_16  and  C_17
REMARK                            x       y       z     vdW  Elec       q    Type
REMARK                         _______ _______ _______ _____ _____    ______ ____
ROOT
ATOM      1  C   UNL     1       3.388   3.882  18.840  0.00  0.00    +0.000 A 
ATOM      2  N   UNL     1       3.375   5.175  18.917  0.00  0.00    +0.000 NA
ATOM      3  N   UNL     1       3.832   5.908  17.853  0.00  0.00    +0.000 N 
ATOM      4  C   UNL     1       4.607   5.356  16.826  0.00  0.00    +0.000 A 
ATOM      5  C   UNL     1       5.368   6.123  15.930  0.00  0.00    +0.000 A 
ATOM      6  C   UNL     1       6.117   5.531  14.906  0.00  0.00    +0.000 A 
ATOM      7  C   UNL     1       6.109   4.153  14.752  0.00  0.00    +0.000 A 
ATOM      8  C   UNL     1       5.361   3.360  15.618  0.00  0.00    +0.000 A 
ATOM      9  C   UNL     1       4.633   3.965  16.645  0.00  0.00    +0.000 A 
ATOM     10  C   UNL     1       3.839   3.174  17.588  0.00  0.00    +0.000 A 
ATOM     11  O   UNL     1       3.542   1.993  17.439  0.00  0.00    +0.000 OA
ENDROOT
BRANCH   1  13
ATOM     12  C   UNL     1       4.112   2.281  20.639  0.00  0.00    +0.000 C 
ATOM     13  C   UNL     1       2.936   2.992  19.973  0.00  0.00    +0.000 C 
BRANCH  13  14
ATOM     14  C   UNL     1       2.101   3.757  20.978  0.00  0.00    +0.000 C 
ATOM     15  O   UNL     1       2.233   3.699  22.188  0.00  0.00    +0.000 OA
BRANCH  14  16
ATOM     16  O   UNL     1       1.144   4.533  20.410  0.00  0.00    +0.000 OA
ATOM     17  H   UNL     1       0.277   4.086  20.268  0.00  0.00    +0.000 HD
ENDBRANCH  14  16
ENDBRANCH  13  14
ENDBRANCH   1  13
BRANCH   3  18
ATOM     18  C   UNL     1       3.653   7.362  17.931  0.00  0.00    +0.000 C 
BRANCH  18  19
ATOM     19  C   UNL     1       2.430   7.895  18.618  0.00  0.00    +0.000 A 
ATOM     20  C   UNL     1       1.642   8.941  18.179  0.00  0.00    +0.000 A 
ATOM     21  N   UNL     1       1.172   9.472  19.346  0.00  0.00    +0.000 N 
ATOM     22  C   UNL     1       0.931  10.803  19.658  0.00  0.00    +0.000 A 
ATOM     23  C   UNL     1       0.621  11.119  20.933  0.00  0.00    +0.000 A 
ATOM     24  C   UNL     1       0.260  10.011  21.836  0.00  0.00    +0.000 A 
ATOM     25 CL   UNL     1      -0.671  10.359  23.252  0.00  0.00    +0.000 Cl
ATOM     26  C   UNL     1       0.554   8.729  21.526  0.00  0.00    +0.000 A 
ATOM     27  C   UNL     1       1.219   8.462  20.296  0.00  0.00    +0.000 A 
ATOM     28  N   UNL     1       2.046   7.513  19.897  0.00  0.00    +0.000 NA
BRANCH  23  29
ATOM     29  O   UNL     1       0.667  12.372  21.506  0.00  0.00    +0.000 OA
BRANCH  29  30
ATOM     30  C   UNL     1      -0.389  13.278  21.176  0.00  0.00    +0.000 C 
BRANCH  30  31
ATOM     31  C   UNL     1       0.185  14.518  20.556  0.00  0.00    +0.000 C 
ATOM     32  C   UNL     1      -0.660  15.449  19.723  0.00  0.00    +0.000 C 
ATOM     33  C   UNL     1      -0.218  15.870  21.098  0.00  0.00    +0.000 C 
ENDBRANCH  30  31
ENDBRANCH  29  30
ENDBRANCH  23  29
ENDBRANCH  18  19
ENDBRANCH   3  18
TORSDOF 8
ENDMDL
