MODEL 1
REMARK VINA RESULT:      -9.1      0.000      0.000
REMARK  Name = 
REMARK  5 active torsions:
REMARK  status: ('A' for Active; 'I' for Inactive)
REMARK    1  A    between atoms: C_1  and  C_2
REMARK    2  A    between atoms: C_4  and  C_5
REMARK    3  A    between atoms: C_7  and  N_8
REMARK    4  A    between atoms: C_16  and  N_17
REMARK    5  A    between atoms: C_18  and  C_20
REMARK                            x       y       z     vdW  Elec       q    Type
REMARK                         _______ _______ _______ _____ _____    ______ ____
ROOT
ATOM      1  N   UNL     1       2.039   7.169  19.505  0.00  0.00    +0.000 N 
ATOM      2  N   UNL     1       1.715   6.919  20.805  0.00  0.00    +0.000 NA
ATOM      3  C   UNL     1       1.394   8.110  21.316  0.00  0.00    +0.000 A 
ATOM      4  C   UNL     1       1.323   9.119  20.340  0.00  0.00    +0.000 A 
ATOM      5  C   UNL     1       1.744   8.489  19.184  0.00  0.00    +0.000 A 
ATOM      6  C   UNL     1       1.839   9.114  17.844  0.00  0.00    +0.000 C 
ATOM      7  C   UNL     1       1.259  10.528  17.804  0.00  0.00    +0.000 C 
ATOM      8  C   UNL     1       1.234  11.328  19.116  0.00  0.00    +0.000 C 
ATOM      9  C   UNL     1       0.993  10.568  20.450  0.00  0.00    +0.000 C 
ENDROOT
BRANCH   1  16
ATOM     10  C   UNL     1       2.078   2.420  17.999  0.00  0.00    +0.000 C 
ATOM     11  C   UNL     1       2.655   3.803  17.949  0.00  0.00    +0.000 A 
ATOM     12  C   UNL     1       3.755   4.100  17.141  0.00  0.00    +0.000 A 
ATOM     13  C   UNL     1       4.255   5.405  17.062  0.00  0.00    +0.000 A 
ATOM     14  C   UNL     1       5.444   5.705  16.194  0.00  0.00    +0.000 C 
ATOM     15  C   UNL     1       3.655   6.428  17.820  0.00  0.00    +0.000 A 
ATOM     16  C   UNL     1       2.592   6.134  18.686  0.00  0.00    +0.000 A 
ATOM     17  C   UNL     1       2.083   4.828  18.719  0.00  0.00    +0.000 A 
ENDBRANCH   1  16
BRANCH   9  18
ATOM     18  N   UNL     1      -0.364  10.780  20.950  0.00  0.00    +0.000 N 
ATOM     19  C   UNL     1      -0.616  11.926  21.692  0.00  0.00    +0.000 C 
ATOM     20  O   UNL     1       0.289  12.693  22.017  0.00  0.00    +0.000 OA
ATOM     21  H   UNL     1      -1.056  10.053  20.833  0.00  0.00    +0.000 HD
BRANCH  19  22
ATOM     22  C   UNL     1      -2.020  12.294  22.061  0.00  0.00    +0.000 A 
ATOM     23  C   UNL     1      -2.881  12.654  20.969  0.00  0.00    +0.000 A 
ATOM     24  C   UNL     1      -4.266  12.885  21.087  0.00  0.00    +0.000 A 
ATOM     25  C   UNL     1      -4.766  12.659  22.378  0.00  0.00    +0.000 A 
ATOM     26  N   UNL     1      -6.032  12.694  22.811  0.00  0.00    +0.000 NA
ATOM     27  O   UNL     1      -5.979  12.346  24.149  0.00  0.00    +0.000 OA
ATOM     28  N   UNL     1      -4.677  12.140  24.579  0.00  0.00    +0.000 NA
ATOM     29  C   UNL     1      -3.904  12.308  23.500  0.00  0.00    +0.000 A 
ATOM     30  C   UNL     1      -2.505  12.159  23.378  0.00  0.00    +0.000 A 
ENDBRANCH  19  22
ENDBRANCH   9  18
TORSDOF 3
ENDMDL
MODEL 2
REMARK VINA RESULT:      -9.1      0.156      1.606
REMARK  Name = 
REMARK  5 active torsions:
REMARK  status: ('A' for Active; 'I' for Inactive)
REMARK    1  A    between atoms: C_1  and  C_2
REMARK    2  A    between atoms: C_4  and  C_5
REMARK    3  A    between atoms: C_7  and  N_8
REMARK    4  A    between atoms: C_16  and  N_17
REMARK    5  A    between atoms: C_18  and  C_20
REMARK                            x       y       z     vdW  Elec       q    Type
REMARK                         _______ _______ _______ _____ _____    ______ ____
ROOT
ATOM      1  N   UNL     1       2.040   7.084  19.610  0.00  0.00    +0.000 N 
ATOM      2  N   UNL     1       1.734   6.891  20.924  0.00  0.00    +0.000 NA
ATOM      3  C   UNL     1       1.412   8.102  21.385  0.00  0.00    +0.000 A 
ATOM      4  C   UNL     1       1.323   9.065  20.367  0.00  0.00    +0.000 A 
ATOM      5  C   UNL     1       1.733   8.386  19.234  0.00  0.00    +0.000 A 
ATOM      6  C   UNL     1       1.808   8.951  17.867  0.00  0.00    +0.000 C 
ATOM      7  C   UNL     1       1.219  10.358  17.771  0.00  0.00    +0.000 C 
ATOM      8  C   UNL     1       1.205  11.217  19.046  0.00  0.00    +0.000 C 
ATOM      9  C   UNL     1       0.985  10.516  20.415  0.00  0.00    +0.000 C 
ENDROOT
BRANCH   1  16
ATOM     10  C   UNL     1       5.409   5.424  16.336  0.00  0.00    +0.000 C 
ATOM     11  C   UNL     1       4.210   5.179  17.203  0.00  0.00    +0.000 A 
ATOM     12  C   UNL     1       3.588   3.930  17.243  0.00  0.00    +0.000 A 
ATOM     13  C   UNL     1       2.502   3.696  18.095  0.00  0.00    +0.000 A 
ATOM     14  C   UNL     1       1.839   2.348  18.118  0.00  0.00    +0.000 C 
ATOM     15  C   UNL     1       2.017   4.738  18.908  0.00  0.00    +0.000 A 
ATOM     16  C   UNL     1       2.590   6.016  18.832  0.00  0.00    +0.000 A 
ATOM     17  C   UNL     1       3.701   6.215  18.001  0.00  0.00    +0.000 A 
ENDBRANCH   1  16
BRANCH   9  18
ATOM     18  N   UNL     1      -0.367  10.742  20.922  0.00  0.00    +0.000 N 
ATOM     19  C   UNL     1      -0.602  11.891  21.666  0.00  0.00    +0.000 C 
ATOM     20  O   UNL     1       0.312  12.647  21.987  0.00  0.00    +0.000 OA
ATOM     21  H   UNL     1      -1.068  10.023  20.808  0.00  0.00    +0.000 HD
BRANCH  19  22
ATOM     22  C   UNL     1      -2.000  12.273  22.043  0.00  0.00    +0.000 A 
ATOM     23  C   UNL     1      -2.851  12.686  20.961  0.00  0.00    +0.000 A 
ATOM     24  C   UNL     1      -4.232  12.940  21.082  0.00  0.00    +0.000 A 
ATOM     25  C   UNL     1      -4.740  12.682  22.363  0.00  0.00    +0.000 A 
ATOM     26  N   UNL     1      -6.006  12.728  22.793  0.00  0.00    +0.000 NA
ATOM     27  O   UNL     1      -5.966  12.335  24.120  0.00  0.00    +0.000 OA
ATOM     28  N   UNL     1      -4.669  12.090  24.547  0.00  0.00    +0.000 NA
ATOM     29  C   UNL     1      -3.889  12.278  23.476  0.00  0.00    +0.000 A 
ATOM     30  C   UNL     1      -2.493  12.106  23.353  0.00  0.00    +0.000 A 
ENDBRANCH  19  22
ENDBRANCH   9  18
TORSDOF 3
ENDMDL
MODEL 3
REMARK VINA RESULT:      -8.8      3.736      9.783
REMARK  Name = 
REMARK  5 active torsions:
REMARK  status: ('A' for Active; 'I' for Inactive)
REMARK    1  A    between atoms: C_1  and  C_2
REMARK    2  A    between atoms: C_4  and  C_5
REMARK    3  A    between atoms: C_7  and  N_8
REMARK    4  A    between atoms: C_16  and  N_17
REMARK    5  A    between atoms: C_18  and  C_20
REMARK                            x       y       z     vdW  Elec       q    Type
REMARK                         _______ _______ _______ _____ _____    ______ ____
ROOT
ATOM      1  N   UNL     1      -3.730  11.094  17.834  0.00  0.00    +0.000 N 
ATOM      2  N   UNL     1      -3.489  10.228  16.810  0.00  0.00    +0.000 NA
ATOM      3  C   UNL     1      -2.162  10.079  16.788  0.00  0.00    +0.000 A 
ATOM      4  C   UNL     1      -1.530  10.685  17.886  0.00  0.00    +0.000 A 
ATOM      5  C   UNL     1      -2.559  11.332  18.544  0.00  0.00    +0.000 A 
ATOM      6  C   UNL     1      -2.428  12.118  19.792  0.00  0.00    +0.000 C 
ATOM      7  C   UNL     1      -1.034  12.023  20.413  0.00  0.00    +0.000 C 
ATOM      8  C   UNL     1       0.145  11.709  19.478  0.00  0.00    +0.000 C 
ATOM      9  C   UNL     1      -0.092  10.759  18.272  0.00  0.00    +0.000 C 
ENDROOT
BRANCH   1  16
ATOM     10  C   UNL     1      -7.414  14.187  16.539  0.00  0.00    +0.000 C 
ATOM     11  C   UNL     1      -6.862  13.139  17.456  0.00  0.00    +0.000 A 
ATOM     12  C   UNL     1      -7.595  12.674  18.550  0.00  0.00    +0.000 A 
ATOM     13  C   UNL     1      -7.093  11.657  19.371  0.00  0.00    +0.000 A 
ATOM     14  C   UNL     1      -7.892  11.176  20.549  0.00  0.00    +0.000 C 
ATOM     15  C   UNL     1      -5.824  11.109  19.104  0.00  0.00    +0.000 A 
ATOM     16  C   UNL     1      -5.048  11.610  18.049  0.00  0.00    +0.000 A 
ATOM     17  C   UNL     1      -5.588  12.600  17.217  0.00  0.00    +0.000 A 
ENDBRANCH   1  16
BRANCH   9  18
ATOM     18  N   UNL     1       0.475   9.434  18.514  0.00  0.00    +0.000 N 
ATOM     19  C   UNL     1       1.772   9.189  18.081  0.00  0.00    +0.000 C 
ATOM     20  O   UNL     1       2.396  10.016  17.420  0.00  0.00    +0.000 OA
ATOM     21  H   UNL     1      -0.112   8.704  18.893  0.00  0.00    +0.000 HD
BRANCH  19  22
ATOM     22  C   UNL     1       2.471   7.924  18.472  0.00  0.00    +0.000 A 
ATOM     23  C   UNL     1       2.009   7.299  19.681  0.00  0.00    +0.000 A 
ATOM     24  C   UNL     1       2.431   6.034  20.138  0.00  0.00    +0.000 A 
ATOM     25  C   UNL     1       3.307   5.381  19.259  0.00  0.00    +0.000 A 
ATOM     26  N   UNL     1       3.817   4.148  19.338  0.00  0.00    +0.000 NA
ATOM     27  O   UNL     1       4.575   3.982  18.192  0.00  0.00    +0.000 OA
ATOM     28  N   UNL     1       4.589   5.128  17.411  0.00  0.00    +0.000 NA
ATOM     29  C   UNL     1       3.796   6.007  18.035  0.00  0.00    +0.000 A 
ATOM     30  C   UNL     1       3.424   7.309  17.635  0.00  0.00    +0.000 A 
ENDBRANCH  19  22
ENDBRANCH   9  18
TORSDOF 3
ENDMDL
MODEL 4
REMARK VINA RESULT:      -8.7      3.552      5.440
REMARK  Name = 
REMARK  5 active torsions:
REMARK  status: ('A' for Active; 'I' for Inactive)
REMARK    1  A    between atoms: C_1  and  C_2
REMARK    2  A    between atoms: C_4  and  C_5
REMARK    3  A    between atoms: C_7  and  N_8
REMARK    4  A    between atoms: C_16  and  N_17
REMARK    5  A    between atoms: C_18  and  C_20
REMARK                            x       y       z     vdW  Elec       q    Type
REMARK                         _______ _______ _______ _____ _____    ______ ____
ROOT
ATOM      1  N   UNL     1       2.052   7.567  19.309  0.00  0.00    +0.000 N 
ATOM      2  N   UNL     1       2.131   8.123  18.068  0.00  0.00    +0.000 NA
ATOM      3  C   UNL     1       1.410   9.245  18.145  0.00  0.00    +0.000 A 
ATOM      4  C   UNL     1       1.002   9.539  19.456  0.00  0.00    +0.000 A 
ATOM      5  C   UNL     1       1.426   8.445  20.187  0.00  0.00    +0.000 A 
ATOM      6  C   UNL     1       1.256   8.261  21.647  0.00  0.00    +0.000 C 
ATOM      7  C   UNL     1       0.691   9.500  22.341  0.00  0.00    +0.000 C 
ATOM      8  C   UNL     1      -0.159  10.467  21.501  0.00  0.00    +0.000 C 
ATOM      9  C   UNL     1       0.206  10.674  20.005  0.00  0.00    +0.000 C 
ENDROOT
BRANCH   1  16
ATOM     10  C   UNL     1       5.696   4.219  18.738  0.00  0.00    +0.000 C 
ATOM     11  C   UNL     1       4.340   4.585  19.261  0.00  0.00    +0.000 A 
ATOM     12  C   UNL     1       3.557   3.660  19.956  0.00  0.00    +0.000 A 
ATOM     13  C   UNL     1       2.315   4.027  20.486  0.00  0.00    +0.000 A 
ATOM     14  C   UNL     1       1.482   3.016  21.223  0.00  0.00    +0.000 C 
ATOM     15  C   UNL     1       1.838   5.338  20.302  0.00  0.00    +0.000 A 
ATOM     16  C   UNL     1       2.582   6.260  19.550  0.00  0.00    +0.000 A 
ATOM     17  C   UNL     1       3.841   5.882  19.063  0.00  0.00    +0.000 A 
ENDBRANCH   1  16
BRANCH   9  18
ATOM     18  N   UNL     1       0.870  11.958  19.788  0.00  0.00    +0.000 N 
ATOM     19  C   UNL     1       0.283  12.857  18.907  0.00  0.00    +0.000 C 
ATOM     20  O   UNL     1      -0.707  12.553  18.244  0.00  0.00    +0.000 OA
ATOM     21  H   UNL     1       1.779  12.123  20.197  0.00  0.00    +0.000 HD
BRANCH  19  22
ATOM     22  C   UNL     1       0.807  14.255  18.794  0.00  0.00    +0.000 A 
ATOM     23  C   UNL     1       2.209  14.376  18.501  0.00  0.00    +0.000 A 
ATOM     24  C   UNL     1       2.860  15.591  18.208  0.00  0.00    +0.000 A 
ATOM     25  C   UNL     1       1.996  16.694  18.152  0.00  0.00    +0.000 A 
ATOM     26  N   UNL     1       2.265  17.960  17.813  0.00  0.00    +0.000 NA
ATOM     27  O   UNL     1       1.054  18.628  17.873  0.00  0.00    +0.000 OA
ATOM     28  N   UNL     1       0.027  17.801  18.299  0.00  0.00    +0.000 NA
ATOM     29  C   UNL     1       0.575  16.590  18.462  0.00  0.00    +0.000 A 
ATOM     30  C   UNL     1      -0.045  15.377  18.832  0.00  0.00    +0.000 A 
ENDBRANCH  19  22
ENDBRANCH   9  18
TORSDOF 3
ENDMDL
MODEL 5
REMARK VINA RESULT:      -8.7      3.524      5.221
REMARK  Name = 
REMARK  5 active torsions:
REMARK  status: ('A' for Active; 'I' for Inactive)
REMARK    1  A    between atoms: C_1  and  C_2
REMARK    2  A    between atoms: C_4  and  C_5
REMARK    3  A    between atoms: C_7  and  N_8
REMARK    4  A    between atoms: C_16  and  N_17
REMARK    5  A    between atoms: C_18  and  C_20
REMARK                            x       y       z     vdW  Elec       q    Type
REMARK                         _______ _______ _______ _____ _____    ______ ____
ROOT
ATOM      1  N   UNL     1       2.420   7.593  18.407  0.00  0.00    +0.000 N 
ATOM      2  N   UNL     1       2.474   8.442  17.343  0.00  0.00    +0.000 NA
ATOM      3  C   UNL     1       1.716   9.485  17.695  0.00  0.00    +0.000 A 
ATOM      4  C   UNL     1       1.306   9.430  19.037  0.00  0.00    +0.000 A 
ATOM      5  C   UNL     1       1.770   8.203  19.474  0.00  0.00    +0.000 A 
ATOM      6  C   UNL     1       1.615   7.656  20.842  0.00  0.00    +0.000 C 
ATOM      7  C   UNL     1       1.014   8.664  21.821  0.00  0.00    +0.000 C 
ATOM      8  C   UNL     1       0.127   9.781  21.246  0.00  0.00    +0.000 C 
ATOM      9  C   UNL     1       0.476  10.365  19.849  0.00  0.00    +0.000 C 
ENDROOT
BRANCH   1  16
ATOM     10  C   UNL     1       6.427   4.663  17.988  0.00  0.00    +0.000 C 
ATOM     11  C   UNL     1       4.940   4.822  18.081  0.00  0.00    +0.000 A 
ATOM     12  C   UNL     1       4.089   3.716  18.046  0.00  0.00    +0.000 A 
ATOM     13  C   UNL     1       2.705   3.870  18.186  0.00  0.00    +0.000 A 
ATOM     14  C   UNL     1       1.804   2.669  18.137  0.00  0.00    +0.000 C 
ATOM     15  C   UNL     1       2.160   5.158  18.346  0.00  0.00    +0.000 A 
ATOM     16  C   UNL     1       2.995   6.285  18.317  0.00  0.00    +0.000 A 
ATOM     17  C   UNL     1       4.381   6.103  18.215  0.00  0.00    +0.000 A 
ENDBRANCH   1  16
BRANCH   9  18
ATOM     18  N   UNL     1       1.097  11.684  19.960  0.00  0.00    +0.000 N 
ATOM     19  C   UNL     1       0.582  12.715  19.185  0.00  0.00    +0.000 C 
ATOM     20  O   UNL     1      -0.297  12.514  18.349  0.00  0.00    +0.000 OA
ATOM     21  H   UNL     1       1.936  11.795  20.512  0.00  0.00    +0.000 HD
BRANCH  19  22
ATOM     22  C   UNL     1       1.044  14.123  19.398  0.00  0.00    +0.000 A 
ATOM     23  C   UNL     1       2.376  14.274  19.917  0.00  0.00    +0.000 A 
ATOM     24  C   UNL     1       3.048  15.506  20.046  0.00  0.00    +0.000 A 
ATOM     25  C   UNL     1       2.323  16.598  19.548  0.00  0.00    +0.000 A 
ATOM     26  N   UNL     1       2.697  17.876  19.430  0.00  0.00    +0.000 NA
ATOM     27  O   UNL     1       1.630  18.525  18.832  0.00  0.00    +0.000 OA
ATOM     28  N   UNL     1       0.560  17.671  18.617  0.00  0.00    +0.000 NA
ATOM     29  C   UNL     1       0.965  16.464  19.032  0.00  0.00    +0.000 A 
ATOM     30  C   UNL     1       0.278  15.231  18.984  0.00  0.00    +0.000 A 
ENDBRANCH  19  22
ENDBRANCH   9  18
TORSDOF 3
ENDMDL
MODEL 6
REMARK VINA RESULT:      -8.7      3.508      5.199
REMARK  Name = 
REMARK  5 active torsions:
REMARK  status: ('A' for Active; 'I' for Inactive)
REMARK    1  A    between atoms: C_1  and  C_2
REMARK    2  A    between atoms: C_4  and  C_5
REMARK    3  A    between atoms: C_7  and  N_8
REMARK    4  A    between atoms: C_16  and  N_17
REMARK    5  A    between atoms: C_18  and  C_20
REMARK                            x       y       z     vdW  Elec       q    Type
REMARK                         _______ _______ _______ _____ _____    ______ ____
ROOT
ATOM      1  N   UNL     1       2.124   7.597  19.053  0.00  0.00    +0.000 N 
ATOM      2  N   UNL     1       2.325   8.176  17.837  0.00  0.00    +0.000 NA
ATOM      3  C   UNL     1       1.610   9.304  17.869  0.00  0.00    +0.000 A 
ATOM      4  C   UNL     1       1.083   9.576  19.142  0.00  0.00    +0.000 A 
ATOM      5  C   UNL     1       1.426   8.463  19.886  0.00  0.00    +0.000 A 
ATOM      6  C   UNL     1       1.117   8.251  21.320  0.00  0.00    +0.000 C 
ATOM      7  C   UNL     1       0.501   9.483  21.983  0.00  0.00    +0.000 C 
ATOM      8  C   UNL     1      -0.257  10.475  21.088  0.00  0.00    +0.000 C 
ATOM      9  C   UNL     1       0.249  10.708  19.637  0.00  0.00    +0.000 C 
ENDROOT
BRANCH   1  16
ATOM     10  C   UNL     1       1.576   3.136  21.203  0.00  0.00    +0.000 C 
ATOM     11  C   UNL     1       2.391   4.091  20.384  0.00  0.00    +0.000 A 
ATOM     12  C   UNL     1       3.650   3.735  19.896  0.00  0.00    +0.000 A 
ATOM     13  C   UNL     1       4.381   4.615  19.089  0.00  0.00    +0.000 A 
ATOM     14  C   UNL     1       5.738   4.218  18.580  0.00  0.00    +0.000 C 
ATOM     15  C   UNL     1       3.851   5.881  18.780  0.00  0.00    +0.000 A 
ATOM     16  C   UNL     1       2.618   6.279  19.316  0.00  0.00    +0.000 A 
ATOM     17  C   UNL     1       1.886   5.367  20.089  0.00  0.00    +0.000 A 
ENDBRANCH   1  16
BRANCH   9  18
ATOM     18  N   UNL     1       0.942  11.989  19.511  0.00  0.00    +0.000 N 
ATOM     19  C   UNL     1       0.316  13.003  18.798  0.00  0.00    +0.000 C 
ATOM     20  O   UNL     1      -0.739  12.810  18.197  0.00  0.00    +0.000 OA
ATOM     21  H   UNL     1       1.889  12.078  19.852  0.00  0.00    +0.000 HD
BRANCH  19  22
ATOM     22  C   UNL     1       0.884  14.389  18.800  0.00  0.00    +0.000 A 
ATOM     23  C   UNL     1      -0.074  15.458  18.735  0.00  0.00    +0.000 A 
ATOM     24  C   UNL     1       0.243  16.824  18.875  0.00  0.00    +0.000 A 
ATOM     25  C   UNL     1       1.595  17.061  19.163  0.00  0.00    +0.000 A 
ATOM     26  N   UNL     1       2.207  18.216  19.446  0.00  0.00    +0.000 NA
ATOM     27  O   UNL     1       3.527  17.887  19.702  0.00  0.00    +0.000 OA
ATOM     28  N   UNL     1       3.764  16.531  19.533  0.00  0.00    +0.000 NA
ATOM     29  C   UNL     1       2.582  15.989  19.218  0.00  0.00    +0.000 A 
ATOM     30  C   UNL     1       2.258  14.633  18.995  0.00  0.00    +0.000 A 
ENDBRANCH  19  22
ENDBRANCH   9  18
TORSDOF 3
ENDMDL
MODEL 7
REMARK VINA RESULT:      -8.7      3.484      5.041
REMARK  Name = 
REMARK  5 active torsions:
REMARK  status: ('A' for Active; 'I' for Inactive)
REMARK    1  A    between atoms: C_1  and  C_2
REMARK    2  A    between atoms: C_4  and  C_5
REMARK    3  A    between atoms: C_7  and  N_8
REMARK    4  A    between atoms: C_16  and  N_17
REMARK    5  A    between atoms: C_18  and  C_20
REMARK                            x       y       z     vdW  Elec       q    Type
REMARK                         _______ _______ _______ _____ _____    ______ ____
ROOT
ATOM      1  N   UNL     1       2.330   7.658  18.477  0.00  0.00    +0.000 N 
ATOM      2  N   UNL     1       2.378   8.515  17.418  0.00  0.00    +0.000 NA
ATOM      3  C   UNL     1       1.632   9.561  17.786  0.00  0.00    +0.000 A 
ATOM      4  C   UNL     1       1.237   9.498  19.132  0.00  0.00    +0.000 A 
ATOM      5  C   UNL     1       1.697   8.265  19.555  0.00  0.00    +0.000 A 
ATOM      6  C   UNL     1       1.553   7.709  20.920  0.00  0.00    +0.000 C 
ATOM      7  C   UNL     1       0.970   8.715  21.914  0.00  0.00    +0.000 C 
ATOM      8  C   UNL     1       0.086   9.842  21.356  0.00  0.00    +0.000 C 
ATOM      9  C   UNL     1       0.423  10.434  19.960  0.00  0.00    +0.000 C 
ENDROOT
BRANCH   1  16
ATOM     10  C   UNL     1       1.741   2.717  18.251  0.00  0.00    +0.000 C 
ATOM     11  C   UNL     1       2.638   3.917  18.288  0.00  0.00    +0.000 A 
ATOM     12  C   UNL     1       4.028   3.783  18.258  0.00  0.00    +0.000 A 
ATOM     13  C   UNL     1       4.857   4.911  18.241  0.00  0.00    +0.000 A 
ATOM     14  C   UNL     1       6.350   4.748  18.218  0.00  0.00    +0.000 C 
ATOM     15  C   UNL     1       4.285   6.197  18.274  0.00  0.00    +0.000 A 
ATOM     16  C   UNL     1       2.894   6.347  18.371  0.00  0.00    +0.000 A 
ATOM     17  C   UNL     1       2.083   5.204  18.347  0.00  0.00    +0.000 A 
ENDBRANCH   1  16
BRANCH   9  18
ATOM     18  N   UNL     1       1.055  11.748  20.074  0.00  0.00    +0.000 N 
ATOM     19  C   UNL     1       0.585  12.771  19.261  0.00  0.00    +0.000 C 
ATOM     20  O   UNL     1      -0.262  12.565  18.393  0.00  0.00    +0.000 OA
ATOM     21  H   UNL     1       1.872  11.858  20.658  0.00  0.00    +0.000 HD
BRANCH  19  22
ATOM     22  C   UNL     1       1.055  14.177  19.468  0.00  0.00    +0.000 A 
ATOM     23  C   UNL     1       2.305  14.324  20.163  0.00  0.00    +0.000 A 
ATOM     24  C   UNL     1       2.989  15.545  20.326  0.00  0.00    +0.000 A 
ATOM     25  C   UNL     1       2.374  16.626  19.677  0.00  0.00    +0.000 A 
ATOM     26  N   UNL     1       2.800  17.887  19.552  0.00  0.00    +0.000 NA
ATOM     27  O   UNL     1       1.848  18.528  18.778  0.00  0.00    +0.000 OA
ATOM     28  N   UNL     1       0.793  17.689  18.455  0.00  0.00    +0.000 NA
ATOM     29  C   UNL     1       1.099  16.496  18.981  0.00  0.00    +0.000 A 
ATOM     30  C   UNL     1       0.388  15.279  18.897  0.00  0.00    +0.000 A 
ENDBRANCH  19  22
ENDBRANCH   9  18
TORSDOF 3
ENDMDL
MODEL 8
REMARK VINA RESULT:      -8.7      3.541      5.393
REMARK  Name = 
REMARK  5 active torsions:
REMARK  status: ('A' for Active; 'I' for Inactive)
REMARK    1  A    between atoms: C_1  and  C_2
REMARK    2  A    between atoms: C_4  and  C_5
REMARK    3  A    between atoms: C_7  and  N_8
REMARK    4  A    between atoms: C_16  and  N_17
REMARK    5  A    between atoms: C_18  and  C_20
REMARK                            x       y       z     vdW  Elec       q    Type
REMARK                         _______ _______ _______ _____ _____    ______ ____
ROOT
ATOM      1  N   UNL     1       2.164   7.699  19.107  0.00  0.00    +0.000 N 
ATOM      2  N   UNL     1       2.340   8.268  17.882  0.00  0.00    +0.000 NA
ATOM      3  C   UNL     1       1.607   9.385  17.911  0.00  0.00    +0.000 A 
ATOM      4  C   UNL     1       1.092   9.663  19.188  0.00  0.00    +0.000 A 
ATOM      5  C   UNL     1       1.463   8.564  19.940  0.00  0.00    +0.000 A 
ATOM      6  C   UNL     1       1.176   8.364  21.379  0.00  0.00    +0.000 C 
ATOM      7  C   UNL     1       0.549   9.593  22.037  0.00  0.00    +0.000 C 
ATOM      8  C   UNL     1      -0.237  10.563  21.141  0.00  0.00    +0.000 C 
ATOM      9  C   UNL     1       0.246  10.787  19.681  0.00  0.00    +0.000 C 
ENDROOT
BRANCH   1  16
ATOM     10  C   UNL     1       5.700   4.247  18.479  0.00  0.00    +0.000 C 
ATOM     11  C   UNL     1       4.386   4.667  19.064  0.00  0.00    +0.000 A 
ATOM     12  C   UNL     1       3.628   3.793  19.847  0.00  0.00    +0.000 A 
ATOM     13  C   UNL     1       2.428   4.212  20.433  0.00  0.00    +0.000 A 
ATOM     14  C   UNL     1       1.622   3.255  21.265  0.00  0.00    +0.000 C 
ATOM     15  C   UNL     1       1.967   5.524  20.215  0.00  0.00    +0.000 A 
ATOM     16  C   UNL     1       2.682   6.393  19.378  0.00  0.00    +0.000 A 
ATOM     17  C   UNL     1       3.901   5.964  18.835  0.00  0.00    +0.000 A 
ENDBRANCH   1  16
BRANCH   9  18
ATOM     18  N   UNL     1       0.917  12.077  19.531  0.00  0.00    +0.000 N 
ATOM     19  C   UNL     1       0.248  13.086  18.850  0.00  0.00    +0.000 C 
ATOM     20  O   UNL     1      -0.829  12.881  18.294  0.00  0.00    +0.000 OA
ATOM     21  H   UNL     1       1.877  12.177  19.832  0.00  0.00    +0.000 HD
BRANCH  19  22
ATOM     22  C   UNL     1       0.798  14.479  18.835  0.00  0.00    +0.000 A 
ATOM     23  C   UNL     1      -0.175  15.535  18.769  0.00  0.00    +0.000 A 
ATOM     24  C   UNL     1       0.126  16.906  18.894  0.00  0.00    +0.000 A 
ATOM     25  C   UNL     1       1.477  17.163  19.167  0.00  0.00    +0.000 A 
ATOM     26  N   UNL     1       2.077  18.329  19.433  0.00  0.00    +0.000 NA
ATOM     27  O   UNL     1       3.403  18.019  19.680  0.00  0.00    +0.000 OA
ATOM     28  N   UNL     1       3.657  16.665  19.521  0.00  0.00    +0.000 NA
ATOM     29  C   UNL     1       2.479  16.104  19.222  0.00  0.00    +0.000 A 
ATOM     30  C   UNL     1       2.170  14.742  19.015  0.00  0.00    +0.000 A 
ENDBRANCH  19  22
ENDBRANCH   9  18
TORSDOF 3
ENDMDL
MODEL 9
REMARK VINA RESULT:      -8.5      3.617      5.656
REMARK  Name = 
REMARK  5 active torsions:
REMARK  status: ('A' for Active; 'I' for Inactive)
REMARK    1  A    between atoms: C_1  and  C_2
REMARK    2  A    between atoms: C_4  and  C_5
REMARK    3  A    between atoms: C_7  and  N_8
REMARK    4  A    between atoms: C_16  and  N_17
REMARK    5  A    between atoms: C_18  and  C_20
REMARK                            x       y       z     vdW  Elec       q    Type
REMARK                         _______ _______ _______ _____ _____    ______ ____
ROOT
ATOM      1  N   UNL     1       2.141   7.646  18.874  0.00  0.00    +0.000 N 
ATOM      2  N   UNL     1       2.439   8.297  17.714  0.00  0.00    +0.000 NA
ATOM      3  C   UNL     1       1.849   9.490  17.826  0.00  0.00    +0.000 A 
ATOM      4  C   UNL     1       1.317   9.715  19.106  0.00  0.00    +0.000 A 
ATOM      5  C   UNL     1       1.516   8.514  19.762  0.00  0.00    +0.000 A 
ATOM      6  C   UNL     1       1.144   8.223  21.166  0.00  0.00    +0.000 C 
ATOM      7  C   UNL     1       0.645   9.456  21.917  0.00  0.00    +0.000 C 
ATOM      8  C   UNL     1       0.025  10.596  21.092  0.00  0.00    +0.000 C 
ATOM      9  C   UNL     1       0.596  10.888  19.677  0.00  0.00    +0.000 C 
ENDROOT
BRANCH   1  16
ATOM     10  C   UNL     1       2.111   3.491  21.621  0.00  0.00    +0.000 C 
ATOM     11  C   UNL     1       2.509   4.219  20.373  0.00  0.00    +0.000 A 
ATOM     12  C   UNL     1       3.244   3.586  19.368  0.00  0.00    +0.000 A 
ATOM     13  C   UNL     1       3.567   4.258  18.184  0.00  0.00    +0.000 A 
ATOM     14  C   UNL     1       4.366   3.564  17.117  0.00  0.00    +0.000 C 
ATOM     15  C   UNL     1       3.163   5.595  18.009  0.00  0.00    +0.000 A 
ATOM     16  C   UNL     1       2.482   6.266  19.036  0.00  0.00    +0.000 A 
ATOM     17  C   UNL     1       2.136   5.560  20.196  0.00  0.00    +0.000 A 
ENDBRANCH   1  16
BRANCH   9  18
ATOM     18  N   UNL     1       1.427  12.091  19.672  0.00  0.00    +0.000 N 
ATOM     19  C   UNL     1       1.004  13.173  18.912  0.00  0.00    +0.000 C 
ATOM     20  O   UNL     1       0.021  13.098  18.177  0.00  0.00    +0.000 OA
ATOM     21  H   UNL     1       2.326  12.076  20.133  0.00  0.00    +0.000 HD
BRANCH  19  22
ATOM     22  C   UNL     1       1.705  14.492  19.021  0.00  0.00    +0.000 A 
ATOM     23  C   UNL     1       1.104  15.449  19.909  0.00  0.00    +0.000 A 
ATOM     24  C   UNL     1       1.684  16.683  20.264  0.00  0.00    +0.000 A 
ATOM     25  C   UNL     1       2.964  16.879  19.725  0.00  0.00    +0.000 A 
ATOM     26  N   UNL     1       3.823  17.883  19.934  0.00  0.00    +0.000 NA
ATOM     27  O   UNL     1       4.956  17.564  19.206  0.00  0.00    +0.000 OA
ATOM     28  N   UNL     1       4.799  16.383  18.495  0.00  0.00    +0.000 NA
ATOM     29  C   UNL     1       3.582  15.925  18.811  0.00  0.00    +0.000 A 
ATOM     30  C   UNL     1       2.949  14.730  18.404  0.00  0.00    +0.000 A 
ENDBRANCH  19  22
ENDBRANCH   9  18
TORSDOF 3
ENDMDL
