MODEL 1
REMARK VINA RESULT:      -8.1      0.000      0.000
REMARK  Name = 
REMARK  10 active torsions:
REMARK  status: ('A' for Active; 'I' for Inactive)
REMARK    1  A    between atoms: C_1  and  C_2
REMARK    2  A    between atoms: C_2  and  O_3
REMARK    3  A    between atoms: O_3  and  C_4
REMARK    4  A    between atoms: C_4  and  C_6
REMARK    5  A    between atoms: C_6  and  C_7
REMARK    6  A    between atoms: C_7  and  N_8
REMARK    7  A    between atoms: C_12  and  C_14
REMARK    8  A    between atoms: C_14  and  C_15
REMARK    9  A    between atoms: C_14  and  C_21
REMARK   10  A    between atoms: C_15  and  C_16
REMARK                            x       y       z     vdW  Elec       q    Type
REMARK                         _______ _______ _______ _____ _____    ______ ____
ROOT
ATOM      1  N   UNL     1       7.826   7.845  17.822  0.00  0.00    +0.000 N 
ATOM      2  C   UNL     1       7.620   6.598  18.331  0.00  0.00    +0.000 C 
ATOM      3  O   UNL     1       8.252   6.127  19.270  0.00  0.00    +0.000 OA
ATOM      4  N   UNL     1       6.622   5.862  17.737  0.00  0.00    +0.000 N 
ATOM      5  C   UNL     1       5.640   6.303  16.861  0.00  0.00    +0.000 C 
ATOM      6  O   UNL     1       5.620   7.436  16.380  0.00  0.00    +0.000 OA
ATOM      7  H   UNL     1       7.175   8.156  17.107  0.00  0.00    +0.000 HD
ATOM      8  H   UNL     1       6.531   4.949  18.153  0.00  0.00    +0.000 HD
ENDROOT
BRANCH   1   9
ATOM      9  C   UNL     1       8.671   8.832  18.464  0.00  0.00    +0.000 C 
BRANCH   9  10
ATOM     10  C   UNL     1       8.464  10.238  17.920  0.00  0.00    +0.000 C 
BRANCH  10  11
ATOM     11  C   UNL     1       9.578  11.136  18.393  0.00  0.00    +0.000 C 
ATOM     12  O   UNL     1      10.315  10.906  19.340  0.00  0.00    +0.000 OA
BRANCH  11  13
ATOM     13  O   UNL     1       9.570  12.286  17.662  0.00  0.00    +0.000 OA
BRANCH  13  15
ATOM     14  C   UNL     1      11.490  13.340  16.714  0.00  0.00    +0.000 C 
ATOM     15  C   UNL     1      10.634  13.202  17.960  0.00  0.00    +0.000 C 
ENDBRANCH  13  15
ENDBRANCH  11  13
ENDBRANCH  10  11
ENDBRANCH   9  10
ENDBRANCH   1   9
BRANCH   5  16
ATOM     16  C   UNL     1       4.632   5.214  16.452  0.00  0.00    +0.000 C 
BRANCH  16  17
ATOM     17  C   UNL     1       4.026   4.576  17.712  0.00  0.00    +0.000 A 
ATOM     18  C   UNL     1       4.281   3.235  18.031  0.00  0.00    +0.000 A 
ATOM     19  C   UNL     1       3.711   2.653  19.170  0.00  0.00    +0.000 A 
ATOM     20  C   UNL     1       2.880   3.400  20.012  0.00  0.00    +0.000 A 
ATOM     21 CL   UNL     1       2.203   2.612  21.388  0.00  0.00    +0.000 Cl
ATOM     22  C   UNL     1       2.631   4.744  19.717  0.00  0.00    +0.000 A 
ATOM     23 CL   UNL     1       1.636   5.740  20.713  0.00  0.00    +0.000 Cl
ATOM     24  C   UNL     1       3.203   5.324  18.575  0.00  0.00    +0.000 A 
ENDBRANCH  16  17
BRANCH  16  25
ATOM     25  C   UNL     1       5.281   4.114  15.582  0.00  0.00    +0.000 C 
BRANCH  25  26
ATOM     26  C   UNL     1       5.701   4.512  14.154  0.00  0.00    +0.000 C 
ATOM     27  C   UNL     1       7.182   4.908  14.125  0.00  0.00    +0.000 C 
ATOM     28  C   UNL     1       7.580   4.818  12.662  0.00  0.00    +0.000 C 
ATOM     29  C   UNL     1       6.688   3.738  12.060  0.00  0.00    +0.000 C 
ATOM     30  C   UNL     1       5.635   3.391  13.117  0.00  0.00    +0.000 C 
ENDBRANCH  25  26
ENDBRANCH  16  25
ENDBRANCH   5  16
TORSDOF 9
ENDMDL
MODEL 2
REMARK VINA RESULT:      -8.0      0.937      1.309
REMARK  Name = 
REMARK  10 active torsions:
REMARK  status: ('A' for Active; 'I' for Inactive)
REMARK    1  A    between atoms: C_1  and  C_2
REMARK    2  A    between atoms: C_2  and  O_3
REMARK    3  A    between atoms: O_3  and  C_4
REMARK    4  A    between atoms: C_4  and  C_6
REMARK    5  A    between atoms: C_6  and  C_7
REMARK    6  A    between atoms: C_7  and  N_8
REMARK    7  A    between atoms: C_12  and  C_14
REMARK    8  A    between atoms: C_14  and  C_15
REMARK    9  A    between atoms: C_14  and  C_21
REMARK   10  A    between atoms: C_15  and  C_16
REMARK                            x       y       z     vdW  Elec       q    Type
REMARK                         _______ _______ _______ _____ _____    ______ ____
ROOT
ATOM      1  N   UNL     1       7.815   7.763  17.893  0.00  0.00    +0.000 N 
ATOM      2  C   UNL     1       7.635   6.476  18.304  0.00  0.00    +0.000 C 
ATOM      3  O   UNL     1       8.276   5.946  19.203  0.00  0.00    +0.000 OA
ATOM      4  N   UNL     1       6.651   5.769  17.653  0.00  0.00    +0.000 N 
ATOM      5  C   UNL     1       5.660   6.258  16.813  0.00  0.00    +0.000 C 
ATOM      6  O   UNL     1       5.617   7.424  16.422  0.00  0.00    +0.000 OA
ATOM      7  H   UNL     1       7.158   8.116  17.204  0.00  0.00    +0.000 HD
ATOM      8  H   UNL     1       6.578   4.825  17.996  0.00  0.00    +0.000 HD
ENDROOT
BRANCH   1   9
ATOM      9  C   UNL     1       8.640   8.713  18.611  0.00  0.00    +0.000 C 
BRANCH   9  10
ATOM     10  C   UNL     1       8.583  10.116  18.025  0.00  0.00    +0.000 C 
BRANCH  10  11
ATOM     11  C   UNL     1       9.659  10.971  18.641  0.00  0.00    +0.000 C 
ATOM     12  O   UNL     1      10.643  11.397  18.054  0.00  0.00    +0.000 OA
BRANCH  11  13
ATOM     13  O   UNL     1       9.416  11.112  19.974  0.00  0.00    +0.000 OA
BRANCH  13  15
ATOM     14  C   UNL     1       9.661  12.730  21.711  0.00  0.00    +0.000 C 
ATOM     15  C   UNL     1      10.395  11.874  20.694  0.00  0.00    +0.000 C 
ENDBRANCH  13  15
ENDBRANCH  11  13
ENDBRANCH  10  11
ENDBRANCH   9  10
ENDBRANCH   1   9
BRANCH   5  16
ATOM     16  C   UNL     1       4.674   5.183  16.319  0.00  0.00    +0.000 C 
BRANCH  16  17
ATOM     17  C   UNL     1       3.984   4.526  17.524  0.00  0.00    +0.000 A 
ATOM     18  C   UNL     1       4.066   3.143  17.732  0.00  0.00    +0.000 A 
ATOM     19  C   UNL     1       3.419   2.546  18.822  0.00  0.00    +0.000 A 
ATOM     20  C   UNL     1       2.683   3.321  19.725  0.00  0.00    +0.000 A 
ATOM     21 CL   UNL     1       1.904   2.515  21.034  0.00  0.00    +0.000 Cl
ATOM     22  C   UNL     1       2.608   4.705  19.541  0.00  0.00    +0.000 A 
ATOM     23 CL   UNL     1       1.739   5.734  20.619  0.00  0.00    +0.000 Cl
ATOM     24  C   UNL     1       3.255   5.299  18.448  0.00  0.00    +0.000 A 
ENDBRANCH  16  17
BRANCH  16  25
ATOM     25  C   UNL     1       5.371   4.096  15.471  0.00  0.00    +0.000 C 
BRANCH  25  26
ATOM     26  C   UNL     1       5.781   4.485  14.038  0.00  0.00    +0.000 C 
ATOM     27  C   UNL     1       7.243   4.943  14.007  0.00  0.00    +0.000 C 
ATOM     28  C   UNL     1       7.652   4.842  12.548  0.00  0.00    +0.000 C 
ATOM     29  C   UNL     1       6.810   3.715  11.963  0.00  0.00    +0.000 C 
ATOM     30  C   UNL     1       5.767   3.343  13.022  0.00  0.00    +0.000 C 
ENDBRANCH  25  26
ENDBRANCH  16  25
ENDBRANCH   5  16
TORSDOF 9
ENDMDL
MODEL 3
REMARK VINA RESULT:      -7.8      4.937      7.081
REMARK  Name = 
REMARK  10 active torsions:
REMARK  status: ('A' for Active; 'I' for Inactive)
REMARK    1  A    between atoms: C_1  and  C_2
REMARK    2  A    between atoms: C_2  and  O_3
REMARK    3  A    between atoms: O_3  and  C_4
REMARK    4  A    between atoms: C_4  and  C_6
REMARK    5  A    between atoms: C_6  and  C_7
REMARK    6  A    between atoms: C_7  and  N_8
REMARK    7  A    between atoms: C_12  and  C_14
REMARK    8  A    between atoms: C_14  and  C_15
REMARK    9  A    between atoms: C_14  and  C_21
REMARK   10  A    between atoms: C_15  and  C_16
REMARK                            x       y       z     vdW  Elec       q    Type
REMARK                         _______ _______ _______ _____ _____    ______ ____
ROOT
ATOM      1  N   UNL     1       1.009  10.436  19.436  0.00  0.00    +0.000 N 
ATOM      2  C   UNL     1       1.081   9.241  20.089  0.00  0.00    +0.000 C 
ATOM      3  O   UNL     1       0.582   9.028  21.187  0.00  0.00    +0.000 OA
ATOM      4  N   UNL     1       1.751   8.236  19.432  0.00  0.00    +0.000 N 
ATOM      5  C   UNL     1       2.145   8.197  18.102  0.00  0.00    +0.000 C 
ATOM      6  O   UNL     1       2.059   9.161  17.341  0.00  0.00    +0.000 OA
ATOM      7  H   UNL     1       1.381  10.459  18.491  0.00  0.00    +0.000 HD
ATOM      8  H   UNL     1       1.776   7.386  19.973  0.00  0.00    +0.000 HD
ENDROOT
BRANCH   1   9
ATOM      9  C   UNL     1       0.159  11.525  19.871  0.00  0.00    +0.000 C 
BRANCH   9  10
ATOM     10  C   UNL     1      -0.505  12.262  18.717  0.00  0.00    +0.000 C 
BRANCH  10  11
ATOM     11  C   UNL     1      -1.765  11.544  18.311  0.00  0.00    +0.000 C 
ATOM     12  O   UNL     1      -2.896  11.855  18.655  0.00  0.00    +0.000 OA
BRANCH  11  13
ATOM     13  O   UNL     1      -1.440  10.439  17.583  0.00  0.00    +0.000 OA
BRANCH  13  15
ATOM     14  C   UNL     1      -2.728  10.179  15.591  0.00  0.00    +0.000 C 
ATOM     15  C   UNL     1      -2.555   9.726  17.029  0.00  0.00    +0.000 C 
ENDBRANCH  13  15
ENDBRANCH  11  13
ENDBRANCH  10  11
ENDBRANCH   9  10
ENDBRANCH   1   9
BRANCH   5  16
ATOM     16  C   UNL     1       2.808   6.872  17.685  0.00  0.00    +0.000 C 
BRANCH  16  17
ATOM     17  C   UNL     1       2.435   5.772  18.691  0.00  0.00    +0.000 A 
ATOM     18  C   UNL     1       2.803   5.878  20.038  0.00  0.00    +0.000 A 
ATOM     19  C   UNL     1       2.477   4.863  20.948  0.00  0.00    +0.000 A 
ATOM     20  C   UNL     1       1.774   3.728  20.528  0.00  0.00    +0.000 A 
ATOM     21 CL   UNL     1       1.421   2.516  21.701  0.00  0.00    +0.000 Cl
ATOM     22  C   UNL     1       1.384   3.618  19.190  0.00  0.00    +0.000 A 
ATOM     23 CL   UNL     1       0.497   2.263  18.595  0.00  0.00    +0.000 Cl
ATOM     24  C   UNL     1       1.713   4.635  18.282  0.00  0.00    +0.000 A 
ENDBRANCH  16  17
BRANCH  16  25
ATOM     25  C   UNL     1       4.346   6.989  17.599  0.00  0.00    +0.000 C 
BRANCH  25  26
ATOM     26  C   UNL     1       5.131   5.690  17.334  0.00  0.00    +0.000 C 
ATOM     27  C   UNL     1       5.593   5.635  15.873  0.00  0.00    +0.000 C 
ATOM     28  C   UNL     1       6.707   4.602  15.856  0.00  0.00    +0.000 C 
ATOM     29  C   UNL     1       7.343   4.661  17.241  0.00  0.00    +0.000 C 
ATOM     30  C   UNL     1       6.443   5.550  18.105  0.00  0.00    +0.000 C 
ENDBRANCH  25  26
ENDBRANCH  16  25
ENDBRANCH   5  16
TORSDOF 9
ENDMDL
MODEL 4
REMARK VINA RESULT:      -7.8      0.957      1.698
REMARK  Name = 
REMARK  10 active torsions:
REMARK  status: ('A' for Active; 'I' for Inactive)
REMARK    1  A    between atoms: C_1  and  C_2
REMARK    2  A    between atoms: C_2  and  O_3
REMARK    3  A    between atoms: O_3  and  C_4
REMARK    4  A    between atoms: C_4  and  C_6
REMARK    5  A    between atoms: C_6  and  C_7
REMARK    6  A    between atoms: C_7  and  N_8
REMARK    7  A    between atoms: C_12  and  C_14
REMARK    8  A    between atoms: C_14  and  C_15
REMARK    9  A    between atoms: C_14  and  C_21
REMARK   10  A    between atoms: C_15  and  C_16
REMARK                            x       y       z     vdW  Elec       q    Type
REMARK                         _______ _______ _______ _____ _____    ______ ____
ROOT
ATOM      1  N   UNL     1       7.951   7.833  17.846  0.00  0.00    +0.000 N 
ATOM      2  C   UNL     1       7.709   6.595  18.363  0.00  0.00    +0.000 C 
ATOM      3  O   UNL     1       8.234   6.162  19.381  0.00  0.00    +0.000 OA
ATOM      4  N   UNL     1       6.800   5.824  17.676  0.00  0.00    +0.000 N 
ATOM      5  C   UNL     1       5.919   6.222  16.680  0.00  0.00    +0.000 C 
ATOM      6  O   UNL     1       5.936   7.341  16.168  0.00  0.00    +0.000 OA
ATOM      7  H   UNL     1       7.383   8.112  17.051  0.00  0.00    +0.000 HD
ATOM      8  H   UNL     1       6.676   4.920  18.104  0.00  0.00    +0.000 HD
ENDROOT
BRANCH   1   9
ATOM      9  C   UNL     1       8.696   8.853  18.554  0.00  0.00    +0.000 C 
BRANCH   9  10
ATOM     10  C   UNL     1       8.419  10.259  18.042  0.00  0.00    +0.000 C 
BRANCH  10  11
ATOM     11  C   UNL     1       9.487  11.201  18.534  0.00  0.00    +0.000 C 
ATOM     12  O   UNL     1       9.437  11.842  19.573  0.00  0.00    +0.000 OA
BRANCH  11  13
ATOM     13  O   UNL     1      10.468  11.301  17.594  0.00  0.00    +0.000 OA
BRANCH  13  15
ATOM     14  C   UNL     1      11.769  13.226  17.048  0.00  0.00    +0.000 C 
ATOM     15  C   UNL     1      11.623  12.050  17.997  0.00  0.00    +0.000 C 
ENDBRANCH  13  15
ENDBRANCH  11  13
ENDBRANCH  10  11
ENDBRANCH   9  10
ENDBRANCH   1   9
BRANCH   5  16
ATOM     16  C   UNL     1       4.986   5.101  16.187  0.00  0.00    +0.000 C 
BRANCH  16  17
ATOM     17  C   UNL     1       3.896   4.841  17.237  0.00  0.00    +0.000 A 
ATOM     18  C   UNL     1       3.234   5.906  17.863  0.00  0.00    +0.000 A 
ATOM     19  C   UNL     1       2.254   5.664  18.834  0.00  0.00    +0.000 A 
ATOM     20  C   UNL     1       1.913   4.354  19.192  0.00  0.00    +0.000 A 
ATOM     21 CL   UNL     1       0.707   4.135  20.404  0.00  0.00    +0.000 Cl
ATOM     22  C   UNL     1       2.551   3.282  18.562  0.00  0.00    +0.000 A 
ATOM     23 CL   UNL     1       2.176   1.639  18.929  0.00  0.00    +0.000 Cl
ATOM     24  C   UNL     1       3.534   3.528  17.591  0.00  0.00    +0.000 A 
ENDBRANCH  16  17
BRANCH  16  25
ATOM     25  C   UNL     1       5.749   3.788  15.903  0.00  0.00    +0.000 C 
BRANCH  25  26
ATOM     26  C   UNL     1       6.464   3.675  14.544  0.00  0.00    +0.000 C 
ATOM     27  C   UNL     1       5.438   3.594  13.407  0.00  0.00    +0.000 C 
ATOM     28  C   UNL     1       6.217   3.957  12.154  0.00  0.00    +0.000 C 
ATOM     29  C   UNL     1       7.320   4.903  12.615  0.00  0.00    +0.000 C 
ATOM     30  C   UNL     1       7.307   4.887  14.147  0.00  0.00    +0.000 C 
ENDBRANCH  25  26
ENDBRANCH  16  25
ENDBRANCH   5  16
TORSDOF 9
ENDMDL
MODEL 5
REMARK VINA RESULT:      -7.7      0.860      1.141
REMARK  Name = 
REMARK  10 active torsions:
REMARK  status: ('A' for Active; 'I' for Inactive)
REMARK    1  A    between atoms: C_1  and  C_2
REMARK    2  A    between atoms: C_2  and  O_3
REMARK    3  A    between atoms: O_3  and  C_4
REMARK    4  A    between atoms: C_4  and  C_6
REMARK    5  A    between atoms: C_6  and  C_7
REMARK    6  A    between atoms: C_7  and  N_8
REMARK    7  A    between atoms: C_12  and  C_14
REMARK    8  A    between atoms: C_14  and  C_15
REMARK    9  A    between atoms: C_14  and  C_21
REMARK   10  A    between atoms: C_15  and  C_16
REMARK                            x       y       z     vdW  Elec       q    Type
REMARK                         _______ _______ _______ _____ _____    ______ ____
ROOT
ATOM      1  N   UNL     1       7.909   7.860  17.890  0.00  0.00    +0.000 N 
ATOM      2  C   UNL     1       7.733   6.594  18.364  0.00  0.00    +0.000 C 
ATOM      3  O   UNL     1       8.293   6.150  19.360  0.00  0.00    +0.000 OA
ATOM      4  N   UNL     1       6.853   5.805  17.662  0.00  0.00    +0.000 N 
ATOM      5  C   UNL     1       5.940   6.197  16.691  0.00  0.00    +0.000 C 
ATOM      6  O   UNL     1       5.897   7.333  16.221  0.00  0.00    +0.000 OA
ATOM      7  H   UNL     1       7.318   8.140  17.113  0.00  0.00    +0.000 HD
ATOM      8  H   UNL     1       6.778   4.882  18.058  0.00  0.00    +0.000 HD
ENDROOT
BRANCH   1   9
ATOM      9  C   UNL     1       8.616   8.889  18.626  0.00  0.00    +0.000 C 
BRANCH   9  10
ATOM     10  C   UNL     1       8.541  10.256  17.962  0.00  0.00    +0.000 C 
BRANCH  10  11
ATOM     11  C   UNL     1       9.576  11.171  18.561  0.00  0.00    +0.000 C 
ATOM     12  O   UNL     1      10.036  11.073  19.689  0.00  0.00    +0.000 OA
BRANCH  11  13
ATOM     13  O   UNL     1       9.845  12.182  17.687  0.00  0.00    +0.000 OA
BRANCH  13  15
ATOM     14  C   UNL     1      11.373  13.799  16.824  0.00  0.00    +0.000 C 
ATOM     15  C   UNL     1      11.238  12.418  17.440  0.00  0.00    +0.000 C 
ENDBRANCH  13  15
ENDBRANCH  11  13
ENDBRANCH  10  11
ENDBRANCH   9  10
ENDBRANCH   1   9
BRANCH   5  16
ATOM     16  C   UNL     1       5.054   5.051  16.169  0.00  0.00    +0.000 C 
BRANCH  16  17
ATOM     17  C   UNL     1       3.956   4.742  17.198  0.00  0.00    +0.000 A 
ATOM     18  C   UNL     1       3.355   3.477  17.247  0.00  0.00    +0.000 A 
ATOM     19  C   UNL     1       2.340   3.206  18.175  0.00  0.00    +0.000 A 
ATOM     20  C   UNL     1       1.912   4.191  19.071  0.00  0.00    +0.000 A 
ATOM     21 CL   UNL     1       0.650   3.788  20.173  0.00  0.00    +0.000 Cl
ATOM     22  C   UNL     1       2.515   5.452  19.046  0.00  0.00    +0.000 A 
ATOM     23 CL   UNL     1       2.061   6.716  20.129  0.00  0.00    +0.000 Cl
ATOM     24  C   UNL     1       3.530   5.721  18.115  0.00  0.00    +0.000 A 
ENDBRANCH  16  17
BRANCH  16  25
ATOM     25  C   UNL     1       5.866   3.768  15.884  0.00  0.00    +0.000 C 
BRANCH  25  26
ATOM     26  C   UNL     1       6.525   3.653  14.496  0.00  0.00    +0.000 C 
ATOM     27  C   UNL     1       5.454   3.609  13.400  0.00  0.00    +0.000 C 
ATOM     28  C   UNL     1       6.192   3.966  12.121  0.00  0.00    +0.000 C 
ATOM     29  C   UNL     1       7.334   4.881  12.548  0.00  0.00    +0.000 C 
ATOM     30  C   UNL     1       7.381   4.848  14.079  0.00  0.00    +0.000 C 
ENDBRANCH  25  26
ENDBRANCH  16  25
ENDBRANCH   5  16
TORSDOF 9
ENDMDL
MODEL 6
REMARK VINA RESULT:      -7.7      3.992      6.943
REMARK  Name = 
REMARK  10 active torsions:
REMARK  status: ('A' for Active; 'I' for Inactive)
REMARK    1  A    between atoms: C_1  and  C_2
REMARK    2  A    between atoms: C_2  and  O_3
REMARK    3  A    between atoms: O_3  and  C_4
REMARK    4  A    between atoms: C_4  and  C_6
REMARK    5  A    between atoms: C_6  and  C_7
REMARK    6  A    between atoms: C_7  and  N_8
REMARK    7  A    between atoms: C_12  and  C_14
REMARK    8  A    between atoms: C_14  and  C_15
REMARK    9  A    between atoms: C_14  and  C_21
REMARK   10  A    between atoms: C_15  and  C_16
REMARK                            x       y       z     vdW  Elec       q    Type
REMARK                         _______ _______ _______ _____ _____    ______ ____
ROOT
ATOM      1  N   UNL     1       6.003   6.396  17.674  0.00  0.00    +0.000 N 
ATOM      2  C   UNL     1       4.879   6.692  16.961  0.00  0.00    +0.000 C 
ATOM      3  O   UNL     1       4.874   6.951  15.763  0.00  0.00    +0.000 OA
ATOM      4  N   UNL     1       3.698   6.673  17.664  0.00  0.00    +0.000 N 
ATOM      5  C   UNL     1       3.465   6.156  18.932  0.00  0.00    +0.000 C 
ATOM      6  O   UNL     1       4.359   5.751  19.673  0.00  0.00    +0.000 OA
ATOM      7  H   UNL     1       5.865   6.107  18.638  0.00  0.00    +0.000 HD
ATOM      8  H   UNL     1       2.911   6.911  17.082  0.00  0.00    +0.000 HD
ENDROOT
BRANCH   1   9
ATOM      9  C   UNL     1       7.289   6.149  17.055  0.00  0.00    +0.000 C 
BRANCH   9  10
ATOM     10  C   UNL     1       7.438   4.727  16.533  0.00  0.00    +0.000 C 
BRANCH  10  11
ATOM     11  C   UNL     1       7.250   4.710  15.039  0.00  0.00    +0.000 C 
ATOM     12  O   UNL     1       7.739   5.513  14.257  0.00  0.00    +0.000 OA
BRANCH  11  13
ATOM     13  O   UNL     1       6.372   3.723  14.706  0.00  0.00    +0.000 OA
BRANCH  13  15
ATOM     14  C   UNL     1       5.958   3.328  12.389  0.00  0.00    +0.000 C 
ATOM     15  C   UNL     1       5.472   4.044  13.636  0.00  0.00    +0.000 C 
ENDBRANCH  13  15
ENDBRANCH  11  13
ENDBRANCH  10  11
ENDBRANCH   9  10
ENDBRANCH   1   9
BRANCH   5  16
ATOM     16  C   UNL     1       1.993   6.236  19.378  0.00  0.00    +0.000 C 
BRANCH  16  17
ATOM     17  C   UNL     1       1.633   7.694  19.702  0.00  0.00    +0.000 A 
ATOM     18  C   UNL     1       1.690   8.685  18.713  0.00  0.00    +0.000 A 
ATOM     19  C   UNL     1       1.379  10.016  19.018  0.00  0.00    +0.000 A 
ATOM     20  C   UNL     1       1.001  10.380  20.316  0.00  0.00    +0.000 A 
ATOM     21 CL   UNL     1       0.646  12.039  20.619  0.00  0.00    +0.000 Cl
ATOM     22  C   UNL     1       0.923   9.400  21.309  0.00  0.00    +0.000 A 
ATOM     23 CL   UNL     1       0.447   9.760  22.927  0.00  0.00    +0.000 Cl
ATOM     24  C   UNL     1       1.236   8.068  21.000  0.00  0.00    +0.000 A 
ENDBRANCH  16  17
BRANCH  16  25
ATOM     25  C   UNL     1       1.707   5.351  20.611  0.00  0.00    +0.000 C 
BRANCH  25  26
ATOM     26  C   UNL     1       1.268   3.900  20.341  0.00  0.00    +0.000 C 
ATOM     27  C   UNL     1       1.016   3.689  18.844  0.00  0.00    +0.000 C 
ATOM     28  C   UNL     1       1.057   2.182  18.651  0.00  0.00    +0.000 C 
ATOM     29  C   UNL     1       2.007   1.657  19.721  0.00  0.00    +0.000 C 
ATOM     30  C   UNL     1       2.313   2.830  20.658  0.00  0.00    +0.000 C 
ENDBRANCH  25  26
ENDBRANCH  16  25
ENDBRANCH   5  16
TORSDOF 9
ENDMDL
MODEL 7
REMARK VINA RESULT:      -7.7      1.200      1.711
REMARK  Name = 
REMARK  10 active torsions:
REMARK  status: ('A' for Active; 'I' for Inactive)
REMARK    1  A    between atoms: C_1  and  C_2
REMARK    2  A    between atoms: C_2  and  O_3
REMARK    3  A    between atoms: O_3  and  C_4
REMARK    4  A    between atoms: C_4  and  C_6
REMARK    5  A    between atoms: C_6  and  C_7
REMARK    6  A    between atoms: C_7  and  N_8
REMARK    7  A    between atoms: C_12  and  C_14
REMARK    8  A    between atoms: C_14  and  C_15
REMARK    9  A    between atoms: C_14  and  C_21
REMARK   10  A    between atoms: C_15  and  C_16
REMARK                            x       y       z     vdW  Elec       q    Type
REMARK                         _______ _______ _______ _____ _____    ______ ____
ROOT
ATOM      1  N   UNL     1       7.910   7.899  17.869  0.00  0.00    +0.000 N 
ATOM      2  C   UNL     1       7.746   6.628  18.332  0.00  0.00    +0.000 C 
ATOM      3  O   UNL     1       8.318   6.177  19.317  0.00  0.00    +0.000 OA
ATOM      4  N   UNL     1       6.862   5.842  17.630  0.00  0.00    +0.000 N 
ATOM      5  C   UNL     1       5.938   6.238  16.673  0.00  0.00    +0.000 C 
ATOM      6  O   UNL     1       5.884   7.379  16.215  0.00  0.00    +0.000 OA
ATOM      7  H   UNL     1       7.310   8.184  17.101  0.00  0.00    +0.000 HD
ATOM      8  H   UNL     1       6.796   4.914  18.017  0.00  0.00    +0.000 HD
ENDROOT
BRANCH   1   9
ATOM      9  C   UNL     1       8.619   8.924  18.608  0.00  0.00    +0.000 C 
BRANCH   9  10
ATOM     10  C   UNL     1       8.686  10.254  17.871  0.00  0.00    +0.000 C 
BRANCH  10  11
ATOM     11  C   UNL     1       9.727  11.137  18.506  0.00  0.00    +0.000 C 
ATOM     12  O   UNL     1      10.650  11.677  17.915  0.00  0.00    +0.000 OA
BRANCH  11  13
ATOM     13  O   UNL     1       9.536  11.161  19.856  0.00  0.00    +0.000 OA
BRANCH  13  15
ATOM     14  C   UNL     1       9.690  12.607  21.747  0.00  0.00    +0.000 C 
ATOM     15  C   UNL     1      10.449  11.993  20.584  0.00  0.00    +0.000 C 
ENDBRANCH  13  15
ENDBRANCH  11  13
ENDBRANCH  10  11
ENDBRANCH   9  10
ENDBRANCH   1   9
BRANCH   5  16
ATOM     16  C   UNL     1       5.053   5.093  16.148  0.00  0.00    +0.000 C 
BRANCH  16  17
ATOM     17  C   UNL     1       3.949   4.786  17.171  0.00  0.00    +0.000 A 
ATOM     18  C   UNL     1       3.345   3.522  17.218  0.00  0.00    +0.000 A 
ATOM     19  C   UNL     1       2.326   3.253  18.141  0.00  0.00    +0.000 A 
ATOM     20  C   UNL     1       1.896   4.240  19.036  0.00  0.00    +0.000 A 
ATOM     21 CL   UNL     1       0.629   3.839  20.133  0.00  0.00    +0.000 Cl
ATOM     22  C   UNL     1       2.503   5.499  19.014  0.00  0.00    +0.000 A 
ATOM     23 CL   UNL     1       2.047   6.763  20.096  0.00  0.00    +0.000 Cl
ATOM     24  C   UNL     1       3.522   5.766  18.088  0.00  0.00    +0.000 A 
ENDBRANCH  16  17
BRANCH  16  25
ATOM     25  C   UNL     1       5.864   3.808  15.867  0.00  0.00    +0.000 C 
BRANCH  25  26
ATOM     26  C   UNL     1       6.442   3.645  14.449  0.00  0.00    +0.000 C 
ATOM     27  C   UNL     1       5.316   3.655  13.409  0.00  0.00    +0.000 C 
ATOM     28  C   UNL     1       6.006   3.958  12.090  0.00  0.00    +0.000 C 
ATOM     29  C   UNL     1       7.220   4.808  12.448  0.00  0.00    +0.000 C 
ATOM     30  C   UNL     1       7.344   4.784  13.975  0.00  0.00    +0.000 C 
ENDBRANCH  25  26
ENDBRANCH  16  25
ENDBRANCH   5  16
TORSDOF 9
ENDMDL
MODEL 8
REMARK VINA RESULT:      -7.7      0.669      1.316
REMARK  Name = 
REMARK  10 active torsions:
REMARK  status: ('A' for Active; 'I' for Inactive)
REMARK    1  A    between atoms: C_1  and  C_2
REMARK    2  A    between atoms: C_2  and  O_3
REMARK    3  A    between atoms: O_3  and  C_4
REMARK    4  A    between atoms: C_4  and  C_6
REMARK    5  A    between atoms: C_6  and  C_7
REMARK    6  A    between atoms: C_7  and  N_8
REMARK    7  A    between atoms: C_12  and  C_14
REMARK    8  A    between atoms: C_14  and  C_15
REMARK    9  A    between atoms: C_14  and  C_21
REMARK   10  A    between atoms: C_15  and  C_16
REMARK                            x       y       z     vdW  Elec       q    Type
REMARK                         _______ _______ _______ _____ _____    ______ ____
ROOT
ATOM      1  N   UNL     1       7.823   7.741  17.853  0.00  0.00    +0.000 N 
ATOM      2  C   UNL     1       7.572   6.491  18.336  0.00  0.00    +0.000 C 
ATOM      3  O   UNL     1       8.170   5.986  19.278  0.00  0.00    +0.000 OA
ATOM      4  N   UNL     1       6.565   5.795  17.709  0.00  0.00    +0.000 N 
ATOM      5  C   UNL     1       5.613   6.279  16.822  0.00  0.00    +0.000 C 
ATOM      6  O   UNL     1       5.635   7.420  16.361  0.00  0.00    +0.000 OA
ATOM      7  H   UNL     1       7.196   8.083  17.130  0.00  0.00    +0.000 HD
ATOM      8  H   UNL     1       6.439   4.878  18.106  0.00  0.00    +0.000 HD
ENDROOT
BRANCH   1   9
ATOM      9  C   UNL     1       8.682   8.692  18.529  0.00  0.00    +0.000 C 
BRANCH   9  10
ATOM     10  C   UNL     1       8.445  10.129  18.087  0.00  0.00    +0.000 C 
BRANCH  10  11
ATOM     11  C   UNL     1       9.547  11.011  18.612  0.00  0.00    +0.000 C 
ATOM     12  O   UNL     1      10.060  10.917  19.718  0.00  0.00    +0.000 OA
BRANCH  11  13
ATOM     13  O   UNL     1       9.813  11.991  17.702  0.00  0.00    +0.000 OA
BRANCH  13  15
ATOM     14  C   UNL     1      11.999  12.910  17.436  0.00  0.00    +0.000 C 
ATOM     15  C   UNL     1      10.676  13.037  18.170  0.00  0.00    +0.000 C 
ENDBRANCH  13  15
ENDBRANCH  11  13
ENDBRANCH  10  11
ENDBRANCH   9  10
ENDBRANCH   1   9
BRANCH   5  16
ATOM     16  C   UNL     1       4.584   5.226  16.374  0.00  0.00    +0.000 C 
BRANCH  16  17
ATOM     17  C   UNL     1       3.895   4.623  17.608  0.00  0.00    +0.000 A 
ATOM     18  C   UNL     1       2.618   5.050  17.997  0.00  0.00    +0.000 A 
ATOM     19  C   UNL     1       2.003   4.510  19.134  0.00  0.00    +0.000 A 
ATOM     20  C   UNL     1       2.649   3.533  19.899  0.00  0.00    +0.000 A 
ATOM     21 CL   UNL     1       1.835   2.926  21.291  0.00  0.00    +0.000 Cl
ATOM     22  C   UNL     1       3.916   3.084  19.512  0.00  0.00    +0.000 A 
ATOM     23 CL   UNL     1       4.772   1.868  20.386  0.00  0.00    +0.000 Cl
ATOM     24  C   UNL     1       4.530   3.627  18.374  0.00  0.00    +0.000 A 
ENDBRANCH  16  17
BRANCH  16  25
ATOM     25  C   UNL     1       5.229   4.095  15.542  0.00  0.00    +0.000 C 
BRANCH  25  26
ATOM     26  C   UNL     1       5.647   4.440  14.101  0.00  0.00    +0.000 C 
ATOM     27  C   UNL     1       7.114   4.881  14.062  0.00  0.00    +0.000 C 
ATOM     28  C   UNL     1       7.526   4.736  12.607  0.00  0.00    +0.000 C 
ATOM     29  C   UNL     1       6.673   3.603  12.050  0.00  0.00    +0.000 C 
ATOM     30  C   UNL     1       5.624   3.271  13.116  0.00  0.00    +0.000 C 
ENDBRANCH  25  26
ENDBRANCH  16  25
ENDBRANCH   5  16
TORSDOF 9
ENDMDL
MODEL 9
REMARK VINA RESULT:      -7.6      5.195      8.259
REMARK  Name = 
REMARK  10 active torsions:
REMARK  status: ('A' for Active; 'I' for Inactive)
REMARK    1  A    between atoms: C_1  and  C_2
REMARK    2  A    between atoms: C_2  and  O_3
REMARK    3  A    between atoms: O_3  and  C_4
REMARK    4  A    between atoms: C_4  and  C_6
REMARK    5  A    between atoms: C_6  and  C_7
REMARK    6  A    between atoms: C_7  and  N_8
REMARK    7  A    between atoms: C_12  and  C_14
REMARK    8  A    between atoms: C_14  and  C_15
REMARK    9  A    between atoms: C_14  and  C_21
REMARK   10  A    between atoms: C_15  and  C_16
REMARK                            x       y       z     vdW  Elec       q    Type
REMARK                         _______ _______ _______ _____ _____    ______ ____
ROOT
ATOM      1  N   UNL     1       1.313   9.672  19.122  0.00  0.00    +0.000 N 
ATOM      2  C   UNL     1       1.373   8.784  20.154  0.00  0.00    +0.000 C 
ATOM      3  O   UNL     1       0.898   8.989  21.265  0.00  0.00    +0.000 OA
ATOM      4  N   UNL     1       1.999   7.590  19.885  0.00  0.00    +0.000 N 
ATOM      5  C   UNL     1       2.357   7.071  18.648  0.00  0.00    +0.000 C 
ATOM      6  O   UNL     1       2.274   7.706  17.597  0.00  0.00    +0.000 OA
ATOM      7  H   UNL     1       1.660   9.348  18.224  0.00  0.00    +0.000 HD
ATOM      8  H   UNL     1       2.018   6.986  20.691  0.00  0.00    +0.000 HD
ENDROOT
BRANCH   1   9
ATOM      9  C   UNL     1       0.501  10.871  19.157  0.00  0.00    +0.000 C 
BRANCH   9  10
ATOM     10  C   UNL     1      -0.990  10.581  19.247  0.00  0.00    +0.000 C 
BRANCH  10  11
ATOM     11  C   UNL     1      -1.587  10.547  17.864  0.00  0.00    +0.000 C 
ATOM     12  O   UNL     1      -1.339   9.710  17.009  0.00  0.00    +0.000 OA
BRANCH  11  13
ATOM     13  O   UNL     1      -2.367  11.650  17.683  0.00  0.00    +0.000 OA
BRANCH  13  15
ATOM     14  C   UNL     1      -4.647  11.025  17.361  0.00  0.00    +0.000 C 
ATOM     15  C   UNL     1      -3.642  11.607  18.338  0.00  0.00    +0.000 C 
ENDBRANCH  13  15
ENDBRANCH  11  13
ENDBRANCH  10  11
ENDBRANCH   9  10
ENDBRANCH   1   9
BRANCH   5  16
ATOM     16  C   UNL     1       2.976   5.663  18.717  0.00  0.00    +0.000 C 
BRANCH  16  17
ATOM     17  C   UNL     1       4.139   5.563  17.719  0.00  0.00    +0.000 A 
ATOM     18  C   UNL     1       4.116   4.623  16.680  0.00  0.00    +0.000 A 
ATOM     19  C   UNL     1       5.188   4.524  15.784  0.00  0.00    +0.000 A 
ATOM     20  C   UNL     1       6.300   5.365  15.907  0.00  0.00    +0.000 A 
ATOM     21 CL   UNL     1       7.587   5.175  14.776  0.00  0.00    +0.000 Cl
ATOM     22  C   UNL     1       6.330   6.320  16.928  0.00  0.00    +0.000 A 
ATOM     23 CL   UNL     1       7.652   7.408  17.137  0.00  0.00    +0.000 Cl
ATOM     24  C   UNL     1       5.255   6.416  17.824  0.00  0.00    +0.000 A 
ENDBRANCH  16  17
BRANCH  16  25
ATOM     25  C   UNL     1       1.943   4.555  18.412  0.00  0.00    +0.000 C 
BRANCH  25  26
ATOM     26  C   UNL     1       1.852   3.390  19.416  0.00  0.00    +0.000 C 
ATOM     27  C   UNL     1       3.186   3.215  20.151  0.00  0.00    +0.000 C 
ATOM     28  C   UNL     1       2.844   2.402  21.388  0.00  0.00    +0.000 C 
ATOM     29  C   UNL     1       1.404   2.764  21.732  0.00  0.00    +0.000 C 
ATOM     30  C   UNL     1       0.862   3.592  20.563  0.00  0.00    +0.000 C 
ENDBRANCH  25  26
ENDBRANCH  16  25
ENDBRANCH   5  16
TORSDOF 9
ENDMDL
