MODEL 1
REMARK VINA RESULT:      -8.4      0.000      0.000
REMARK  Name = 
REMARK  10 active torsions:
REMARK  status: ('A' for Active; 'I' for Inactive)
REMARK    1  A    between atoms: C_1  and  N_2
REMARK    2  A    between atoms: N_2  and  C_3
REMARK    3  A    between atoms: N_2  and  C_28
REMARK    4  A    between atoms: C_3  and  C_4
REMARK    5  A    between atoms: C_4  and  O_5
REMARK    6  A    between atoms: O_5  and  C_6
REMARK    7  A    between atoms: C_9  and  C_10
REMARK    8  A    between atoms: C_20  and  C_21
REMARK    9  A    between atoms: C_28  and  C_29
REMARK   10  A    between atoms: C_29  and  O_31
REMARK                            x       y       z     vdW  Elec       q    Type
REMARK                         _______ _______ _______ _____ _____    ______ ____
ROOT
ATOM      1  C   UNL     1       3.323   6.797  18.017  0.00  0.00    +0.000 A 
ATOM      2  C   UNL     1       3.339   8.123  17.561  0.00  0.00    +0.000 A 
ATOM      3  C   UNL     1       2.490   9.078  18.084  0.00  0.00    +0.000 A 
ATOM      4  C   UNL     1       1.592   8.713  19.057  0.00  0.00    +0.000 A 
ATOM      5  C   UNL     1       1.470   7.356  19.411  0.00  0.00    +0.000 A 
ATOM      6  C   UNL     1       2.378   6.372  18.987  0.00  0.00    +0.000 A 
ENDROOT
BRANCH   4   7
ATOM      7  C   UNL     1       0.784   9.735  19.742  0.00  0.00    +0.000 A 
ATOM      8  C   UNL     1      -0.136  10.533  19.004  0.00  0.00    +0.000 A 
ATOM      9  C   UNL     1      -1.033  11.380  19.651  0.00  0.00    +0.000 A 
ATOM     10  C   UNL     1      -0.977  11.393  21.024  0.00  0.00    +0.000 A 
ATOM     11  C   UNL     1      -0.014  10.708  21.728  0.00  0.00    +0.000 A 
ATOM     12  C   UNL     1       0.885   9.886  21.119  0.00  0.00    +0.000 A 
ATOM     13  O   UNL     1      -0.168  10.820  23.073  0.00  0.00    +0.000 OA
ATOM     14  C   UNL     1      -1.542  11.239  23.073  0.00  0.00    +0.000 C 
ATOM     15  O   UNL     1      -1.893  11.952  21.865  0.00  0.00    +0.000 OA
ENDBRANCH   4   7
BRANCH   6  16
ATOM     16  C   UNL     1       2.307   5.011  19.623  0.00  0.00    +0.000 A 
ATOM     17  C   UNL     1       2.399   4.890  21.026  0.00  0.00    +0.000 A 
ATOM     18  C   UNL     1       2.241   3.665  21.686  0.00  0.00    +0.000 A 
ATOM     19  C   UNL     1       2.034   2.499  20.965  0.00  0.00    +0.000 A 
ATOM     20  C   UNL     1       2.006   2.556  19.580  0.00  0.00    +0.000 A 
ATOM     21  C   UNL     1       2.131   3.784  18.912  0.00  0.00    +0.000 A 
ATOM     22 CL   UNL     1       1.980   3.637  17.184  0.00  0.00    +0.000 Cl
ENDBRANCH   6  16
BRANCH   1  23
ATOM     23  O   UNL     1       4.260   5.900  17.547  0.00  0.00    +0.000 OA
BRANCH  23  24
ATOM     24  C   UNL     1       4.925   6.235  16.326  0.00  0.00    +0.000 C 
BRANCH  24  25
ATOM     25  C   UNL     1       6.448   6.303  16.562  0.00  0.00    +0.000 C 
BRANCH  25  27
ATOM     26  C   UNL     1       7.646   8.203  17.496  0.00  0.00    +0.000 C 
ATOM     27  N   UNL     1       6.873   6.997  17.790  0.00  0.00    +0.000 NA
BRANCH  27  28
ATOM     28  C   UNL     1       7.626   6.099  18.702  0.00  0.00    +0.000 C 
BRANCH  28  29
ATOM     29  C   UNL     1       7.550   4.623  18.308  0.00  0.00    +0.000 C 
ATOM     30  O   UNL     1       8.409   4.036  17.666  0.00  0.00    +0.000 OA
BRANCH  29  31
ATOM     31  O   UNL     1       6.398   4.019  18.690  0.00  0.00    +0.000 OA
ATOM     32  H   UNL     1       5.643   4.211  18.101  0.00  0.00    +0.000 HD
ENDBRANCH  29  31
ENDBRANCH  28  29
ENDBRANCH  27  28
ENDBRANCH  25  27
ENDBRANCH  24  25
ENDBRANCH  23  24
ENDBRANCH   1  23
TORSDOF 9
ENDMDL
MODEL 2
REMARK VINA RESULT:      -8.1      1.380      1.868
REMARK  Name = 
REMARK  10 active torsions:
REMARK  status: ('A' for Active; 'I' for Inactive)
REMARK    1  A    between atoms: C_1  and  N_2
REMARK    2  A    between atoms: N_2  and  C_3
REMARK    3  A    between atoms: N_2  and  C_28
REMARK    4  A    between atoms: C_3  and  C_4
REMARK    5  A    between atoms: C_4  and  O_5
REMARK    6  A    between atoms: O_5  and  C_6
REMARK    7  A    between atoms: C_9  and  C_10
REMARK    8  A    between atoms: C_20  and  C_21
REMARK    9  A    between atoms: C_28  and  C_29
REMARK   10  A    between atoms: C_29  and  O_31
REMARK                            x       y       z     vdW  Elec       q    Type
REMARK                         _______ _______ _______ _____ _____    ______ ____
ROOT
ATOM      1  C   UNL     1       2.744   6.996  18.474  0.00  0.00    +0.000 A 
ATOM      2  C   UNL     1       2.670   8.368  18.193  0.00  0.00    +0.000 A 
ATOM      3  C   UNL     1       1.856   9.213  18.921  0.00  0.00    +0.000 A 
ATOM      4  C   UNL     1       1.082   8.691  19.929  0.00  0.00    +0.000 A 
ATOM      5  C   UNL     1       1.041   7.296  20.116  0.00  0.00    +0.000 A 
ATOM      6  C   UNL     1       1.926   6.413  19.477  0.00  0.00    +0.000 A 
ENDROOT
BRANCH   4   7
ATOM      7  C   UNL     1       0.325   9.584  20.820  0.00  0.00    +0.000 A 
ATOM      8  C   UNL     1      -0.005   9.165  22.141  0.00  0.00    +0.000 A 
ATOM      9  C   UNL     1      -0.564  10.051  23.058  0.00  0.00    +0.000 A 
ATOM     10  C   UNL     1      -0.769  11.336  22.617  0.00  0.00    +0.000 A 
ATOM     11  C   UNL     1      -0.554  11.709  21.309  0.00  0.00    +0.000 A 
ATOM     12  C   UNL     1      -0.024  10.857  20.388  0.00  0.00    +0.000 A 
ATOM     13  O   UNL     1      -0.775  13.033  21.098  0.00  0.00    +0.000 OA
ATOM     14  C   UNL     1      -0.689  13.461  22.466  0.00  0.00    +0.000 C 
ATOM     15  O   UNL     1      -1.077  12.418  23.388  0.00  0.00    +0.000 OA
ENDBRANCH   4   7
BRANCH   6  16
ATOM     16  C   UNL     1       1.967   4.982  19.937  0.00  0.00    +0.000 A 
ATOM     17  C   UNL     1       2.293   4.690  21.278  0.00  0.00    +0.000 A 
ATOM     18  C   UNL     1       2.251   3.387  21.794  0.00  0.00    +0.000 A 
ATOM     19  C   UNL     1       1.931   2.316  20.974  0.00  0.00    +0.000 A 
ATOM     20  C   UNL     1       1.673   2.545  19.631  0.00  0.00    +0.000 A 
ATOM     21  C   UNL     1       1.680   3.850  19.114  0.00  0.00    +0.000 A 
ATOM     22 CL   UNL     1       1.244   3.916  17.430  0.00  0.00    +0.000 Cl
ENDBRANCH   6  16
BRANCH   1  23
ATOM     23  O   UNL     1       3.651   6.207  17.796  0.00  0.00    +0.000 OA
BRANCH  23  24
ATOM     24  C   UNL     1       4.542   6.868  16.894  0.00  0.00    +0.000 C 
BRANCH  24  25
ATOM     25  C   UNL     1       6.000   6.656  17.349  0.00  0.00    +0.000 C 
BRANCH  25  27
ATOM     26  C   UNL     1       6.628   5.415  19.346  0.00  0.00    +0.000 C 
ATOM     27  N   UNL     1       6.303   5.333  17.922  0.00  0.00    +0.000 NA
BRANCH  27  28
ATOM     28  C   UNL     1       7.384   4.641  17.176  0.00  0.00    +0.000 C 
BRANCH  28  29
ATOM     29  C   UNL     1       7.057   4.407  15.699  0.00  0.00    +0.000 C 
ATOM     30  O   UNL     1       7.454   5.116  14.785  0.00  0.00    +0.000 OA
BRANCH  29  31
ATOM     31  O   UNL     1       6.224   3.359  15.489  0.00  0.00    +0.000 OA
ATOM     32  H   UNL     1       6.519   2.534  15.920  0.00  0.00    +0.000 HD
ENDBRANCH  29  31
ENDBRANCH  28  29
ENDBRANCH  27  28
ENDBRANCH  25  27
ENDBRANCH  24  25
ENDBRANCH  23  24
ENDBRANCH   1  23
TORSDOF 9
ENDMDL
MODEL 3
REMARK VINA RESULT:      -8.0      1.162      1.701
REMARK  Name = 
REMARK  10 active torsions:
REMARK  status: ('A' for Active; 'I' for Inactive)
REMARK    1  A    between atoms: C_1  and  N_2
REMARK    2  A    between atoms: N_2  and  C_3
REMARK    3  A    between atoms: N_2  and  C_28
REMARK    4  A    between atoms: C_3  and  C_4
REMARK    5  A    between atoms: C_4  and  O_5
REMARK    6  A    between atoms: O_5  and  C_6
REMARK    7  A    between atoms: C_9  and  C_10
REMARK    8  A    between atoms: C_20  and  C_21
REMARK    9  A    between atoms: C_28  and  C_29
REMARK   10  A    between atoms: C_29  and  O_31
REMARK                            x       y       z     vdW  Elec       q    Type
REMARK                         _______ _______ _______ _____ _____    ______ ____
ROOT
ATOM      1  C   UNL     1       2.747   6.998  18.477  0.00  0.00    +0.000 A 
ATOM      2  C   UNL     1       2.666   8.371  18.202  0.00  0.00    +0.000 A 
ATOM      3  C   UNL     1       1.851   9.209  18.937  0.00  0.00    +0.000 A 
ATOM      4  C   UNL     1       1.084   8.680  19.946  0.00  0.00    +0.000 A 
ATOM      5  C   UNL     1       1.050   7.284  20.128  0.00  0.00    +0.000 A 
ATOM      6  C   UNL     1       1.936   6.408  19.480  0.00  0.00    +0.000 A 
ENDROOT
BRANCH   4   7
ATOM      7  C   UNL     1       0.328   9.565  20.845  0.00  0.00    +0.000 A 
ATOM      8  C   UNL     1       0.050   9.160  22.182  0.00  0.00    +0.000 A 
ATOM      9  C   UNL     1      -0.508  10.046  23.100  0.00  0.00    +0.000 A 
ATOM     10  C   UNL     1      -0.765  11.316  22.644  0.00  0.00    +0.000 A 
ATOM     11  C   UNL     1      -0.599  11.672  21.324  0.00  0.00    +0.000 A 
ATOM     12  C   UNL     1      -0.072  10.820  20.402  0.00  0.00    +0.000 A 
ATOM     13  O   UNL     1      -0.866  12.985  21.097  0.00  0.00    +0.000 OA
ATOM     14  C   UNL     1      -0.753  13.440  22.454  0.00  0.00    +0.000 C 
ATOM     15  O   UNL     1      -1.083  12.401  23.405  0.00  0.00    +0.000 OA
ENDBRANCH   4   7
BRANCH   6  16
ATOM     16  C   UNL     1       1.985   4.974  19.934  0.00  0.00    +0.000 A 
ATOM     17  C   UNL     1       2.307   4.678  21.275  0.00  0.00    +0.000 A 
ATOM     18  C   UNL     1       2.273   3.373  21.785  0.00  0.00    +0.000 A 
ATOM     19  C   UNL     1       1.963   2.304  20.960  0.00  0.00    +0.000 A 
ATOM     20  C   UNL     1       1.709   2.536  19.616  0.00  0.00    +0.000 A 
ATOM     21  C   UNL     1       1.709   3.844  19.105  0.00  0.00    +0.000 A 
ATOM     22 CL   UNL     1       1.280   3.915  17.420  0.00  0.00    +0.000 Cl
ENDBRANCH   6  16
BRANCH   1  23
ATOM     23  O   UNL     1       3.654   6.216  17.792  0.00  0.00    +0.000 OA
BRANCH  23  24
ATOM     24  C   UNL     1       4.581   6.891  16.937  0.00  0.00    +0.000 C 
BRANCH  24  25
ATOM     25  C   UNL     1       5.474   5.860  16.217  0.00  0.00    +0.000 C 
BRANCH  25  27
ATOM     26  C   UNL     1       7.377   4.451  16.773  0.00  0.00    +0.000 C 
ATOM     27  N   UNL     1       6.881   5.821  16.653  0.00  0.00    +0.000 NA
BRANCH  27  28
ATOM     28  C   UNL     1       7.091   6.569  17.918  0.00  0.00    +0.000 C 
BRANCH  28  29
ATOM     29  C   UNL     1       7.146   5.673  19.157  0.00  0.00    +0.000 C 
ATOM     30  O   UNL     1       8.179   5.238  19.646  0.00  0.00    +0.000 OA
BRANCH  29  31
ATOM     31  O   UNL     1       5.925   5.348  19.645  0.00  0.00    +0.000 OA
ATOM     32  H   UNL     1       5.433   4.720  19.082  0.00  0.00    +0.000 HD
ENDBRANCH  29  31
ENDBRANCH  28  29
ENDBRANCH  27  28
ENDBRANCH  25  27
ENDBRANCH  24  25
ENDBRANCH  23  24
ENDBRANCH   1  23
TORSDOF 9
ENDMDL
MODEL 4
REMARK VINA RESULT:      -7.9      1.327      1.774
REMARK  Name = 
REMARK  10 active torsions:
REMARK  status: ('A' for Active; 'I' for Inactive)
REMARK    1  A    between atoms: C_1  and  N_2
REMARK    2  A    between atoms: N_2  and  C_3
REMARK    3  A    between atoms: N_2  and  C_28
REMARK    4  A    between atoms: C_3  and  C_4
REMARK    5  A    between atoms: C_4  and  O_5
REMARK    6  A    between atoms: O_5  and  C_6
REMARK    7  A    between atoms: C_9  and  C_10
REMARK    8  A    between atoms: C_20  and  C_21
REMARK    9  A    between atoms: C_28  and  C_29
REMARK   10  A    between atoms: C_29  and  O_31
REMARK                            x       y       z     vdW  Elec       q    Type
REMARK                         _______ _______ _______ _____ _____    ______ ____
ROOT
ATOM      1  C   UNL     1       3.195   6.535  18.067  0.00  0.00    +0.000 A 
ATOM      2  C   UNL     1       3.238   7.863  17.617  0.00  0.00    +0.000 A 
ATOM      3  C   UNL     1       2.486   8.854  18.216  0.00  0.00    +0.000 A 
ATOM      4  C   UNL     1       1.658   8.526  19.262  0.00  0.00    +0.000 A 
ATOM      5  C   UNL     1       1.500   7.173  19.619  0.00  0.00    +0.000 A 
ATOM      6  C   UNL     1       2.318   6.149  19.114  0.00  0.00    +0.000 A 
ENDROOT
BRANCH   4   7
ATOM      7  C   UNL     1       0.965   9.580  20.018  0.00  0.00    +0.000 A 
ATOM      8  C   UNL     1       0.352   9.279  21.268  0.00  0.00    +0.000 A 
ATOM      9  C   UNL     1      -0.155  10.289  22.082  0.00  0.00    +0.000 A 
ATOM     10  C   UNL     1      -0.024  11.574  21.613  0.00  0.00    +0.000 A 
ATOM     11  C   UNL     1       0.467  11.853  20.357  0.00  0.00    +0.000 A 
ATOM     12  C   UNL     1       0.953  10.882  19.535  0.00  0.00    +0.000 A 
ATOM     13  O   UNL     1       0.554  13.186  20.112  0.00  0.00    +0.000 OA
ATOM     14  C   UNL     1       0.506  13.634  21.476  0.00  0.00    +0.000 C 
ATOM     15  O   UNL     1      -0.226  12.720  22.323  0.00  0.00    +0.000 OA
ENDBRANCH   4   7
BRANCH   6  16
ATOM     16  C   UNL     1       2.235   4.788  19.747  0.00  0.00    +0.000 A 
ATOM     17  C   UNL     1       2.368   4.660  21.146  0.00  0.00    +0.000 A 
ATOM     18  C   UNL     1       2.202   3.436  21.807  0.00  0.00    +0.000 A 
ATOM     19  C   UNL     1       1.944   2.278  21.090  0.00  0.00    +0.000 A 
ATOM     20  C   UNL     1       1.874   2.340  19.706  0.00  0.00    +0.000 A 
ATOM     21  C   UNL     1       2.007   3.568  19.039  0.00  0.00    +0.000 A 
ATOM     22 CL   UNL     1       1.799   3.431  17.316  0.00  0.00    +0.000 Cl
ENDBRANCH   6  16
BRANCH   1  23
ATOM     23  O   UNL     1       4.043   5.598  17.513  0.00  0.00    +0.000 OA
BRANCH  23  24
ATOM     24  C   UNL     1       4.722   5.965  16.310  0.00  0.00    +0.000 C 
BRANCH  24  25
ATOM     25  C   UNL     1       6.108   6.552  16.649  0.00  0.00    +0.000 C 
BRANCH  25  27
ATOM     26  C   UNL     1       7.092   4.535  15.712  0.00  0.00    +0.000 C 
ATOM     27  N   UNL     1       7.211   5.579  16.729  0.00  0.00    +0.000 NA
BRANCH  27  28
ATOM     28  C   UNL     1       7.327   4.983  18.084  0.00  0.00    +0.000 C 
BRANCH  28  29
ATOM     29  C   UNL     1       7.896   5.944  19.130  0.00  0.00    +0.000 C 
ATOM     30  O   UNL     1       8.384   7.035  18.869  0.00  0.00    +0.000 OA
BRANCH  29  31
ATOM     31  O   UNL     1       7.865   5.451  20.392  0.00  0.00    +0.000 OA
ATOM     32  H   UNL     1       7.992   6.132  21.080  0.00  0.00    +0.000 HD
ENDBRANCH  29  31
ENDBRANCH  28  29
ENDBRANCH  27  28
ENDBRANCH  25  27
ENDBRANCH  24  25
ENDBRANCH  23  24
ENDBRANCH   1  23
TORSDOF 9
ENDMDL
MODEL 5
REMARK VINA RESULT:      -7.9      1.134      1.385
REMARK  Name = 
REMARK  10 active torsions:
REMARK  status: ('A' for Active; 'I' for Inactive)
REMARK    1  A    between atoms: C_1  and  N_2
REMARK    2  A    between atoms: N_2  and  C_3
REMARK    3  A    between atoms: N_2  and  C_28
REMARK    4  A    between atoms: C_3  and  C_4
REMARK    5  A    between atoms: C_4  and  O_5
REMARK    6  A    between atoms: O_5  and  C_6
REMARK    7  A    between atoms: C_9  and  C_10
REMARK    8  A    between atoms: C_20  and  C_21
REMARK    9  A    between atoms: C_28  and  C_29
REMARK   10  A    between atoms: C_29  and  O_31
REMARK                            x       y       z     vdW  Elec       q    Type
REMARK                         _______ _______ _______ _____ _____    ______ ____
ROOT
ATOM      1  C   UNL     1       3.345   6.329  18.157  0.00  0.00    +0.000 A 
ATOM      2  C   UNL     1       3.453   7.636  17.661  0.00  0.00    +0.000 A 
ATOM      3  C   UNL     1       2.694   8.670  18.174  0.00  0.00    +0.000 A 
ATOM      4  C   UNL     1       1.794   8.404  19.177  0.00  0.00    +0.000 A 
ATOM      5  C   UNL     1       1.575   7.071  19.574  0.00  0.00    +0.000 A 
ATOM      6  C   UNL     1       2.394   6.007  19.160  0.00  0.00    +0.000 A 
ENDROOT
BRANCH   4   7
ATOM      7  C   UNL     1       1.086   9.505  19.849  0.00  0.00    +0.000 A 
ATOM      8  C   UNL     1       0.427  10.507  19.080  0.00  0.00    +0.000 A 
ATOM      9  C   UNL     1      -0.393  11.456  19.687  0.00  0.00    +0.000 A 
ATOM     10  C   UNL     1      -0.528  11.362  21.051  0.00  0.00    +0.000 A 
ATOM     11  C   UNL     1       0.196  10.464  21.802  0.00  0.00    +0.000 A 
ATOM     12  C   UNL     1       1.018   9.537  21.236  0.00  0.00    +0.000 A 
ATOM     13  O   UNL     1      -0.123  10.508  23.122  0.00  0.00    +0.000 OA
ATOM     14  C   UNL     1      -1.391  11.168  22.990  0.00  0.00    +0.000 C 
ATOM     15  O   UNL     1      -1.443  12.016  21.820  0.00  0.00    +0.000 OA
ENDBRANCH   4   7
BRANCH   6  16
ATOM     16  C   UNL     1       2.233   4.674  19.838  0.00  0.00    +0.000 A 
ATOM     17  C   UNL     1       2.405   4.577  21.234  0.00  0.00    +0.000 A 
ATOM     18  C   UNL     1       2.172   3.387  21.938  0.00  0.00    +0.000 A 
ATOM     19  C   UNL     1       1.805   2.232  21.266  0.00  0.00    +0.000 A 
ATOM     20  C   UNL     1       1.692   2.260  19.884  0.00  0.00    +0.000 A 
ATOM     21  C   UNL     1       1.892   3.455  19.175  0.00  0.00    +0.000 A 
ATOM     22 CL   UNL     1       1.614   3.286  17.465  0.00  0.00    +0.000 Cl
ENDBRANCH   6  16
BRANCH   1  23
ATOM     23  O   UNL     1       4.198   5.349  17.693  0.00  0.00    +0.000 OA
BRANCH  23  24
ATOM     24  C   UNL     1       5.081   4.750  18.646  0.00  0.00    +0.000 C 
BRANCH  24  25
ATOM     25  C   UNL     1       6.253   5.706  18.945  0.00  0.00    +0.000 C 
BRANCH  25  27
ATOM     26  C   UNL     1       7.340   7.011  17.203  0.00  0.00    +0.000 C 
ATOM     27  N   UNL     1       7.321   5.743  17.931  0.00  0.00    +0.000 NA
BRANCH  27  28
ATOM     28  C   UNL     1       7.232   4.598  16.990  0.00  0.00    +0.000 C 
BRANCH  28  29
ATOM     29  C   UNL     1       6.940   5.014  15.546  0.00  0.00    +0.000 C 
ATOM     30  O   UNL     1       7.794   5.368  14.746  0.00  0.00    +0.000 OA
BRANCH  29  31
ATOM     31  O   UNL     1       5.620   5.011  15.238  0.00  0.00    +0.000 OA
ATOM     32  H   UNL     1       5.044   4.768  15.989  0.00  0.00    +0.000 HD
ENDBRANCH  29  31
ENDBRANCH  28  29
ENDBRANCH  27  28
ENDBRANCH  25  27
ENDBRANCH  24  25
ENDBRANCH  23  24
ENDBRANCH   1  23
TORSDOF 9
ENDMDL
MODEL 6
REMARK VINA RESULT:      -7.8      1.333      1.537
REMARK  Name = 
REMARK  10 active torsions:
REMARK  status: ('A' for Active; 'I' for Inactive)
REMARK    1  A    between atoms: C_1  and  N_2
REMARK    2  A    between atoms: N_2  and  C_3
REMARK    3  A    between atoms: N_2  and  C_28
REMARK    4  A    between atoms: C_3  and  C_4
REMARK    5  A    between atoms: C_4  and  O_5
REMARK    6  A    between atoms: O_5  and  C_6
REMARK    7  A    between atoms: C_9  and  C_10
REMARK    8  A    between atoms: C_20  and  C_21
REMARK    9  A    between atoms: C_28  and  C_29
REMARK   10  A    between atoms: C_29  and  O_31
REMARK                            x       y       z     vdW  Elec       q    Type
REMARK                         _______ _______ _______ _____ _____    ______ ____
ROOT
ATOM      1  C   UNL     1       2.740   7.114  18.048  0.00  0.00    +0.000 A 
ATOM      2  C   UNL     1       2.746   8.465  17.673  0.00  0.00    +0.000 A 
ATOM      3  C   UNL     1       2.114   9.430  18.432  0.00  0.00    +0.000 A 
ATOM      4  C   UNL     1       1.443   9.051  19.569  0.00  0.00    +0.000 A 
ATOM      5  C   UNL     1       1.308   7.682  19.868  0.00  0.00    +0.000 A 
ATOM      6  C   UNL     1       2.019   6.679  19.190  0.00  0.00    +0.000 A 
ENDROOT
BRANCH   4   7
ATOM      7  C   UNL     1       0.894  10.069  20.479  0.00  0.00    +0.000 A 
ATOM      8  C   UNL     1       1.003  11.452  20.157  0.00  0.00    +0.000 A 
ATOM      9  C   UNL     1       0.342  12.420  20.909  0.00  0.00    +0.000 A 
ATOM     10  C   UNL     1      -0.414  11.963  21.961  0.00  0.00    +0.000 A 
ATOM     11  C   UNL     1      -0.429  10.639  22.338  0.00  0.00    +0.000 A 
ATOM     12  C   UNL     1       0.223   9.675  21.630  0.00  0.00    +0.000 A 
ATOM     13  O   UNL     1      -1.276  10.397  23.372  0.00  0.00    +0.000 OA
ATOM     14  C   UNL     1      -2.069  11.588  23.251  0.00  0.00    +0.000 C 
ATOM     15  O   UNL     1      -1.320  12.685  22.680  0.00  0.00    +0.000 OA
ENDBRANCH   4   7
BRANCH   6  16
ATOM     16  C   UNL     1       1.999   5.283  19.750  0.00  0.00    +0.000 A 
ATOM     17  C   UNL     1       2.360   5.067  21.097  0.00  0.00    +0.000 A 
ATOM     18  C   UNL     1       2.267   3.809  21.706  0.00  0.00    +0.000 A 
ATOM     19  C   UNL     1       1.856   2.703  20.979  0.00  0.00    +0.000 A 
ATOM     20  C   UNL     1       1.558   2.852  19.632  0.00  0.00    +0.000 A 
ATOM     21  C   UNL     1       1.617   4.115  19.023  0.00  0.00    +0.000 A 
ATOM     22 CL   UNL     1       1.120   4.088  17.354  0.00  0.00    +0.000 Cl
ENDBRANCH   6  16
BRANCH   1  23
ATOM     23  O   UNL     1       3.475   6.199  17.321  0.00  0.00    +0.000 OA
BRANCH  23  24
ATOM     24  C   UNL     1       4.882   6.430  17.218  0.00  0.00    +0.000 C 
BRANCH  24  25
ATOM     25  C   UNL     1       5.599   5.122  16.826  0.00  0.00    +0.000 C 
BRANCH  25  27
ATOM     26  C   UNL     1       5.515   4.596  19.200  0.00  0.00    +0.000 C 
ATOM     27  N   UNL     1       6.218   4.377  17.936  0.00  0.00    +0.000 NA
BRANCH  27  28
ATOM     28  C   UNL     1       7.662   4.690  18.077  0.00  0.00    +0.000 C 
BRANCH  28  29
ATOM     29  C   UNL     1       7.946   5.859  19.023  0.00  0.00    +0.000 C 
ATOM     30  O   UNL     1       8.051   7.024  18.666  0.00  0.00    +0.000 OA
BRANCH  29  31
ATOM     31  O   UNL     1       8.133   5.480  20.311  0.00  0.00    +0.000 OA
ATOM     32  H   UNL     1       7.347   5.613  20.875  0.00  0.00    +0.000 HD
ENDBRANCH  29  31
ENDBRANCH  28  29
ENDBRANCH  27  28
ENDBRANCH  25  27
ENDBRANCH  24  25
ENDBRANCH  23  24
ENDBRANCH   1  23
TORSDOF 9
ENDMDL
MODEL 7
REMARK VINA RESULT:      -7.8      1.896      2.351
REMARK  Name = 
REMARK  10 active torsions:
REMARK  status: ('A' for Active; 'I' for Inactive)
REMARK    1  A    between atoms: C_1  and  N_2
REMARK    2  A    between atoms: N_2  and  C_3
REMARK    3  A    between atoms: N_2  and  C_28
REMARK    4  A    between atoms: C_3  and  C_4
REMARK    5  A    between atoms: C_4  and  O_5
REMARK    6  A    between atoms: O_5  and  C_6
REMARK    7  A    between atoms: C_9  and  C_10
REMARK    8  A    between atoms: C_20  and  C_21
REMARK    9  A    between atoms: C_28  and  C_29
REMARK   10  A    between atoms: C_29  and  O_31
REMARK                            x       y       z     vdW  Elec       q    Type
REMARK                         _______ _______ _______ _____ _____    ______ ____
ROOT
ATOM      1  C   UNL     1       3.246   6.681  18.080  0.00  0.00    +0.000 A 
ATOM      2  C   UNL     1       3.305   8.006  17.624  0.00  0.00    +0.000 A 
ATOM      3  C   UNL     1       2.488   8.988  18.147  0.00  0.00    +0.000 A 
ATOM      4  C   UNL     1       1.578   8.652  19.120  0.00  0.00    +0.000 A 
ATOM      5  C   UNL     1       1.413   7.299  19.474  0.00  0.00    +0.000 A 
ATOM      6  C   UNL     1       2.289   6.287  19.050  0.00  0.00    +0.000 A 
ENDROOT
BRANCH   4   7
ATOM      7  C   UNL     1       0.805   9.700  19.805  0.00  0.00    +0.000 A 
ATOM      8  C   UNL     1      -0.045  10.566  19.059  0.00  0.00    +0.000 A 
ATOM      9  C   UNL     1      -0.916  11.445  19.698  0.00  0.00    +0.000 A 
ATOM     10  C   UNL     1      -0.908  11.420  21.072  0.00  0.00    +0.000 A 
ATOM     11  C   UNL     1      -0.008  10.665  21.789  0.00  0.00    +0.000 A 
ATOM     12  C   UNL     1       0.866   9.810  21.189  0.00  0.00    +0.000 A 
ATOM     13  O   UNL     1      -0.202  10.752  23.131  0.00  0.00    +0.000 OA
ATOM     14  C   UNL     1      -1.550  11.246  23.097  0.00  0.00    +0.000 C 
ATOM     15  O   UNL     1      -1.820  12.007  21.898  0.00  0.00    +0.000 OA
ENDBRANCH   4   7
BRANCH   6  16
ATOM     16  C   UNL     1       2.174   4.929  19.686  0.00  0.00    +0.000 A 
ATOM     17  C   UNL     1       2.352   4.794  21.079  0.00  0.00    +0.000 A 
ATOM     18  C   UNL     1       2.161   3.576  21.746  0.00  0.00    +0.000 A 
ATOM     19  C   UNL     1       1.832   2.430  21.038  0.00  0.00    +0.000 A 
ATOM     20  C   UNL     1       1.716   2.498  19.657  0.00  0.00    +0.000 A 
ATOM     21  C   UNL     1       1.873   3.720  18.986  0.00  0.00    +0.000 A 
ATOM     22 CL   UNL     1       1.598   3.595  17.272  0.00  0.00    +0.000 Cl
ENDBRANCH   6  16
BRANCH   1  23
ATOM     23  O   UNL     1       4.155   5.755  17.609  0.00  0.00    +0.000 OA
BRANCH  23  24
ATOM     24  C   UNL     1       5.306   6.260  16.928  0.00  0.00    +0.000 C 
BRANCH  24  25
ATOM     25  C   UNL     1       5.354   5.695  15.494  0.00  0.00    +0.000 C 
BRANCH  25  27
ATOM     26  C   UNL     1       7.201   4.385  16.384  0.00  0.00    +0.000 C 
ATOM     27  N   UNL     1       6.234   4.530  15.297  0.00  0.00    +0.000 NA
BRANCH  27  28
ATOM     28  C   UNL     1       6.923   4.571  13.983  0.00  0.00    +0.000 C 
BRANCH  28  29
ATOM     29  C   UNL     1       6.187   3.806  12.881  0.00  0.00    +0.000 C 
ATOM     30  O   UNL     1       4.987   3.573  12.887  0.00  0.00    +0.000 OA
BRANCH  29  31
ATOM     31  O   UNL     1       7.005   3.347  11.902  0.00  0.00    +0.000 OA
ATOM     32  H   UNL     1       7.943   3.583  12.034  0.00  0.00    +0.000 HD
ENDBRANCH  29  31
ENDBRANCH  28  29
ENDBRANCH  27  28
ENDBRANCH  25  27
ENDBRANCH  24  25
ENDBRANCH  23  24
ENDBRANCH   1  23
TORSDOF 9
ENDMDL
MODEL 8
REMARK VINA RESULT:      -7.8      1.457      2.240
REMARK  Name = 
REMARK  10 active torsions:
REMARK  status: ('A' for Active; 'I' for Inactive)
REMARK    1  A    between atoms: C_1  and  N_2
REMARK    2  A    between atoms: N_2  and  C_3
REMARK    3  A    between atoms: N_2  and  C_28
REMARK    4  A    between atoms: C_3  and  C_4
REMARK    5  A    between atoms: C_4  and  O_5
REMARK    6  A    between atoms: O_5  and  C_6
REMARK    7  A    between atoms: C_9  and  C_10
REMARK    8  A    between atoms: C_20  and  C_21
REMARK    9  A    between atoms: C_28  and  C_29
REMARK   10  A    between atoms: C_29  and  O_31
REMARK                            x       y       z     vdW  Elec       q    Type
REMARK                         _______ _______ _______ _____ _____    ______ ____
ROOT
ATOM      1  C   UNL     1       3.403   6.620  17.608  0.00  0.00    +0.000 A 
ATOM      2  C   UNL     1       3.432   8.021  17.554  0.00  0.00    +0.000 A 
ATOM      3  C   UNL     1       2.619   8.793  18.361  0.00  0.00    +0.000 A 
ATOM      4  C   UNL     1       1.745   8.171  19.219  0.00  0.00    +0.000 A 
ATOM      5  C   UNL     1       1.607   6.771  19.169  0.00  0.00    +0.000 A 
ATOM      6  C   UNL     1       2.481   5.942  18.447  0.00  0.00    +0.000 A 
ENDROOT
BRANCH   4   7
ATOM      7  C   UNL     1       0.980   8.959  20.198  0.00  0.00    +0.000 A 
ATOM      8  C   UNL     1       0.873   8.516  21.547  0.00  0.00    +0.000 A 
ATOM      9  C   UNL     1       0.307   9.326  22.528  0.00  0.00    +0.000 A 
ATOM     10  C   UNL     1      -0.130  10.563  22.119  0.00  0.00    +0.000 A 
ATOM     11  C   UNL     1      -0.127  10.945  20.797  0.00  0.00    +0.000 A 
ATOM     12  C   UNL     1       0.404  10.165  19.816  0.00  0.00    +0.000 A 
ATOM     13  O   UNL     1      -0.558  12.221  20.618  0.00  0.00    +0.000 OA
ATOM     14  C   UNL     1      -0.371  12.676  21.967  0.00  0.00    +0.000 C 
ATOM     15  O   UNL     1      -0.495  11.600  22.926  0.00  0.00    +0.000 OA
ENDBRANCH   4   7
BRANCH   6  16
ATOM     16  C   UNL     1       2.403   4.456  18.665  0.00  0.00    +0.000 A 
ATOM     17  C   UNL     1       2.401   3.588  17.553  0.00  0.00    +0.000 A 
ATOM     18  C   UNL     1       2.430   2.193  17.690  0.00  0.00    +0.000 A 
ATOM     19  C   UNL     1       2.411   1.609  18.947  0.00  0.00    +0.000 A 
ATOM     20  C   UNL     1       2.341   2.420  20.069  0.00  0.00    +0.000 A 
ATOM     21  C   UNL     1       2.345   3.818  19.942  0.00  0.00    +0.000 A 
ATOM     22 CL   UNL     1       2.340   4.641  21.476  0.00  0.00    +0.000 Cl
ENDBRANCH   6  16
BRANCH   1  23
ATOM     23  O   UNL     1       4.308   5.889  16.865  0.00  0.00    +0.000 OA
BRANCH  23  24
ATOM     24  C   UNL     1       5.197   6.621  16.018  0.00  0.00    +0.000 C 
BRANCH  24  25
ATOM     25  C   UNL     1       6.594   6.695  16.666  0.00  0.00    +0.000 C 
BRANCH  25  27
ATOM     26  C   UNL     1       7.057   4.719  15.324  0.00  0.00    +0.000 C 
ATOM     27  N   UNL     1       7.438   5.499  16.501  0.00  0.00    +0.000 NA
BRANCH  27  28
ATOM     28  C   UNL     1       7.438   4.648  17.718  0.00  0.00    +0.000 C 
BRANCH  28  29
ATOM     29  C   UNL     1       7.235   5.434  19.015  0.00  0.00    +0.000 C 
ATOM     30  O   UNL     1       6.208   5.414  19.679  0.00  0.00    +0.000 OA
BRANCH  29  31
ATOM     31  O   UNL     1       8.291   6.217  19.344  0.00  0.00    +0.000 OA
ATOM     32  H   UNL     1       8.235   6.589  20.245  0.00  0.00    +0.000 HD
ENDBRANCH  29  31
ENDBRANCH  28  29
ENDBRANCH  27  28
ENDBRANCH  25  27
ENDBRANCH  24  25
ENDBRANCH  23  24
ENDBRANCH   1  23
TORSDOF 9
ENDMDL
MODEL 9
REMARK VINA RESULT:      -7.7      1.544      1.955
REMARK  Name = 
REMARK  10 active torsions:
REMARK  status: ('A' for Active; 'I' for Inactive)
REMARK    1  A    between atoms: C_1  and  N_2
REMARK    2  A    between atoms: N_2  and  C_3
REMARK    3  A    between atoms: N_2  and  C_28
REMARK    4  A    between atoms: C_3  and  C_4
REMARK    5  A    between atoms: C_4  and  O_5
REMARK    6  A    between atoms: O_5  and  C_6
REMARK    7  A    between atoms: C_9  and  C_10
REMARK    8  A    between atoms: C_20  and  C_21
REMARK    9  A    between atoms: C_28  and  C_29
REMARK   10  A    between atoms: C_29  and  O_31
REMARK                            x       y       z     vdW  Elec       q    Type
REMARK                         _______ _______ _______ _____ _____    ______ ____
ROOT
ATOM      1  C   UNL     1       2.989   6.959  18.023  0.00  0.00    +0.000 A 
ATOM      2  C   UNL     1       3.076   8.290  17.593  0.00  0.00    +0.000 A 
ATOM      3  C   UNL     1       2.369   9.299  18.218  0.00  0.00    +0.000 A 
ATOM      4  C   UNL     1       1.542   8.985  19.269  0.00  0.00    +0.000 A 
ATOM      5  C   UNL     1       1.338   7.633  19.607  0.00  0.00    +0.000 A 
ATOM      6  C   UNL     1       2.111   6.588  19.075  0.00  0.00    +0.000 A 
ENDROOT
BRANCH   4   7
ATOM      7  C   UNL     1       0.899  10.052  20.051  0.00  0.00    +0.000 A 
ATOM      8  C   UNL     1       0.481  11.255  19.413  0.00  0.00    +0.000 A 
ATOM      9  C   UNL     1      -0.283  12.201  20.092  0.00  0.00    +0.000 A 
ATOM     10  C   UNL     1      -0.608  11.902  21.393  0.00  0.00    +0.000 A 
ATOM     11  C   UNL     1      -0.111  10.794  22.041  0.00  0.00    +0.000 A 
ATOM     12  C   UNL     1       0.653   9.862  21.405  0.00  0.00    +0.000 A 
ATOM     13  O   UNL     1      -0.593  10.664  23.304  0.00  0.00    +0.000 OA
ATOM     14  C   UNL     1      -1.737  11.519  23.161  0.00  0.00    +0.000 C 
ATOM     15  O   UNL     1      -1.525  12.549  22.168  0.00  0.00    +0.000 OA
ENDBRANCH   4   7
BRANCH   6  16
ATOM     16  C   UNL     1       1.985   5.221  19.688  0.00  0.00    +0.000 A 
ATOM     17  C   UNL     1       2.282   5.039  21.055  0.00  0.00    +0.000 A 
ATOM     18  C   UNL     1       2.090   3.815  21.709  0.00  0.00    +0.000 A 
ATOM     19  C   UNL     1       1.640   2.706  21.009  0.00  0.00    +0.000 A 
ATOM     20  C   UNL     1       1.402   2.817  19.647  0.00  0.00    +0.000 A 
ATOM     21  C   UNL     1       1.561   4.048  18.992  0.00  0.00    +0.000 A 
ATOM     22 CL   UNL     1       1.125   3.982  17.307  0.00  0.00    +0.000 Cl
ENDBRANCH   6  16
BRANCH   1  23
ATOM     23  O   UNL     1       3.794   5.999  17.443  0.00  0.00    +0.000 OA
BRANCH  23  24
ATOM     24  C   UNL     1       4.933   5.566  18.192  0.00  0.00    +0.000 C 
BRANCH  24  25
ATOM     25  C   UNL     1       5.406   4.192  17.676  0.00  0.00    +0.000 C 
BRANCH  25  27
ATOM     26  C   UNL     1       7.782   4.530  17.276  0.00  0.00    +0.000 C 
ATOM     27  N   UNL     1       6.485   4.224  16.673  0.00  0.00    +0.000 NA
BRANCH  27  28
ATOM     28  C   UNL     1       6.185   5.167  15.566  0.00  0.00    +0.000 C 
BRANCH  28  29
ATOM     29  C   UNL     1       6.871   4.802  14.248  0.00  0.00    +0.000 C 
ATOM     30  O   UNL     1       6.529   3.877  13.526  0.00  0.00    +0.000 OA
BRANCH  29  31
ATOM     31  O   UNL     1       7.951   5.573  13.969  0.00  0.00    +0.000 OA
ATOM     32  H   UNL     1       7.759   6.530  13.976  0.00  0.00    +0.000 HD
ENDBRANCH  29  31
ENDBRANCH  28  29
ENDBRANCH  27  28
ENDBRANCH  25  27
ENDBRANCH  24  25
ENDBRANCH  23  24
ENDBRANCH   1  23
TORSDOF 9
ENDMDL
