MODEL 1
REMARK VINA RESULT:      -8.0      0.000      0.000
REMARK  Name = 
REMARK  6 active torsions:
REMARK  status: ('A' for Active; 'I' for Inactive)
REMARK    1  A    between atoms: C_2  and  C_3
REMARK    2  A    between atoms: C_2  and  O_13
REMARK    3  A    between atoms: C_3  and  O_4
REMARK    4  A    between atoms: O_4  and  C_5
REMARK    5  A    between atoms: O_13  and  C_14
REMARK    6  A    between atoms: C_14  and  C_15
REMARK                            x       y       z     vdW  Elec       q    Type
REMARK                         _______ _______ _______ _____ _____    ______ ____
ROOT
ATOM      1  O   UNL     1       2.534   2.824  20.211  0.00  0.00    +0.000 OA
ENDROOT
BRANCH   1   3
ATOM      2  O   UNL     1       2.135   3.395  22.397  0.00  0.00    +0.000 OA
ATOM      3  C   UNL     1       2.027   3.620  21.197  0.00  0.00    +0.000 C 
BRANCH   3   4
ATOM      4  C   UNL     1       1.439   4.889  20.612  0.00  0.00    +0.000 C 
BRANCH   4   5
ATOM      5  O   UNL     1       2.420   5.863  20.297  0.00  0.00    +0.000 OA
BRANCH   5   6
ATOM      6  C   UNL     1       1.932   7.121  20.033  0.00  0.00    +0.000 A 
ATOM      7  C   UNL     1       1.158   7.853  20.942  0.00  0.00    +0.000 A 
ATOM      8  C   UNL     1       0.722   9.143  20.627  0.00  0.00    +0.000 A 
ATOM      9  C   UNL     1       1.062   9.712  19.402  0.00  0.00    +0.000 A 
ATOM     10 CL   UNL     1       0.523  11.301  19.026  0.00  0.00    +0.000 Cl
ATOM     11  C   UNL     1       1.836   9.005  18.487  0.00  0.00    +0.000 A 
ATOM     12  C   UNL     1       2.273   7.715  18.806  0.00  0.00    +0.000 A 
ATOM     13 CL   UNL     1       3.225   6.872  17.634  0.00  0.00    +0.000 Cl
ENDBRANCH   5   6
ENDBRANCH   4   5
ENDBRANCH   3   4
ENDBRANCH   1   3
BRANCH   1  14
ATOM     14  C   UNL     1       3.966   2.867  20.137  0.00  0.00    +0.000 C 
BRANCH  14  15
ATOM     15  C   UNL     1       4.400   3.071  18.670  0.00  0.00    +0.000 C 
ATOM     16  O   UNL     1       4.023   2.232  17.846  0.00  0.00    +0.000 OA
ATOM     17  N   UNL     1       5.238   4.160  18.370  0.00  0.00    +0.000 N 
ATOM     18  C   UNL     1       5.677   5.127  19.386  0.00  0.00    +0.000 C 
ATOM     19  C   UNL     1       7.169   5.384  19.305  0.00  0.00    +0.000 C 
ATOM     20  C   UNL     1       7.515   5.985  17.959  0.00  0.00    +0.000 C 
ATOM     21  C   UNL     1       6.797   5.308  16.821  0.00  0.00    +0.000 A 
ATOM     22  C   UNL     1       7.258   5.580  15.519  0.00  0.00    +0.000 A 
ATOM     23  C   UNL     1       6.643   5.010  14.410  0.00  0.00    +0.000 A 
ATOM     24  C   UNL     1       5.554   4.176  14.595  0.00  0.00    +0.000 A 
ATOM     25  C   UNL     1       5.083   3.901  15.884  0.00  0.00    +0.000 A 
ATOM     26  C   UNL     1       5.696   4.443  17.023  0.00  0.00    +0.000 A 
ENDBRANCH  14  15
ENDBRANCH   1  14
TORSDOF 6
ENDMDL
MODEL 2
REMARK VINA RESULT:      -7.5      2.733      7.273
REMARK  Name = 
REMARK  6 active torsions:
REMARK  status: ('A' for Active; 'I' for Inactive)
REMARK    1  A    between atoms: C_2  and  C_3
REMARK    2  A    between atoms: C_2  and  O_13
REMARK    3  A    between atoms: C_3  and  O_4
REMARK    4  A    between atoms: O_4  and  C_5
REMARK    5  A    between atoms: O_13  and  C_14
REMARK    6  A    between atoms: C_14  and  C_15
REMARK                            x       y       z     vdW  Elec       q    Type
REMARK                         _______ _______ _______ _____ _____    ______ ____
ROOT
ATOM      1  O   UNL     1       3.631   5.717  19.234  0.00  0.00    +0.000 OA
ENDROOT
BRANCH   1   3
ATOM      2  O   UNL     1       2.759   4.228  17.721  0.00  0.00    +0.000 OA
ATOM      3  C   UNL     1       3.654   4.579  18.481  0.00  0.00    +0.000 C 
BRANCH   3   4
ATOM      4  C   UNL     1       4.995   3.882  18.606  0.00  0.00    +0.000 C 
BRANCH   4   5
ATOM      5  O   UNL     1       5.910   4.251  17.587  0.00  0.00    +0.000 OA
BRANCH   5   6
ATOM      6  C   UNL     1       6.577   5.435  17.801  0.00  0.00    +0.000 A 
ATOM      7  C   UNL     1       7.559   5.599  18.786  0.00  0.00    +0.000 A 
ATOM      8  C   UNL     1       8.225   6.819  18.928  0.00  0.00    +0.000 A 
ATOM      9  C   UNL     1       7.919   7.882  18.081  0.00  0.00    +0.000 A 
ATOM     10 CL   UNL     1       8.749   9.377  18.263  0.00  0.00    +0.000 Cl
ATOM     11  C   UNL     1       6.953   7.738  17.091  0.00  0.00    +0.000 A 
ATOM     12  C   UNL     1       6.288   6.515  16.949  0.00  0.00    +0.000 A 
ATOM     13 CL   UNL     1       5.089   6.387  15.709  0.00  0.00    +0.000 Cl
ENDBRANCH   5   6
ENDBRANCH   4   5
ENDBRANCH   3   4
ENDBRANCH   1   3
BRANCH   1  14
ATOM     14  C   UNL     1       2.699   6.693  18.745  0.00  0.00    +0.000 C 
BRANCH  14  15
ATOM     15  C   UNL     1       1.935   7.315  19.931  0.00  0.00    +0.000 C 
ATOM     16  O   UNL     1       1.790   6.618  20.941  0.00  0.00    +0.000 OA
ATOM     17  N   UNL     1       1.404   8.609  19.775  0.00  0.00    +0.000 N 
ATOM     18  C   UNL     1       1.586   9.398  18.549  0.00  0.00    +0.000 C 
ATOM     19  C   UNL     1       0.280  10.007  18.078  0.00  0.00    +0.000 C 
ATOM     20  C   UNL     1      -0.253  10.959  19.129  0.00  0.00    +0.000 C 
ATOM     21  C   UNL     1      -0.131  10.405  20.525  0.00  0.00    +0.000 A 
ATOM     22  C   UNL     1      -0.853  11.063  21.540  0.00  0.00    +0.000 A 
ATOM     23  C   UNL     1      -0.786  10.628  22.859  0.00  0.00    +0.000 A 
ATOM     24  C   UNL     1       0.015   9.543  23.174  0.00  0.00    +0.000 A 
ATOM     25  C   UNL     1       0.741   8.884  22.174  0.00  0.00    +0.000 A 
ATOM     26  C   UNL     1       0.675   9.285  20.832  0.00  0.00    +0.000 A 
ENDBRANCH  14  15
ENDBRANCH   1  14
TORSDOF 6
ENDMDL
MODEL 3
REMARK VINA RESULT:      -7.5      2.597      6.821
REMARK  Name = 
REMARK  6 active torsions:
REMARK  status: ('A' for Active; 'I' for Inactive)
REMARK    1  A    between atoms: C_2  and  C_3
REMARK    2  A    between atoms: C_2  and  O_13
REMARK    3  A    between atoms: C_3  and  O_4
REMARK    4  A    between atoms: O_4  and  C_5
REMARK    5  A    between atoms: O_13  and  C_14
REMARK    6  A    between atoms: C_14  and  C_15
REMARK                            x       y       z     vdW  Elec       q    Type
REMARK                         _______ _______ _______ _____ _____    ______ ____
ROOT
ATOM      1  O   UNL     1       2.066   4.481  18.705  0.00  0.00    +0.000 OA
ENDROOT
BRANCH   1   3
ATOM      2  O   UNL     1       2.188   3.320  16.729  0.00  0.00    +0.000 OA
ATOM      3  C   UNL     1       2.671   3.650  17.806  0.00  0.00    +0.000 C 
BRANCH   3   4
ATOM      4  C   UNL     1       4.076   3.304  18.259  0.00  0.00    +0.000 C 
BRANCH   4   5
ATOM      5  O   UNL     1       5.066   3.636  17.299  0.00  0.00    +0.000 OA
BRANCH   5   6
ATOM      6  C   UNL     1       5.870   4.700  17.632  0.00  0.00    +0.000 A 
ATOM      7  C   UNL     1       6.477   4.845  18.886  0.00  0.00    +0.000 A 
ATOM      8  C   UNL     1       7.312   5.934  19.149  0.00  0.00    +0.000 A 
ATOM      9  C   UNL     1       7.552   6.882  18.158  0.00  0.00    +0.000 A 
ATOM     10 CL   UNL     1       8.587   8.215  18.492  0.00  0.00    +0.000 Cl
ATOM     11  C   UNL     1       6.967   6.754  16.903  0.00  0.00    +0.000 A 
ATOM     12  C   UNL     1       6.132   5.662  16.641  0.00  0.00    +0.000 A 
ATOM     13 CL   UNL     1       5.419   5.549  15.069  0.00  0.00    +0.000 Cl
ENDBRANCH   5   6
ENDBRANCH   4   5
ENDBRANCH   3   4
ENDBRANCH   1   3
BRANCH   1  14
ATOM     14  C   UNL     1       2.818   5.678  18.953  0.00  0.00    +0.000 C 
BRANCH  14  15
ATOM     15  C   UNL     1       2.071   6.550  19.983  0.00  0.00    +0.000 C 
ATOM     16  O   UNL     1       1.684   5.998  21.019  0.00  0.00    +0.000 OA
ATOM     17  N   UNL     1       1.827   7.898  19.661  0.00  0.00    +0.000 N 
ATOM     18  C   UNL     1       2.291   8.511  18.409  0.00  0.00    +0.000 C 
ATOM     19  C   UNL     1       1.190   9.304  17.733  0.00  0.00    +0.000 C 
ATOM     20  C   UNL     1       0.749  10.439  18.631  0.00  0.00    +0.000 C 
ATOM     21  C   UNL     1       0.609  10.017  20.071  0.00  0.00    +0.000 A 
ATOM     22  C   UNL     1      -0.072  10.898  20.934  0.00  0.00    +0.000 A 
ATOM     23  C   UNL     1      -0.233  10.595  22.281  0.00  0.00    +0.000 A 
ATOM     24  C   UNL     1       0.298   9.416  22.777  0.00  0.00    +0.000 A 
ATOM     25  C   UNL     1       0.980   8.534  21.930  0.00  0.00    +0.000 A 
ATOM     26  C   UNL     1       1.139   8.802  20.563  0.00  0.00    +0.000 A 
ENDBRANCH  14  15
ENDBRANCH   1  14
TORSDOF 6
ENDMDL
MODEL 4
REMARK VINA RESULT:      -7.5      2.373      6.108
REMARK  Name = 
REMARK  6 active torsions:
REMARK  status: ('A' for Active; 'I' for Inactive)
REMARK    1  A    between atoms: C_2  and  C_3
REMARK    2  A    between atoms: C_2  and  O_13
REMARK    3  A    between atoms: C_3  and  O_4
REMARK    4  A    between atoms: O_4  and  C_5
REMARK    5  A    between atoms: O_13  and  C_14
REMARK    6  A    between atoms: C_14  and  C_15
REMARK                            x       y       z     vdW  Elec       q    Type
REMARK                         _______ _______ _______ _____ _____    ______ ____
ROOT
ATOM      1  O   UNL     1       2.332   3.213  19.226  0.00  0.00    +0.000 OA
ENDROOT
BRANCH   1   3
ATOM      2  O   UNL     1       1.958   3.419  16.972  0.00  0.00    +0.000 OA
ATOM      3  C   UNL     1       2.687   3.122  17.911  0.00  0.00    +0.000 C 
BRANCH   3   4
ATOM      4  C   UNL     1       4.147   2.739  17.777  0.00  0.00    +0.000 C 
BRANCH   4   5
ATOM      5  O   UNL     1       4.828   3.484  16.781  0.00  0.00    +0.000 OA
BRANCH   5   6
ATOM      6  C   UNL     1       5.652   4.478  17.256  0.00  0.00    +0.000 A 
ATOM      7  C   UNL     1       6.180   4.488  18.553  0.00  0.00    +0.000 A 
ATOM      8  C   UNL     1       7.040   5.509  18.961  0.00  0.00    +0.000 A 
ATOM      9  C   UNL     1       7.385   6.526  18.074  0.00  0.00    +0.000 A 
ATOM     10 CL   UNL     1       8.449   7.775  18.587  0.00  0.00    +0.000 Cl
ATOM     11  C   UNL     1       6.878   6.532  16.778  0.00  0.00    +0.000 A 
ATOM     12  C   UNL     1       6.018   5.507  16.370  0.00  0.00    +0.000 A 
ATOM     13 CL   UNL     1       5.407   5.561  14.753  0.00  0.00    +0.000 Cl
ENDBRANCH   5   6
ENDBRANCH   4   5
ENDBRANCH   3   4
ENDBRANCH   1   3
BRANCH   1  14
ATOM     14  C   UNL     1       3.122   4.164  19.955  0.00  0.00    +0.000 C 
BRANCH  14  15
ATOM     15  C   UNL     1       2.235   5.352  20.381  0.00  0.00    +0.000 C 
ATOM     16  O   UNL     1       1.379   5.139  21.246  0.00  0.00    +0.000 OA
ATOM     17  N   UNL     1       2.413   6.584  19.724  0.00  0.00    +0.000 N 
ATOM     18  C   UNL     1       3.433   6.790  18.687  0.00  0.00    +0.000 C 
ATOM     19  C   UNL     1       2.859   7.487  17.469  0.00  0.00    +0.000 C 
ATOM     20  C   UNL     1       2.352   8.860  17.854  0.00  0.00    +0.000 C 
ATOM     21  C   UNL     1       1.592   8.852  19.155  0.00  0.00    +0.000 A 
ATOM     22  C   UNL     1       0.830   9.997  19.459  0.00  0.00    +0.000 A 
ATOM     23  C   UNL     1       0.110  10.081  20.646  0.00  0.00    +0.000 A 
ATOM     24  C   UNL     1       0.160   9.027  21.543  0.00  0.00    +0.000 A 
ATOM     25  C   UNL     1       0.917   7.886  21.254  0.00  0.00    +0.000 A 
ATOM     26  C   UNL     1       1.634   7.763  20.055  0.00  0.00    +0.000 A 
ENDBRANCH  14  15
ENDBRANCH   1  14
TORSDOF 6
ENDMDL
MODEL 5
REMARK VINA RESULT:      -7.4      2.776      7.416
REMARK  Name = 
REMARK  6 active torsions:
REMARK  status: ('A' for Active; 'I' for Inactive)
REMARK    1  A    between atoms: C_2  and  C_3
REMARK    2  A    between atoms: C_2  and  O_13
REMARK    3  A    between atoms: C_3  and  O_4
REMARK    4  A    between atoms: O_4  and  C_5
REMARK    5  A    between atoms: O_13  and  C_14
REMARK    6  A    between atoms: C_14  and  C_15
REMARK                            x       y       z     vdW  Elec       q    Type
REMARK                         _______ _______ _______ _____ _____    ______ ____
ROOT
ATOM      1  O   UNL     1       3.989   6.437  18.375  0.00  0.00    +0.000 OA
ENDROOT
BRANCH   1   3
ATOM      2  O   UNL     1       4.846   6.696  16.261  0.00  0.00    +0.000 OA
ATOM      3  C   UNL     1       4.615   5.999  17.243  0.00  0.00    +0.000 C 
BRANCH   3   4
ATOM      4  C   UNL     1       5.110   4.578  17.421  0.00  0.00    +0.000 C 
BRANCH   4   5
ATOM      5  O   UNL     1       4.080   3.611  17.298  0.00  0.00    +0.000 OA
BRANCH   5   6
ATOM      6  C   UNL     1       3.450   3.275  18.474  0.00  0.00    +0.000 A 
ATOM      7  C   UNL     1       4.110   2.686  19.560  0.00  0.00    +0.000 A 
ATOM      8  C   UNL     1       3.419   2.402  20.740  0.00  0.00    +0.000 A 
ATOM      9  C   UNL     1       2.065   2.709  20.845  0.00  0.00    +0.000 A 
ATOM     10 CL   UNL     1       1.226   2.358  22.305  0.00  0.00    +0.000 Cl
ATOM     11  C   UNL     1       1.392   3.300  19.782  0.00  0.00    +0.000 A 
ATOM     12  C   UNL     1       2.085   3.586  18.601  0.00  0.00    +0.000 A 
ATOM     13 CL   UNL     1       1.205   4.314  17.302  0.00  0.00    +0.000 Cl
ENDBRANCH   5   6
ENDBRANCH   4   5
ENDBRANCH   3   4
ENDBRANCH   1   3
BRANCH   1  14
ATOM     14  C   UNL     1       2.872   7.295  18.100  0.00  0.00    +0.000 C 
BRANCH  14  15
ATOM     15  C   UNL     1       2.186   7.687  19.425  0.00  0.00    +0.000 C 
ATOM     16  O   UNL     1       2.301   6.906  20.376  0.00  0.00    +0.000 OA
ATOM     17  N   UNL     1       1.431   8.873  19.457  0.00  0.00    +0.000 N 
ATOM     18  C   UNL     1       1.307   9.767  18.297  0.00  0.00    +0.000 C 
ATOM     19  C   UNL     1      -0.135  10.166  18.050  0.00  0.00    +0.000 C 
ATOM     20  C   UNL     1      -0.667  10.932  19.243  0.00  0.00    +0.000 C 
ATOM     21  C   UNL     1      -0.263  10.312  20.555  0.00  0.00    +0.000 A 
ATOM     22  C   UNL     1      -0.936  10.759  21.709  0.00  0.00    +0.000 A 
ATOM     23  C   UNL     1      -0.615  10.252  22.964  0.00  0.00    +0.000 A 
ATOM     24  C   UNL     1       0.391   9.307  23.074  0.00  0.00    +0.000 A 
ATOM     25  C   UNL     1       1.071   8.858  21.935  0.00  0.00    +0.000 A 
ATOM     26  C   UNL     1       0.754   9.334  20.654  0.00  0.00    +0.000 A 
ENDBRANCH  14  15
ENDBRANCH   1  14
TORSDOF 6
ENDMDL
MODEL 6
REMARK VINA RESULT:      -7.3      3.266      5.167
REMARK  Name = 
REMARK  6 active torsions:
REMARK  status: ('A' for Active; 'I' for Inactive)
REMARK    1  A    between atoms: C_2  and  C_3
REMARK    2  A    between atoms: C_2  and  O_13
REMARK    3  A    between atoms: C_3  and  O_4
REMARK    4  A    between atoms: O_4  and  C_5
REMARK    5  A    between atoms: O_13  and  C_14
REMARK    6  A    between atoms: C_14  and  C_15
REMARK                            x       y       z     vdW  Elec       q    Type
REMARK                         _______ _______ _______ _____ _____    ______ ____
ROOT
ATOM      1  O   UNL     1       1.782   8.771  21.667  0.00  0.00    +0.000 OA
ENDROOT
BRANCH   1   3
ATOM      2  O   UNL     1       0.541   9.903  23.229  0.00  0.00    +0.000 OA
ATOM      3  C   UNL     1       0.941   9.763  22.079  0.00  0.00    +0.000 C 
BRANCH   3   4
ATOM      4  C   UNL     1       0.682  10.747  20.955  0.00  0.00    +0.000 C 
BRANCH   4   5
ATOM      5  O   UNL     1      -0.682  11.122  20.849  0.00  0.00    +0.000 OA
BRANCH   5   6
ATOM      6  C   UNL     1      -1.218  11.025  19.586  0.00  0.00    +0.000 A 
ATOM      7  C   UNL     1      -0.745  10.135  18.614  0.00  0.00    +0.000 A 
ATOM      8  C   UNL     1      -1.358  10.061  17.360  0.00  0.00    +0.000 A 
ATOM      9  C   UNL     1      -2.452  10.872  17.072  0.00  0.00    +0.000 A 
ATOM     10 CL   UNL     1      -3.201  10.768  15.527  0.00  0.00    +0.000 Cl
ATOM     11  C   UNL     1      -2.944  11.757  18.025  0.00  0.00    +0.000 A 
ATOM     12  C   UNL     1      -2.330  11.829  19.280  0.00  0.00    +0.000 A 
ATOM     13 CL   UNL     1      -2.971  12.951  20.430  0.00  0.00    +0.000 Cl
ENDBRANCH   5   6
ENDBRANCH   4   5
ENDBRANCH   3   4
ENDBRANCH   1   3
BRANCH   1  14
ATOM     14  C   UNL     1       1.149   7.830  20.786  0.00  0.00    +0.000 C 
BRANCH  14  15
ATOM     15  C   UNL     1       2.059   7.574  19.567  0.00  0.00    +0.000 C 
ATOM     16  O   UNL     1       2.252   8.520  18.795  0.00  0.00    +0.000 OA
ATOM     17  N   UNL     1       2.566   6.276  19.376  0.00  0.00    +0.000 N 
ATOM     18  C   UNL     1       2.298   5.175  20.312  0.00  0.00    +0.000 C 
ATOM     19  C   UNL     1       1.868   3.916  19.584  0.00  0.00    +0.000 C 
ATOM     20  C   UNL     1       2.980   3.445  18.671  0.00  0.00    +0.000 C 
ATOM     21  C   UNL     1       3.627   4.577  17.916  0.00  0.00    +0.000 A 
ATOM     22  C   UNL     1       4.458   4.233  16.832  0.00  0.00    +0.000 A 
ATOM     23  C   UNL     1       5.107   5.214  16.090  0.00  0.00    +0.000 A 
ATOM     24  C   UNL     1       4.940   6.545  16.437  0.00  0.00    +0.000 A 
ATOM     25  C   UNL     1       4.120   6.899  17.514  0.00  0.00    +0.000 A 
ATOM     26  C   UNL     1       3.435   5.934  18.266  0.00  0.00    +0.000 A 
ENDBRANCH  14  15
ENDBRANCH   1  14
TORSDOF 6
ENDMDL
MODEL 7
REMARK VINA RESULT:      -7.3      3.132      5.250
REMARK  Name = 
REMARK  6 active torsions:
REMARK  status: ('A' for Active; 'I' for Inactive)
REMARK    1  A    between atoms: C_2  and  C_3
REMARK    2  A    between atoms: C_2  and  O_13
REMARK    3  A    between atoms: C_3  and  O_4
REMARK    4  A    between atoms: O_4  and  C_5
REMARK    5  A    between atoms: O_13  and  C_14
REMARK    6  A    between atoms: C_14  and  C_15
REMARK                            x       y       z     vdW  Elec       q    Type
REMARK                         _______ _______ _______ _____ _____    ______ ____
ROOT
ATOM      1  O   UNL     1       1.505   8.431  21.641  0.00  0.00    +0.000 OA
ENDROOT
BRANCH   1   3
ATOM      2  O   UNL     1       0.389  10.005  22.882  0.00  0.00    +0.000 OA
ATOM      3  C   UNL     1       0.797   9.586  21.805  0.00  0.00    +0.000 C 
BRANCH   3   4
ATOM      4  C   UNL     1       0.707  10.349  20.498  0.00  0.00    +0.000 C 
BRANCH   4   5
ATOM      5  O   UNL     1      -0.466  11.139  20.396  0.00  0.00    +0.000 OA
BRANCH   5   6
ATOM      6  C   UNL     1      -1.189  10.965  19.238  0.00  0.00    +0.000 A 
ATOM      7  C   UNL     1      -0.800  10.098  18.210  0.00  0.00    +0.000 A 
ATOM      8  C   UNL     1      -1.598   9.941  17.074  0.00  0.00    +0.000 A 
ATOM      9  C   UNL     1      -2.794  10.645  16.961  0.00  0.00    +0.000 A 
ATOM     10 CL   UNL     1      -3.770  10.440  15.560  0.00  0.00    +0.000 Cl
ATOM     11  C   UNL     1      -3.203  11.506  17.974  0.00  0.00    +0.000 A 
ATOM     12  C   UNL     1      -2.404  11.661  19.111  0.00  0.00    +0.000 A 
ATOM     13 CL   UNL     1      -2.949  12.748  20.340  0.00  0.00    +0.000 Cl
ENDBRANCH   5   6
ENDBRANCH   4   5
ENDBRANCH   3   4
ENDBRANCH   1   3
BRANCH   1  14
ATOM     14  C   UNL     1       1.775   8.131  20.264  0.00  0.00    +0.000 C 
BRANCH  14  15
ATOM     15  C   UNL     1       1.897   6.604  20.084  0.00  0.00    +0.000 C 
ATOM     16  O   UNL     1       1.458   5.889  20.992  0.00  0.00    +0.000 OA
ATOM     17  N   UNL     1       2.545   6.119  18.933  0.00  0.00    +0.000 N 
ATOM     18  C   UNL     1       3.067   7.006  17.884  0.00  0.00    +0.000 C 
ATOM     19  C   UNL     1       4.482   6.629  17.488  0.00  0.00    +0.000 C 
ATOM     20  C   UNL     1       4.499   5.228  16.916  0.00  0.00    +0.000 C 
ATOM     21  C   UNL     1       3.650   4.268  17.709  0.00  0.00    +0.000 A 
ATOM     22  C   UNL     1       3.824   2.895  17.451  0.00  0.00    +0.000 A 
ATOM     23  C   UNL     1       3.070   1.941  18.127  0.00  0.00    +0.000 A 
ATOM     24  C   UNL     1       2.129   2.355  19.054  0.00  0.00    +0.000 A 
ATOM     25  C   UNL     1       1.944   3.718  19.316  0.00  0.00    +0.000 A 
ATOM     26  C   UNL     1       2.705   4.702  18.667  0.00  0.00    +0.000 A 
ENDBRANCH  14  15
ENDBRANCH   1  14
TORSDOF 6
ENDMDL
MODEL 8
REMARK VINA RESULT:      -7.3      5.072      7.228
REMARK  Name = 
REMARK  6 active torsions:
REMARK  status: ('A' for Active; 'I' for Inactive)
REMARK    1  A    between atoms: C_2  and  C_3
REMARK    2  A    between atoms: C_2  and  O_13
REMARK    3  A    between atoms: C_3  and  O_4
REMARK    4  A    between atoms: O_4  and  C_5
REMARK    5  A    between atoms: O_13  and  C_14
REMARK    6  A    between atoms: C_14  and  C_15
REMARK                            x       y       z     vdW  Elec       q    Type
REMARK                         _______ _______ _______ _____ _____    ______ ____
ROOT
ATOM      1  O   UNL     1       8.176   6.641  18.418  0.00  0.00    +0.000 OA
ENDROOT
BRANCH   1   3
ATOM      2  O   UNL     1       7.175   7.935  16.809  0.00  0.00    +0.000 OA
ATOM      3  C   UNL     1       7.876   7.825  17.808  0.00  0.00    +0.000 C 
BRANCH   3   4
ATOM      4  C   UNL     1       8.410   8.992  18.614  0.00  0.00    +0.000 C 
BRANCH   4   5
ATOM      5  O   UNL     1       8.939  10.030  17.805  0.00  0.00    +0.000 OA
BRANCH   5   6
ATOM      6  C   UNL     1       9.440  11.110  18.494  0.00  0.00    +0.000 A 
ATOM      7  C   UNL     1      10.465  11.012  19.442  0.00  0.00    +0.000 A 
ATOM      8  C   UNL     1      10.953  12.154  20.081  0.00  0.00    +0.000 A 
ATOM      9  C   UNL     1      10.424  13.405  19.772  0.00  0.00    +0.000 A 
ATOM     10 CL   UNL     1      11.036  14.804  20.561  0.00  0.00    +0.000 Cl
ATOM     11  C   UNL     1       9.410  13.526  18.827  0.00  0.00    +0.000 A 
ATOM     12  C   UNL     1       8.924  12.382  18.187  0.00  0.00    +0.000 A 
ATOM     13 CL   UNL     1       7.657  12.581  17.026  0.00  0.00    +0.000 Cl
ENDBRANCH   5   6
ENDBRANCH   4   5
ENDBRANCH   3   4
ENDBRANCH   1   3
BRANCH   1  14
ATOM     14  C   UNL     1       7.440   5.532  17.881  0.00  0.00    +0.000 C 
BRANCH  14  15
ATOM     15  C   UNL     1       6.187   5.280  18.747  0.00  0.00    +0.000 C 
ATOM     16  O   UNL     1       6.323   5.347  19.973  0.00  0.00    +0.000 OA
ATOM     17  N   UNL     1       4.988   4.935  18.097  0.00  0.00    +0.000 N 
ATOM     18  C   UNL     1       4.875   4.851  16.634  0.00  0.00    +0.000 C 
ATOM     19  C   UNL     1       4.179   3.575  16.201  0.00  0.00    +0.000 C 
ATOM     20  C   UNL     1       2.767   3.550  16.745  0.00  0.00    +0.000 C 
ATOM     21  C   UNL     1       2.691   4.009  18.178  0.00  0.00    +0.000 A 
ATOM     22  C   UNL     1       1.493   3.749  18.872  0.00  0.00    +0.000 A 
ATOM     23  C   UNL     1       1.331   4.152  20.193  0.00  0.00    +0.000 A 
ATOM     24  C   UNL     1       2.360   4.831  20.824  0.00  0.00    +0.000 A 
ATOM     25  C   UNL     1       3.554   5.099  20.143  0.00  0.00    +0.000 A 
ATOM     26  C   UNL     1       3.755   4.685  18.818  0.00  0.00    +0.000 A 
ENDBRANCH  14  15
ENDBRANCH   1  14
TORSDOF 6
ENDMDL
MODEL 9
REMARK VINA RESULT:      -7.2      2.725      7.597
REMARK  Name = 
REMARK  6 active torsions:
REMARK  status: ('A' for Active; 'I' for Inactive)
REMARK    1  A    between atoms: C_2  and  C_3
REMARK    2  A    between atoms: C_2  and  O_13
REMARK    3  A    between atoms: C_3  and  O_4
REMARK    4  A    between atoms: O_4  and  C_5
REMARK    5  A    between atoms: O_13  and  C_14
REMARK    6  A    between atoms: C_14  and  C_15
REMARK                            x       y       z     vdW  Elec       q    Type
REMARK                         _______ _______ _______ _____ _____    ______ ____
ROOT
ATOM      1  O   UNL     1       2.175   5.282  19.075  0.00  0.00    +0.000 OA
ENDROOT
BRANCH   1   3
ATOM      2  O   UNL     1       2.868   3.470  20.302  0.00  0.00    +0.000 OA
ATOM      3  C   UNL     1       3.105   4.530  19.734  0.00  0.00    +0.000 C 
BRANCH   3   4
ATOM      4  C   UNL     1       4.492   5.112  19.549  0.00  0.00    +0.000 C 
BRANCH   4   5
ATOM      5  O   UNL     1       5.438   4.158  19.093  0.00  0.00    +0.000 OA
BRANCH   5   6
ATOM      6  C   UNL     1       5.829   4.304  17.782  0.00  0.00    +0.000 A 
ATOM      7  C   UNL     1       5.113   3.776  16.700  0.00  0.00    +0.000 A 
ATOM      8  C   UNL     1       5.546   3.991  15.390  0.00  0.00    +0.000 A 
ATOM      9  C   UNL     1       6.695   4.740  15.150  0.00  0.00    +0.000 A 
ATOM     10 CL   UNL     1       7.216   5.002  13.532  0.00  0.00    +0.000 Cl
ATOM     11  C   UNL     1       7.418   5.281  16.209  0.00  0.00    +0.000 A 
ATOM     12  C   UNL     1       6.982   5.066  17.521  0.00  0.00    +0.000 A 
ATOM     13 CL   UNL     1       7.916   5.750  18.805  0.00  0.00    +0.000 Cl
ENDBRANCH   5   6
ENDBRANCH   4   5
ENDBRANCH   3   4
ENDBRANCH   1   3
BRANCH   1  14
ATOM     14  C   UNL     1       2.490   6.682  19.069  0.00  0.00    +0.000 C 
BRANCH  14  15
ATOM     15  C   UNL     1       1.701   7.392  20.189  0.00  0.00    +0.000 C 
ATOM     16  O   UNL     1       1.482   6.750  21.222  0.00  0.00    +0.000 OA
ATOM     17  N   UNL     1       1.233   8.697  19.948  0.00  0.00    +0.000 N 
ATOM     18  C   UNL     1       1.503   9.418  18.697  0.00  0.00    +0.000 C 
ATOM     19  C   UNL     1       0.246  10.056  18.137  0.00  0.00    +0.000 C 
ATOM     20  C   UNL     1      -0.291  11.078  19.117  0.00  0.00    +0.000 C 
ATOM     21  C   UNL     1      -0.256  10.588  20.541  0.00  0.00    +0.000 A 
ATOM     22  C   UNL     1      -0.993  11.322  21.490  0.00  0.00    +0.000 A 
ATOM     23  C   UNL     1      -1.003  10.950  22.830  0.00  0.00    +0.000 A 
ATOM     24  C   UNL     1      -0.264   9.850  23.232  0.00  0.00    +0.000 A 
ATOM     25  C   UNL     1       0.476   9.114  22.299  0.00  0.00    +0.000 A 
ATOM     26  C   UNL     1       0.488   9.452  20.937  0.00  0.00    +0.000 A 
ENDBRANCH  14  15
ENDBRANCH   1  14
TORSDOF 6
ENDMDL
