MODEL 1
REMARK VINA RESULT:      -8.3      0.000      0.000
REMARK  Name = 
REMARK  4 active torsions:
REMARK  status: ('A' for Active; 'I' for Inactive)
REMARK    1  A    between atoms: C_1  and  C_2
REMARK    2  A    between atoms: C_5  and  N_6
REMARK    3  A    between atoms: C_7  and  C_9
REMARK    4  A    between atoms: C_21  and  C_22
REMARK                            x       y       z     vdW  Elec       q    Type
REMARK                         _______ _______ _______ _____ _____    ______ ____
ROOT
ATOM      1  N   UNL     1       3.837   6.825  17.410  0.00  0.00    +0.000 N 
ATOM      2  C   UNL     1       4.749   5.794  17.510  0.00  0.00    +0.000 C 
ATOM      3  O   UNL     1       4.937   5.114  18.518  0.00  0.00    +0.000 OA
ATOM      4  H   UNL     1       3.781   7.313  16.512  0.00  0.00    +0.000 HD
ENDROOT
BRANCH   2   5
ATOM      5  C   UNL     1       5.560   5.492  16.287  0.00  0.00    +0.000 A 
ATOM      6  C   UNL     1       4.955   4.731  15.356  0.00  0.00    +0.000 A 
ATOM      7  C   UNL     1       5.628   4.348  14.122  0.00  0.00    +0.000 A 
ATOM      8  C   UNL     1       4.981   3.567  13.159  0.00  0.00    +0.000 A 
ATOM      9  C   UNL     1       5.653   3.206  11.993  0.00  0.00    +0.000 A 
ATOM     10  C   UNL     1       6.971   3.621  11.789  0.00  0.00    +0.000 A 
ATOM     11  C   UNL     1       7.621   4.403  12.748  0.00  0.00    +0.000 A 
ATOM     12  C   UNL     1       6.945   4.768  13.913  0.00  0.00    +0.000 A 
ATOM     13  N   UNL     1       7.568   5.563  14.886  0.00  0.00    +0.000 N 
ATOM     14  C   UNL     1       6.953   5.966  16.050  0.00  0.00    +0.000 A 
ATOM     15  O   UNL     1       7.532   6.686  16.860  0.00  0.00    +0.000 OA
ATOM     16  H   UNL     1       8.516   5.885  14.741  0.00  0.00    +0.000 HD
ENDBRANCH   2   5
BRANCH   1  21
ATOM     17  C   UNL     1       0.213   8.662  21.490  0.00  0.00    +0.000 C 
ATOM     18  C   UNL     1       1.164   8.215  20.416  0.00  0.00    +0.000 A 
ATOM     19  C   UNL     1       1.809   6.986  20.559  0.00  0.00    +0.000 A 
ATOM     20  C   UNL     1       2.692   6.522  19.584  0.00  0.00    +0.000 A 
ATOM     21  C   UNL     1       2.959   7.266  18.434  0.00  0.00    +0.000 A 
ATOM     22  C   UNL     1       2.321   8.506  18.289  0.00  0.00    +0.000 A 
ATOM     23  C   UNL     1       1.427   8.991  19.270  0.00  0.00    +0.000 A 
ATOM     24  C   UNL     1       0.761  10.329  19.083  0.00  0.00    +0.000 C 
ENDBRANCH   1  21
TORSDOF 2
ENDMDL
MODEL 2
REMARK VINA RESULT:      -8.2      2.781      4.475
REMARK  Name = 
REMARK  4 active torsions:
REMARK  status: ('A' for Active; 'I' for Inactive)
REMARK    1  A    between atoms: C_1  and  C_2
REMARK    2  A    between atoms: C_5  and  N_6
REMARK    3  A    between atoms: C_7  and  C_9
REMARK    4  A    between atoms: C_21  and  C_22
REMARK                            x       y       z     vdW  Elec       q    Type
REMARK                         _______ _______ _______ _____ _____    ______ ____
ROOT
ATOM      1  N   UNL     1       1.329   8.097  20.465  0.00  0.00    +0.000 N 
ATOM      2  C   UNL     1       1.892   8.213  19.210  0.00  0.00    +0.000 C 
ATOM      3  O   UNL     1       1.818   9.210  18.493  0.00  0.00    +0.000 OA
ATOM      4  H   UNL     1       1.465   7.210  20.956  0.00  0.00    +0.000 HD
ENDROOT
BRANCH   2   5
ATOM      5  C   UNL     1       2.653   7.027  18.701  0.00  0.00    +0.000 A 
ATOM      6  C   UNL     1       3.484   7.263  17.668  0.00  0.00    +0.000 A 
ATOM      7  C   UNL     1       4.277   6.200  17.064  0.00  0.00    +0.000 A 
ATOM      8  C   UNL     1       5.144   6.465  15.999  0.00  0.00    +0.000 A 
ATOM      9  C   UNL     1       5.883   5.427  15.432  0.00  0.00    +0.000 A 
ATOM     10  C   UNL     1       5.753   4.127  15.926  0.00  0.00    +0.000 A 
ATOM     11  C   UNL     1       4.887   3.859  16.991  0.00  0.00    +0.000 A 
ATOM     12  C   UNL     1       4.153   4.900  17.560  0.00  0.00    +0.000 A 
ATOM     13  N   UNL     1       3.288   4.662  18.638  0.00  0.00    +0.000 N 
ATOM     14  C   UNL     1       2.545   5.646  19.250  0.00  0.00    +0.000 A 
ATOM     15  O   UNL     1       1.820   5.393  20.211  0.00  0.00    +0.000 OA
ATOM     16  H   UNL     1       3.198   3.727  19.015  0.00  0.00    +0.000 HD
ENDBRANCH   2   5
BRANCH   1  21
ATOM     17  C   UNL     1      -1.749  12.169  23.130  0.00  0.00    +0.000 C 
ATOM     18  C   UNL     1      -0.939  11.128  22.408  0.00  0.00    +0.000 A 
ATOM     19  C   UNL     1      -0.361  10.096  23.149  0.00  0.00    +0.000 A 
ATOM     20  C   UNL     1       0.390   9.099  22.524  0.00  0.00    +0.000 A 
ATOM     21  C   UNL     1       0.586   9.098  21.143  0.00  0.00    +0.000 A 
ATOM     22  C   UNL     1       0.016  10.138  20.395  0.00  0.00    +0.000 A 
ATOM     23  C   UNL     1      -0.745  11.156  21.014  0.00  0.00    +0.000 A 
ATOM     24  C   UNL     1      -1.341  12.259  20.180  0.00  0.00    +0.000 C 
ENDBRANCH   1  21
TORSDOF 2
ENDMDL
MODEL 3
REMARK VINA RESULT:      -8.2      2.736      3.979
REMARK  Name = 
REMARK  4 active torsions:
REMARK  status: ('A' for Active; 'I' for Inactive)
REMARK    1  A    between atoms: C_1  and  C_2
REMARK    2  A    between atoms: C_5  and  N_6
REMARK    3  A    between atoms: C_7  and  C_9
REMARK    4  A    between atoms: C_21  and  C_22
REMARK                            x       y       z     vdW  Elec       q    Type
REMARK                         _______ _______ _______ _____ _____    ______ ____
ROOT
ATOM      1  N   UNL     1       1.956   7.824  19.618  0.00  0.00    +0.000 N 
ATOM      2  C   UNL     1       2.156   6.473  19.814  0.00  0.00    +0.000 C 
ATOM      3  O   UNL     1       1.717   5.825  20.764  0.00  0.00    +0.000 OA
ATOM      4  H   UNL     1       2.378   8.242  18.785  0.00  0.00    +0.000 HD
ENDROOT
BRANCH   2   5
ATOM      5  C   UNL     1       2.968   5.755  18.779  0.00  0.00    +0.000 A 
ATOM      6  C   UNL     1       4.204   6.243  18.562  0.00  0.00    +0.000 A 
ATOM      7  C   UNL     1       5.099   5.653  17.576  0.00  0.00    +0.000 A 
ATOM      8  C   UNL     1       6.385   6.165  17.372  0.00  0.00    +0.000 A 
ATOM      9  C   UNL     1       7.216   5.587  16.414  0.00  0.00    +0.000 A 
ATOM     10  C   UNL     1       6.764   4.503  15.659  0.00  0.00    +0.000 A 
ATOM     11  C   UNL     1       5.480   3.988  15.861  0.00  0.00    +0.000 A 
ATOM     12  C   UNL     1       4.651   4.564  16.824  0.00  0.00    +0.000 A 
ATOM     13  N   UNL     1       3.364   4.059  17.057  0.00  0.00    +0.000 N 
ATOM     14  C   UNL     1       2.502   4.575  17.999  0.00  0.00    +0.000 A 
ATOM     15  O   UNL     1       1.391   4.080  18.185  0.00  0.00    +0.000 OA
ATOM     16  H   UNL     1       3.031   3.263  16.528  0.00  0.00    +0.000 HD
ENDBRANCH   2   5
BRANCH   1  21
ATOM     17  C   UNL     1      -1.159  11.333  22.956  0.00  0.00    +0.000 C 
ATOM     18  C   UNL     1      -0.346  10.441  22.060  0.00  0.00    +0.000 A 
ATOM     19  C   UNL     1       0.478   9.476  22.641  0.00  0.00    +0.000 A 
ATOM     20  C   UNL     1       1.242   8.617  21.852  0.00  0.00    +0.000 A 
ATOM     21  C   UNL     1       1.208   8.688  20.459  0.00  0.00    +0.000 A 
ATOM     22  C   UNL     1       0.388   9.662  19.869  0.00  0.00    +0.000 A 
ATOM     23  C   UNL     1      -0.389  10.542  20.656  0.00  0.00    +0.000 A 
ATOM     24  C   UNL     1      -1.256  11.577  19.989  0.00  0.00    +0.000 C 
ENDBRANCH   1  21
TORSDOF 2
ENDMDL
MODEL 4
REMARK VINA RESULT:      -8.0      3.598      5.149
REMARK  Name = 
REMARK  4 active torsions:
REMARK  status: ('A' for Active; 'I' for Inactive)
REMARK    1  A    between atoms: C_1  and  C_2
REMARK    2  A    between atoms: C_5  and  N_6
REMARK    3  A    between atoms: C_7  and  C_9
REMARK    4  A    between atoms: C_21  and  C_22
REMARK                            x       y       z     vdW  Elec       q    Type
REMARK                         _______ _______ _______ _____ _____    ______ ____
ROOT
ATOM      1  N   UNL     1       1.827   8.934  18.131  0.00  0.00    +0.000 N 
ATOM      2  C   UNL     1       2.043   8.002  19.126  0.00  0.00    +0.000 C 
ATOM      3  O   UNL     1       1.834   8.188  20.324  0.00  0.00    +0.000 OA
ATOM      4  H   UNL     1       2.044   8.651  17.172  0.00  0.00    +0.000 HD
ENDROOT
BRANCH   2   5
ATOM      5  C   UNL     1       2.567   6.666  18.695  0.00  0.00    +0.000 A 
ATOM      6  C   UNL     1       1.933   5.595  19.206  0.00  0.00    +0.000 A 
ATOM      7  C   UNL     1       2.343   4.234  18.884  0.00  0.00    +0.000 A 
ATOM      8  C   UNL     1       1.665   3.132  19.415  0.00  0.00    +0.000 A 
ATOM      9  C   UNL     1       2.087   1.841  19.099  0.00  0.00    +0.000 A 
ATOM     10  C   UNL     1       3.184   1.652  18.257  0.00  0.00    +0.000 A 
ATOM     11  C   UNL     1       3.863   2.751  17.723  0.00  0.00    +0.000 A 
ATOM     12  C   UNL     1       3.438   4.042  18.037  0.00  0.00    +0.000 A 
ATOM     13  N   UNL     1       4.091   5.163  17.505  0.00  0.00    +0.000 N 
ATOM     14  C   UNL     1       3.714   6.461  17.767  0.00  0.00    +0.000 A 
ATOM     15  O   UNL     1       4.303   7.411  17.254  0.00  0.00    +0.000 OA
ATOM     16  H   UNL     1       4.878   5.038  16.880  0.00  0.00    +0.000 HD
ENDBRANCH   2   5
BRANCH   1  21
ATOM     17  C   UNL     1      -0.155  14.299  18.796  0.00  0.00    +0.000 C 
ATOM     18  C   UNL     1       0.394  12.909  18.632  0.00  0.00    +0.000 A 
ATOM     19  C   UNL     1      -0.484  11.827  18.720  0.00  0.00    +0.000 A 
ATOM     20  C   UNL     1      -0.025  10.519  18.564  0.00  0.00    +0.000 A 
ATOM     21  C   UNL     1       1.320  10.247  18.312  0.00  0.00    +0.000 A 
ATOM     22  C   UNL     1       2.208  11.330  18.233  0.00  0.00    +0.000 A 
ATOM     23  C   UNL     1       1.759  12.660  18.392  0.00  0.00    +0.000 A 
ATOM     24  C   UNL     1       2.740  13.799  18.302  0.00  0.00    +0.000 C 
ENDBRANCH   1  21
TORSDOF 2
ENDMDL
MODEL 5
REMARK VINA RESULT:      -8.0      3.115      9.163
REMARK  Name = 
REMARK  4 active torsions:
REMARK  status: ('A' for Active; 'I' for Inactive)
REMARK    1  A    between atoms: C_1  and  C_2
REMARK    2  A    between atoms: C_5  and  N_6
REMARK    3  A    between atoms: C_7  and  C_9
REMARK    4  A    between atoms: C_21  and  C_22
REMARK                            x       y       z     vdW  Elec       q    Type
REMARK                         _______ _______ _______ _____ _____    ______ ____
ROOT
ATOM      1  N   UNL     1       2.221   7.595  19.006  0.00  0.00    +0.000 N 
ATOM      2  C   UNL     1       1.698   8.804  18.594  0.00  0.00    +0.000 C 
ATOM      3  O   UNL     1       1.865   9.304  17.482  0.00  0.00    +0.000 OA
ATOM      4  H   UNL     1       2.006   7.295  19.960  0.00  0.00    +0.000 HD
ENDROOT
BRANCH   2   5
ATOM      5  C   UNL     1       0.861   9.549  19.589  0.00  0.00    +0.000 A 
ATOM      6  C   UNL     1       0.021  10.468  19.077  0.00  0.00    +0.000 A 
ATOM      7  C   UNL     1      -0.844  11.276  19.927  0.00  0.00    +0.000 A 
ATOM      8  C   UNL     1      -1.719  12.218  19.377  0.00  0.00    +0.000 A 
ATOM      9  C   UNL     1      -2.527  12.985  20.216  0.00  0.00    +0.000 A 
ATOM     10  C   UNL     1      -2.459  12.814  21.600  0.00  0.00    +0.000 A 
ATOM     11  C   UNL     1      -1.585  11.873  22.153  0.00  0.00    +0.000 A 
ATOM     12  C   UNL     1      -0.781  11.103  21.312  0.00  0.00    +0.000 A 
ATOM     13  N   UNL     1       0.094  10.141  21.839  0.00  0.00    +0.000 N 
ATOM     14  C   UNL     1       0.904   9.342  21.064  0.00  0.00    +0.000 A 
ATOM     15  O   UNL     1       1.636   8.494  21.571  0.00  0.00    +0.000 OA
ATOM     16  H   UNL     1       0.139   9.996  22.839  0.00  0.00    +0.000 HD
ENDBRANCH   2   5
BRANCH   1  21
ATOM     17  C   UNL     1       5.380   3.994  15.812  0.00  0.00    +0.000 C 
ATOM     18  C   UNL     1       4.546   4.907  16.666  0.00  0.00    +0.000 A 
ATOM     19  C   UNL     1       4.881   6.261  16.727  0.00  0.00    +0.000 A 
ATOM     20  C   UNL     1       4.131   7.151  17.496  0.00  0.00    +0.000 A 
ATOM     21  C   UNL     1       3.021   6.722  18.225  0.00  0.00    +0.000 A 
ATOM     22  C   UNL     1       2.685   5.362  18.175  0.00  0.00    +0.000 A 
ATOM     23  C   UNL     1       3.438   4.447  17.403  0.00  0.00    +0.000 A 
ATOM     24  C   UNL     1       3.050   2.993  17.374  0.00  0.00    +0.000 C 
ENDBRANCH   1  21
TORSDOF 2
ENDMDL
MODEL 6
REMARK VINA RESULT:      -7.9      3.569      5.092
REMARK  Name = 
REMARK  4 active torsions:
REMARK  status: ('A' for Active; 'I' for Inactive)
REMARK    1  A    between atoms: C_1  and  C_2
REMARK    2  A    between atoms: C_5  and  N_6
REMARK    3  A    between atoms: C_7  and  C_9
REMARK    4  A    between atoms: C_21  and  C_22
REMARK                            x       y       z     vdW  Elec       q    Type
REMARK                         _______ _______ _______ _____ _____    ______ ____
ROOT
ATOM      1  N   UNL     1       1.900   8.934  18.096  0.00  0.00    +0.000 N 
ATOM      2  C   UNL     1       2.075   7.989  19.086  0.00  0.00    +0.000 C 
ATOM      3  O   UNL     1       1.830   8.162  20.279  0.00  0.00    +0.000 OA
ATOM      4  H   UNL     1       2.145   8.661  17.141  0.00  0.00    +0.000 HD
ENDROOT
BRANCH   2   5
ATOM      5  C   UNL     1       2.600   6.653  18.655  0.00  0.00    +0.000 A 
ATOM      6  C   UNL     1       1.949   5.581  19.146  0.00  0.00    +0.000 A 
ATOM      7  C   UNL     1       2.358   4.221  18.822  0.00  0.00    +0.000 A 
ATOM      8  C   UNL     1       1.663   3.119  19.331  0.00  0.00    +0.000 A 
ATOM      9  C   UNL     1       2.083   1.828  19.013  0.00  0.00    +0.000 A 
ATOM     10  C   UNL     1       3.196   1.638  18.191  0.00  0.00    +0.000 A 
ATOM     11  C   UNL     1       3.891   2.737  17.680  0.00  0.00    +0.000 A 
ATOM     12  C   UNL     1       3.467   4.028  17.995  0.00  0.00    +0.000 A 
ATOM     13  N   UNL     1       4.138   5.149  17.484  0.00  0.00    +0.000 N 
ATOM     14  C   UNL     1       3.764   6.447  17.748  0.00  0.00    +0.000 A 
ATOM     15  O   UNL     1       4.368   7.398  17.254  0.00  0.00    +0.000 OA
ATOM     16  H   UNL     1       4.936   5.024  16.874  0.00  0.00    +0.000 HD
ENDBRANCH   2   5
BRANCH   1  21
ATOM     17  C   UNL     1      -0.202  14.235  18.900  0.00  0.00    +0.000 C 
ATOM     18  C   UNL     1       0.316  12.841  18.679  0.00  0.00    +0.000 A 
ATOM     19  C   UNL     1       1.683  12.659  18.466  0.00  0.00    +0.000 A 
ATOM     20  C   UNL     1       2.214  11.384  18.267  0.00  0.00    +0.000 A 
ATOM     21  C   UNL     1       1.401  10.250  18.277  0.00  0.00    +0.000 A 
ATOM     22  C   UNL     1       0.025  10.428  18.482  0.00  0.00    +0.000 A 
ATOM     23  C   UNL     1      -0.528  11.713  18.681  0.00  0.00    +0.000 A 
ATOM     24  C   UNL     1      -2.010  11.868  18.896  0.00  0.00    +0.000 C 
ENDBRANCH   1  21
TORSDOF 2
ENDMDL
MODEL 7
REMARK VINA RESULT:      -7.9      2.652      8.875
REMARK  Name = 
REMARK  4 active torsions:
REMARK  status: ('A' for Active; 'I' for Inactive)
REMARK    1  A    between atoms: C_1  and  C_2
REMARK    2  A    between atoms: C_5  and  N_6
REMARK    3  A    between atoms: C_7  and  C_9
REMARK    4  A    between atoms: C_21  and  C_22
REMARK                            x       y       z     vdW  Elec       q    Type
REMARK                         _______ _______ _______ _____ _____    ______ ____
ROOT
ATOM      1  N   UNL     1       2.887   7.672  18.052  0.00  0.00    +0.000 N 
ATOM      2  C   UNL     1       2.261   7.569  19.277  0.00  0.00    +0.000 C 
ATOM      3  O   UNL     1       2.309   6.584  20.014  0.00  0.00    +0.000 OA
ATOM      4  H   UNL     1       2.764   8.548  17.538  0.00  0.00    +0.000 HD
ENDROOT
BRANCH   2   5
ATOM      5  C   UNL     1       1.469   8.758  19.731  0.00  0.00    +0.000 A 
ATOM      6  C   UNL     1       0.921   8.663  20.957  0.00  0.00    +0.000 A 
ATOM      7  C   UNL     1       0.115   9.737  21.522  0.00  0.00    +0.000 A 
ATOM      8  C   UNL     1      -0.437   9.627  22.802  0.00  0.00    +0.000 A 
ATOM      9  C   UNL     1      -1.214  10.667  23.314  0.00  0.00    +0.000 A 
ATOM     10  C   UNL     1      -1.440  11.811  22.547  0.00  0.00    +0.000 A 
ATOM     11  C   UNL     1      -0.888  11.925  21.268  0.00  0.00    +0.000 A 
ATOM     12  C   UNL     1      -0.108  10.886  20.760  0.00  0.00    +0.000 A 
ATOM     13  N   UNL     1       0.469  10.980  19.485  0.00  0.00    +0.000 N 
ATOM     14  C   UNL     1       1.257   9.996  18.931  0.00  0.00    +0.000 A 
ATOM     15  O   UNL     1       1.763  10.136  17.819  0.00  0.00    +0.000 OA
ATOM     16  H   UNL     1       0.326  11.812  18.927  0.00  0.00    +0.000 HD
ENDBRANCH   2   5
BRANCH   1  21
ATOM     17  C   UNL     1       6.086   3.579  15.569  0.00  0.00    +0.000 C 
ATOM     18  C   UNL     1       5.243   4.626  16.242  0.00  0.00    +0.000 A 
ATOM     19  C   UNL     1       5.529   5.971  16.007  0.00  0.00    +0.000 A 
ATOM     20  C   UNL     1       4.768   6.980  16.600  0.00  0.00    +0.000 A 
ATOM     21  C   UNL     1       3.697   6.680  17.442  0.00  0.00    +0.000 A 
ATOM     22  C   UNL     1       3.410   5.329  17.689  0.00  0.00    +0.000 A 
ATOM     23  C   UNL     1       4.174   4.297  17.098  0.00  0.00    +0.000 A 
ATOM     24  C   UNL     1       3.840   2.858  17.387  0.00  0.00    +0.000 C 
ENDBRANCH   1  21
TORSDOF 2
ENDMDL
MODEL 8
REMARK VINA RESULT:      -7.9      2.730      4.598
REMARK  Name = 
REMARK  4 active torsions:
REMARK  status: ('A' for Active; 'I' for Inactive)
REMARK    1  A    between atoms: C_1  and  C_2
REMARK    2  A    between atoms: C_5  and  N_6
REMARK    3  A    between atoms: C_7  and  C_9
REMARK    4  A    between atoms: C_21  and  C_22
REMARK                            x       y       z     vdW  Elec       q    Type
REMARK                         _______ _______ _______ _____ _____    ______ ____
ROOT
ATOM      1  N   UNL     1       1.221   8.912  19.429  0.00  0.00    +0.000 N 
ATOM      2  C   UNL     1       2.045   8.816  18.326  0.00  0.00    +0.000 C 
ATOM      3  O   UNL     1       2.186   9.690  17.471  0.00  0.00    +0.000 OA
ATOM      4  H   UNL     1       1.195   8.110  20.063  0.00  0.00    +0.000 HD
ENDROOT
BRANCH   2   5
ATOM      5  C   UNL     1       2.824   7.544  18.177  0.00  0.00    +0.000 A 
ATOM      6  C   UNL     1       3.631   7.474  17.102  0.00  0.00    +0.000 A 
ATOM      7  C   UNL     1       4.437   6.292  16.824  0.00  0.00    +0.000 A 
ATOM      8  C   UNL     1       5.279   6.241  15.708  0.00  0.00    +0.000 A 
ATOM      9  C   UNL     1       6.031   5.093  15.460  0.00  0.00    +0.000 A 
ATOM     10  C   UNL     1       5.941   3.999  16.323  0.00  0.00    +0.000 A 
ATOM     11  C   UNL     1       5.101   4.048  17.440  0.00  0.00    +0.000 A 
ATOM     12  C   UNL     1       4.353   5.199  17.689  0.00  0.00    +0.000 A 
ATOM     13  N   UNL     1       3.513   5.280  18.809  0.00  0.00    +0.000 N 
ATOM     14  C   UNL     1       2.758   6.390  19.117  0.00  0.00    +0.000 A 
ATOM     15  O   UNL     1       2.057   6.423  20.126  0.00  0.00    +0.000 OA
ATOM     16  H   UNL     1       3.452   4.500  19.451  0.00  0.00    +0.000 HD
ENDBRANCH   2   5
BRANCH   1  21
ATOM     17  C   UNL     1      -2.148  13.379  20.790  0.00  0.00    +0.000 C 
ATOM     18  C   UNL     1      -1.280  12.214  20.403  0.00  0.00    +0.000 A 
ATOM     19  C   UNL     1      -0.123  11.964  21.141  0.00  0.00    +0.000 A 
ATOM     20  C   UNL     1       0.709  10.889  20.828  0.00  0.00    +0.000 A 
ATOM     21  C   UNL     1       0.412  10.027  19.772  0.00  0.00    +0.000 A 
ATOM     22  C   UNL     1      -0.745  10.278  19.020  0.00  0.00    +0.000 A 
ATOM     23  C   UNL     1      -1.595  11.366  19.323  0.00  0.00    +0.000 A 
ATOM     24  C   UNL     1      -2.828  11.608  18.494  0.00  0.00    +0.000 C 
ENDBRANCH   1  21
TORSDOF 2
ENDMDL
MODEL 9
REMARK VINA RESULT:      -7.9      2.445      3.759
REMARK  Name = 
REMARK  4 active torsions:
REMARK  status: ('A' for Active; 'I' for Inactive)
REMARK    1  A    between atoms: C_1  and  C_2
REMARK    2  A    between atoms: C_5  and  N_6
REMARK    3  A    between atoms: C_7  and  C_9
REMARK    4  A    between atoms: C_21  and  C_22
REMARK                            x       y       z     vdW  Elec       q    Type
REMARK                         _______ _______ _______ _____ _____    ______ ____
ROOT
ATOM      1  N   UNL     1       2.203   7.729  19.251  0.00  0.00    +0.000 N 
ATOM      2  C   UNL     1       2.381   6.418  19.644  0.00  0.00    +0.000 C 
ATOM      3  O   UNL     1       1.843   5.894  20.618  0.00  0.00    +0.000 OA
ATOM      4  H   UNL     1       2.713   8.041  18.421  0.00  0.00    +0.000 HD
ENDROOT
BRANCH   2   5
ATOM      5  C   UNL     1       3.301   5.583  18.805  0.00  0.00    +0.000 A 
ATOM      6  C   UNL     1       3.795   6.181  17.705  0.00  0.00    +0.000 A 
ATOM      7  C   UNL     1       4.691   5.485  16.791  0.00  0.00    +0.000 A 
ATOM      8  C   UNL     1       5.205   6.125  15.658  0.00  0.00    +0.000 A 
ATOM      9  C   UNL     1       6.051   5.431  14.795  0.00  0.00    +0.000 A 
ATOM     10  C   UNL     1       6.382   4.101  15.060  0.00  0.00    +0.000 A 
ATOM     11  C   UNL     1       5.871   3.459  16.191  0.00  0.00    +0.000 A 
ATOM     12  C   UNL     1       5.027   4.156  17.057  0.00  0.00    +0.000 A 
ATOM     13  N   UNL     1       4.512   3.540  18.207  0.00  0.00    +0.000 N 
ATOM     14  C   UNL     1       3.685   4.176  19.106  0.00  0.00    +0.000 A 
ATOM     15  O   UNL     1       3.279   3.602  20.115  0.00  0.00    +0.000 OA
ATOM     16  H   UNL     1       4.758   2.582  18.419  0.00  0.00    +0.000 HD
ENDBRANCH   2   5
BRANCH   1  21
ATOM     17  C   UNL     1      -1.121  11.602  21.918  0.00  0.00    +0.000 C 
ATOM     18  C   UNL     1      -0.260  10.568  21.247  0.00  0.00    +0.000 A 
ATOM     19  C   UNL     1      -0.061  10.653  19.868  0.00  0.00    +0.000 A 
ATOM     20  C   UNL     1       0.739   9.725  19.201  0.00  0.00    +0.000 A 
ATOM     21  C   UNL     1       1.369   8.685  19.886  0.00  0.00    +0.000 A 
ATOM     22  C   UNL     1       1.165   8.590  21.271  0.00  0.00    +0.000 A 
ATOM     23  C   UNL     1       0.355   9.521  21.959  0.00  0.00    +0.000 A 
ATOM     24  C   UNL     1       0.156   9.387  23.446  0.00  0.00    +0.000 C 
ENDBRANCH   1  21
TORSDOF 2
ENDMDL
