MODEL 1
REMARK VINA RESULT:      -9.8      0.000      0.000
REMARK  Name = 
REMARK  4 active torsions:
REMARK  status: ('A' for Active; 'I' for Inactive)
REMARK    1  A    between atoms: N_12  and  C_13
REMARK    2  A    between atoms: C_16  and  C_17
REMARK    3  A    between atoms: C_17  and  N_18
REMARK    4  A    between atoms: N_18  and  C_19
REMARK                            x       y       z     vdW  Elec       q    Type
REMARK                         _______ _______ _______ _____ _____    ______ ____
ROOT
ATOM      1  C   UNL     1       2.436   6.745  18.697  0.00  0.00    +0.000 A 
ATOM      2  C   UNL     1       1.916   7.066  19.963  0.00  0.00    +0.000 A 
ATOM      3  C   UNL     1       1.407   8.336  20.255  0.00  0.00    +0.000 A 
ATOM      4  C   UNL     1       1.391   9.345  19.287  0.00  0.00    +0.000 A 
ATOM      5  C   UNL     1       1.940   9.055  18.034  0.00  0.00    +0.000 A 
ATOM      6  C   UNL     1       2.449   7.777  17.740  0.00  0.00    +0.000 A 
ENDROOT
BRANCH   1  18
ATOM      7  O   UNL     1       5.029   5.490  19.434  0.00  0.00    +0.000 OA
ATOM      8  C   UNL     1       4.150   4.936  18.786  0.00  0.00    +0.000 C 
ATOM      9  C   UNL     1       4.263   3.500  18.376  0.00  0.00    +0.000 C 
ATOM     10  C   UNL     1       4.294   2.460  19.513  0.00  0.00    +0.000 C 
ATOM     11  C   UNL     1       3.229   2.750  20.590  0.00  0.00    +0.000 C 
ATOM     12  C   UNL     1       1.911   2.436  19.867  0.00  0.00    +0.000 C 
ATOM     13  C   UNL     1       2.382   2.001  18.466  0.00  0.00    +0.000 C 
ATOM     14  C   UNL     1       3.670   1.246  18.814  0.00  0.00    +0.000 C 
ATOM     15  C   UNL     1       2.952   3.186  17.661  0.00  0.00    +0.000 C 
ATOM     16  C   UNL     1       2.171   4.469  17.718  0.00  0.00    +0.000 C 
ATOM     17  O   UNL     1       1.066   4.557  17.198  0.00  0.00    +0.000 OA
ATOM     18  N   UNL     1       2.911   5.423  18.393  0.00  0.00    +0.000 N 
ENDBRANCH   1  18
BRANCH   4  19
ATOM     19  C   UNL     1       0.876  10.736  19.615  0.00  0.00    +0.000 C 
BRANCH  19  20
ATOM     20  N   UNL     1       0.142  11.222  18.454  0.00  0.00    +0.000 N 
ATOM     21  H   UNL     1       0.352  12.204  18.287  0.00  0.00    +0.000 HD
BRANCH  20  22
ATOM     22  C   UNL     1      -1.251  11.021  18.314  0.00  0.00    +0.000 A 
ATOM     23  C   UNL     1      -1.604  10.100  17.300  0.00  0.00    +0.000 A 
ATOM     24  C   UNL     1      -2.927   9.801  17.006  0.00  0.00    +0.000 A 
ATOM     25  C   UNL     1      -3.931  10.471  17.681  0.00  0.00    +0.000 A 
ATOM     26  C   UNL     1      -3.611  11.418  18.664  0.00  0.00    +0.000 A 
ATOM     27  C   UNL     1      -4.627  12.213  19.203  0.00  0.00    +0.000 A 
ATOM     28  C   UNL     1      -4.327  13.157  20.172  0.00  0.00    +0.000 A 
ATOM     29  C   UNL     1      -3.036  13.190  20.651  0.00  0.00    +0.000 A 
ATOM     30  N   UNL     1      -2.022  12.469  20.125  0.00  0.00    +0.000 NA
ATOM     31  C   UNL     1      -2.272  11.635  19.081  0.00  0.00    +0.000 A 
ENDBRANCH  20  22
ENDBRANCH  19  20
ENDBRANCH   4  19
TORSDOF 4
ENDMDL
MODEL 2
REMARK VINA RESULT:      -9.5      0.845      2.075
REMARK  Name = 
REMARK  4 active torsions:
REMARK  status: ('A' for Active; 'I' for Inactive)
REMARK    1  A    between atoms: N_12  and  C_13
REMARK    2  A    between atoms: C_16  and  C_17
REMARK    3  A    between atoms: C_17  and  N_18
REMARK    4  A    between atoms: N_18  and  C_19
REMARK                            x       y       z     vdW  Elec       q    Type
REMARK                         _______ _______ _______ _____ _____    ______ ____
ROOT
ATOM      1  C   UNL     1       2.354   6.720  18.740  0.00  0.00    +0.000 A 
ATOM      2  C   UNL     1       2.294   7.744  17.778  0.00  0.00    +0.000 A 
ATOM      3  C   UNL     1       1.862   9.036  18.098  0.00  0.00    +0.000 A 
ATOM      4  C   UNL     1       1.472   9.363  19.399  0.00  0.00    +0.000 A 
ATOM      5  C   UNL     1       1.487   8.347  20.360  0.00  0.00    +0.000 A 
ATOM      6  C   UNL     1       1.925   7.049  20.039  0.00  0.00    +0.000 A 
ENDROOT
BRANCH   1  18
ATOM      7  O   UNL     1       4.963   5.484  19.453  0.00  0.00    +0.000 OA
ATOM      8  C   UNL     1       4.091   4.931  18.795  0.00  0.00    +0.000 C 
ATOM      9  C   UNL     1       4.222   3.505  18.358  0.00  0.00    +0.000 C 
ATOM     10  C   UNL     1       4.266   2.444  19.474  0.00  0.00    +0.000 C 
ATOM     11  C   UNL     1       3.198   2.700  20.557  0.00  0.00    +0.000 C 
ATOM     12  C   UNL     1       1.884   2.383  19.829  0.00  0.00    +0.000 C 
ATOM     13  C   UNL     1       2.359   1.980  18.420  0.00  0.00    +0.000 C 
ATOM     14  C   UNL     1       3.657   1.236  18.753  0.00  0.00    +0.000 C 
ATOM     15  C   UNL     1       2.914   3.188  17.638  0.00  0.00    +0.000 C 
ATOM     16  C   UNL     1       2.117   4.459  17.719  0.00  0.00    +0.000 C 
ATOM     17  O   UNL     1       1.011   4.544  17.200  0.00  0.00    +0.000 OA
ATOM     18  N   UNL     1       2.846   5.410  18.412  0.00  0.00    +0.000 N 
ENDBRANCH   1  18
BRANCH   4  19
ATOM     19  C   UNL     1       0.964  10.755  19.738  0.00  0.00    +0.000 C 
BRANCH  19  20
ATOM     20  N   UNL     1       0.099  11.188  18.648  0.00  0.00    +0.000 N 
ATOM     21  H   UNL     1       0.571  11.886  18.076  0.00  0.00    +0.000 HD
BRANCH  20  22
ATOM     22  C   UNL     1      -1.233  11.606  18.875  0.00  0.00    +0.000 A 
ATOM     23  C   UNL     1      -1.468  12.112  20.174  0.00  0.00    +0.000 A 
ATOM     24  C   UNL     1      -2.723  12.543  20.580  0.00  0.00    +0.000 A 
ATOM     25  C   UNL     1      -3.789  12.415  19.709  0.00  0.00    +0.000 A 
ATOM     26  C   UNL     1      -3.594  11.880  18.428  0.00  0.00    +0.000 A 
ATOM     27  C   UNL     1      -4.706  11.589  17.632  0.00  0.00    +0.000 A 
ATOM     28  C   UNL     1      -4.531  11.056  16.365  0.00  0.00    +0.000 A 
ATOM     29  C   UNL     1      -3.242  10.942  15.895  0.00  0.00    +0.000 A 
ATOM     30  N   UNL     1      -2.144  11.171  16.649  0.00  0.00    +0.000 NA
ATOM     31  C   UNL     1      -2.298  11.566  17.941  0.00  0.00    +0.000 A 
ENDBRANCH  20  22
ENDBRANCH  19  20
ENDBRANCH   4  19
TORSDOF 4
ENDMDL
MODEL 3
REMARK VINA RESULT:      -9.4      1.307      2.028
REMARK  Name = 
REMARK  4 active torsions:
REMARK  status: ('A' for Active; 'I' for Inactive)
REMARK    1  A    between atoms: N_12  and  C_13
REMARK    2  A    between atoms: C_16  and  C_17
REMARK    3  A    between atoms: C_17  and  N_18
REMARK    4  A    between atoms: N_18  and  C_19
REMARK                            x       y       z     vdW  Elec       q    Type
REMARK                         _______ _______ _______ _____ _____    ______ ____
ROOT
ATOM      1  C   UNL     1       2.197   7.241  19.328  0.00  0.00    +0.000 A 
ATOM      2  C   UNL     1       1.634   7.945  20.407  0.00  0.00    +0.000 A 
ATOM      3  C   UNL     1       1.011   9.186  20.236  0.00  0.00    +0.000 A 
ATOM      4  C   UNL     1       0.921   9.779  18.973  0.00  0.00    +0.000 A 
ATOM      5  C   UNL     1       1.510   9.111  17.896  0.00  0.00    +0.000 A 
ATOM      6  C   UNL     1       2.134   7.861  18.067  0.00  0.00    +0.000 A 
ENDROOT
BRANCH   1  18
ATOM      7  O   UNL     1       1.112   4.887  20.786  0.00  0.00    +0.000 OA
ATOM      8  C   UNL     1       2.195   4.909  20.214  0.00  0.00    +0.000 C 
ATOM      9  C   UNL     1       3.056   3.688  20.113  0.00  0.00    +0.000 C 
ATOM     10  C   UNL     1       2.482   2.508  19.305  0.00  0.00    +0.000 C 
ATOM     11  C   UNL     1       1.844   2.971  17.979  0.00  0.00    +0.000 C 
ATOM     12  C   UNL     1       3.058   3.405  17.145  0.00  0.00    +0.000 C 
ATOM     13  C   UNL     1       4.242   3.135  18.092  0.00  0.00    +0.000 C 
ATOM     14  C   UNL     1       3.769   1.854  18.789  0.00  0.00    +0.000 C 
ATOM     15  C   UNL     1       4.260   4.118  19.279  0.00  0.00    +0.000 C 
ATOM     16  C   UNL     1       4.001   5.563  18.954  0.00  0.00    +0.000 C 
ATOM     17  O   UNL     1       4.810   6.218  18.310  0.00  0.00    +0.000 OA
ATOM     18  N   UNL     1       2.791   5.944  19.507  0.00  0.00    +0.000 N 
ENDBRANCH   1  18
BRANCH   4  19
ATOM     19  C   UNL     1       0.280  11.145  18.794  0.00  0.00    +0.000 C 
BRANCH  19  20
ATOM     20  N   UNL     1      -1.121  11.031  19.176  0.00  0.00    +0.000 N 
ATOM     21  H   UNL     1      -1.245  10.282  19.854  0.00  0.00    +0.000 HD
BRANCH  20  22
ATOM     22  C   UNL     1      -2.153  10.951  18.212  0.00  0.00    +0.000 A 
ATOM     23  C   UNL     1      -1.784  10.281  17.023  0.00  0.00    +0.000 A 
ATOM     24  C   UNL     1      -2.662  10.132  15.959  0.00  0.00    +0.000 A 
ATOM     25  C   UNL     1      -3.915  10.713  16.038  0.00  0.00    +0.000 A 
ATOM     26  C   UNL     1      -4.294  11.418  17.189  0.00  0.00    +0.000 A 
ATOM     27  C   UNL     1      -5.486  12.150  17.180  0.00  0.00    +0.000 A 
ATOM     28  C   UNL     1      -5.873  12.856  18.307  0.00  0.00    +0.000 A 
ATOM     29  C   UNL     1      -5.111  12.709  19.444  0.00  0.00    +0.000 A 
ATOM     30  N   UNL     1      -3.933  12.048  19.478  0.00  0.00    +0.000 NA
ATOM     31  C   UNL     1      -3.469  11.461  18.343  0.00  0.00    +0.000 A 
ENDBRANCH  20  22
ENDBRANCH  19  20
ENDBRANCH   4  19
TORSDOF 4
ENDMDL
MODEL 4
REMARK VINA RESULT:      -9.3      0.805      1.987
REMARK  Name = 
REMARK  4 active torsions:
REMARK  status: ('A' for Active; 'I' for Inactive)
REMARK    1  A    between atoms: N_12  and  C_13
REMARK    2  A    between atoms: C_16  and  C_17
REMARK    3  A    between atoms: C_17  and  N_18
REMARK    4  A    between atoms: N_18  and  C_19
REMARK                            x       y       z     vdW  Elec       q    Type
REMARK                         _______ _______ _______ _____ _____    ______ ____
ROOT
ATOM      1  C   UNL     1       2.281   6.742  19.120  0.00  0.00    +0.000 A 
ATOM      2  C   UNL     1       1.822   6.886  20.442  0.00  0.00    +0.000 A 
ATOM      3  C   UNL     1       1.262   8.081  20.905  0.00  0.00    +0.000 A 
ATOM      4  C   UNL     1       1.132   9.189  20.062  0.00  0.00    +0.000 A 
ATOM      5  C   UNL     1       1.618   9.077  18.757  0.00  0.00    +0.000 A 
ATOM      6  C   UNL     1       2.180   7.873  18.290  0.00  0.00    +0.000 A 
ENDROOT
BRANCH   1  18
ATOM      7  O   UNL     1       4.918   5.497  19.704  0.00  0.00    +0.000 OA
ATOM      8  C   UNL     1       4.065   5.005  18.976  0.00  0.00    +0.000 C 
ATOM      9  C   UNL     1       4.237   3.646  18.371  0.00  0.00    +0.000 C 
ATOM     10  C   UNL     1       4.303   2.459  19.352  0.00  0.00    +0.000 C 
ATOM     11  C   UNL     1       3.221   2.555  20.448  0.00  0.00    +0.000 C 
ATOM     12  C   UNL     1       1.921   2.295  19.674  0.00  0.00    +0.000 C 
ATOM     13  C   UNL     1       2.416   2.077  18.231  0.00  0.00    +0.000 C 
ATOM     14  C   UNL     1       3.731   1.332  18.485  0.00  0.00    +0.000 C 
ATOM     15  C   UNL     1       2.943   3.384  17.605  0.00  0.00    +0.000 C 
ATOM     16  C   UNL     1       2.112   4.616  17.832  0.00  0.00    +0.000 C 
ATOM     17  O   UNL     1       1.007   4.733  17.317  0.00  0.00    +0.000 OA
ATOM     18  N   UNL     1       2.810   5.494  18.641  0.00  0.00    +0.000 N 
ENDBRANCH   1  18
BRANCH   4  19
ATOM     19  C   UNL     1       0.560  10.500  20.576  0.00  0.00    +0.000 C 
BRANCH  19  20
ATOM     20  N   UNL     1       0.068  11.249  19.428  0.00  0.00    +0.000 N 
ATOM     21  H   UNL     1       0.636  12.081  19.276  0.00  0.00    +0.000 HD
BRANCH  20  22
ATOM     22  C   UNL     1      -1.296  11.597  19.293  0.00  0.00    +0.000 A 
ATOM     23  C   UNL     1      -1.820  12.320  20.389  0.00  0.00    +0.000 A 
ATOM     24  C   UNL     1      -3.149  12.721  20.439  0.00  0.00    +0.000 A 
ATOM     25  C   UNL     1      -4.000  12.345  19.416  0.00  0.00    +0.000 A 
ATOM     26  C   UNL     1      -3.517  11.594  18.336  0.00  0.00    +0.000 A 
ATOM     27  C   UNL     1      -4.424  11.070  17.408  0.00  0.00    +0.000 A 
ATOM     28  C   UNL     1      -3.963  10.321  16.337  0.00  0.00    +0.000 A 
ATOM     29  C   UNL     1      -2.601  10.222  16.168  0.00  0.00    +0.000 A 
ATOM     30  N   UNL     1      -1.698  10.676  17.065  0.00  0.00    +0.000 NA
ATOM     31  C   UNL     1      -2.137  11.296  18.192  0.00  0.00    +0.000 A 
ENDBRANCH  20  22
ENDBRANCH  19  20
ENDBRANCH   4  19
TORSDOF 4
ENDMDL
MODEL 5
REMARK VINA RESULT:      -9.2      0.957      1.810
REMARK  Name = 
REMARK  4 active torsions:
REMARK  status: ('A' for Active; 'I' for Inactive)
REMARK    1  A    between atoms: N_12  and  C_13
REMARK    2  A    between atoms: C_16  and  C_17
REMARK    3  A    between atoms: C_17  and  N_18
REMARK    4  A    between atoms: N_18  and  C_19
REMARK                            x       y       z     vdW  Elec       q    Type
REMARK                         _______ _______ _______ _____ _____    ______ ____
ROOT
ATOM      1  C   UNL     1       2.261   7.021  19.646  0.00  0.00    +0.000 A 
ATOM      2  C   UNL     1       1.729   7.680  20.769  0.00  0.00    +0.000 A 
ATOM      3  C   UNL     1       1.220   8.981  20.691  0.00  0.00    +0.000 A 
ATOM      4  C   UNL     1       1.217   9.682  19.482  0.00  0.00    +0.000 A 
ATOM      5  C   UNL     1       1.778   9.057  18.364  0.00  0.00    +0.000 A 
ATOM      6  C   UNL     1       2.288   7.747  18.442  0.00  0.00    +0.000 A 
ENDROOT
BRANCH   1  18
ATOM      7  O   UNL     1       0.825   4.604  20.614  0.00  0.00    +0.000 OA
ATOM      8  C   UNL     1       1.978   4.606  20.202  0.00  0.00    +0.000 C 
ATOM      9  C   UNL     1       2.762   3.339  20.052  0.00  0.00    +0.000 C 
ATOM     10  C   UNL     1       2.234   2.321  19.023  0.00  0.00    +0.000 C 
ATOM     11  C   UNL     1       1.826   2.997  17.699  0.00  0.00    +0.000 C 
ATOM     12  C   UNL     1       3.173   3.429  17.101  0.00  0.00    +0.000 C 
ATOM     13  C   UNL     1       4.188   2.944  18.153  0.00  0.00    +0.000 C 
ATOM     14  C   UNL     1       3.537   1.631  18.601  0.00  0.00    +0.000 C 
ATOM     15  C   UNL     1       4.099   3.767  19.454  0.00  0.00    +0.000 C 
ATOM     16  C   UNL     1       3.986   5.257  19.295  0.00  0.00    +0.000 C 
ATOM     17  O   UNL     1       4.921   5.917  18.860  0.00  0.00    +0.000 OA
ATOM     18  N   UNL     1       2.737   5.667  19.727  0.00  0.00    +0.000 N 
ENDBRANCH   1  18
BRANCH   4  19
ATOM     19  C   UNL     1       0.702  11.109  19.406  0.00  0.00    +0.000 C 
BRANCH  19  20
ATOM     20  N   UNL     1      -0.043  11.246  18.162  0.00  0.00    +0.000 N 
ATOM     21  H   UNL     1       0.175  12.133  17.712  0.00  0.00    +0.000 HD
BRANCH  20  22
ATOM     22  C   UNL     1      -1.440  11.034  18.101  0.00  0.00    +0.000 A 
ATOM     23  C   UNL     1      -1.843  10.110  17.110  0.00  0.00    +0.000 A 
ATOM     24  C   UNL     1      -3.178   9.800  16.892  0.00  0.00    +0.000 A 
ATOM     25  C   UNL     1      -4.148  10.464  17.622  0.00  0.00    +0.000 A 
ATOM     26  C   UNL     1      -3.779  11.414  18.584  0.00  0.00    +0.000 A 
ATOM     27  C   UNL     1      -4.769  12.203  19.179  0.00  0.00    +0.000 A 
ATOM     28  C   UNL     1      -4.422  13.150  20.128  0.00  0.00    +0.000 A 
ATOM     29  C   UNL     1      -3.107  13.194  20.533  0.00  0.00    +0.000 A 
ATOM     30  N   UNL     1      -2.118  12.480  19.951  0.00  0.00    +0.000 NA
ATOM     31  C   UNL     1      -2.421  11.642  18.924  0.00  0.00    +0.000 A 
ENDBRANCH  20  22
ENDBRANCH  19  20
ENDBRANCH   4  19
TORSDOF 4
ENDMDL
MODEL 6
REMARK VINA RESULT:      -9.2      0.923      1.833
REMARK  Name = 
REMARK  4 active torsions:
REMARK  status: ('A' for Active; 'I' for Inactive)
REMARK    1  A    between atoms: N_12  and  C_13
REMARK    2  A    between atoms: C_16  and  C_17
REMARK    3  A    between atoms: C_17  and  N_18
REMARK    4  A    between atoms: N_18  and  C_19
REMARK                            x       y       z     vdW  Elec       q    Type
REMARK                         _______ _______ _______ _____ _____    ______ ____
ROOT
ATOM      1  C   UNL     1       2.418   6.674  18.726  0.00  0.00    +0.000 A 
ATOM      2  C   UNL     1       1.937   6.982  20.011  0.00  0.00    +0.000 A 
ATOM      3  C   UNL     1       1.422   8.244  20.327  0.00  0.00    +0.000 A 
ATOM      4  C   UNL     1       1.361   9.258  19.366  0.00  0.00    +0.000 A 
ATOM      5  C   UNL     1       1.871   8.982  18.094  0.00  0.00    +0.000 A 
ATOM      6  C   UNL     1       2.386   7.711  17.776  0.00  0.00    +0.000 A 
ENDROOT
BRANCH   1  18
ATOM      7  O   UNL     1       5.038   5.438  19.396  0.00  0.00    +0.000 OA
ATOM      8  C   UNL     1       4.151   4.881  18.761  0.00  0.00    +0.000 C 
ATOM      9  C   UNL     1       4.269   3.451  18.334  0.00  0.00    +0.000 C 
ATOM     10  C   UNL     1       4.334   2.400  19.459  0.00  0.00    +0.000 C 
ATOM     11  C   UNL     1       3.289   2.669  20.561  0.00  0.00    +0.000 C 
ATOM     12  C   UNL     1       1.960   2.349  19.863  0.00  0.00    +0.000 C 
ATOM     13  C   UNL     1       2.405   1.932  18.449  0.00  0.00    +0.000 C 
ATOM     14  C   UNL     1       3.707   1.187  18.762  0.00  0.00    +0.000 C 
ATOM     15  C   UNL     1       2.946   3.131  17.644  0.00  0.00    +0.000 C 
ATOM     16  C   UNL     1       2.154   4.405  17.730  0.00  0.00    +0.000 C 
ATOM     17  O   UNL     1       1.038   4.488  17.234  0.00  0.00    +0.000 OA
ATOM     18  N   UNL     1       2.899   5.360  18.399  0.00  0.00    +0.000 N 
ENDBRANCH   1  18
BRANCH   4  19
ATOM     19  C   UNL     1       0.839  10.640  19.719  0.00  0.00    +0.000 C 
BRANCH  19  20
ATOM     20  N   UNL     1      -0.399  10.848  18.981  0.00  0.00    +0.000 N 
ATOM     21  H   UNL     1      -0.202  11.210  18.049  0.00  0.00    +0.000 HD
BRANCH  20  22
ATOM     22  C   UNL     1      -1.484  11.570  19.531  0.00  0.00    +0.000 A 
ATOM     23  C   UNL     1      -1.249  12.062  20.836  0.00  0.00    +0.000 A 
ATOM     24  C   UNL     1      -2.212  12.771  21.540  0.00  0.00    +0.000 A 
ATOM     25  C   UNL     1      -3.462  12.945  20.974  0.00  0.00    +0.000 A 
ATOM     26  C   UNL     1      -3.736  12.435  19.698  0.00  0.00    +0.000 A 
ATOM     27  C   UNL     1      -5.051  12.460  19.220  0.00  0.00    +0.000 A 
ATOM     28  C   UNL     1      -5.340  11.955  17.963  0.00  0.00    +0.000 A 
ATOM     29  C   UNL     1      -4.282  11.548  17.181  0.00  0.00    +0.000 A 
ATOM     30  N   UNL     1      -3.008  11.469  17.624  0.00  0.00    +0.000 NA
ATOM     31  C   UNL     1      -2.727  11.834  18.903  0.00  0.00    +0.000 A 
ENDBRANCH  20  22
ENDBRANCH  19  20
ENDBRANCH   4  19
TORSDOF 4
ENDMDL
MODEL 7
REMARK VINA RESULT:      -9.2      1.273      2.552
REMARK  Name = 
REMARK  4 active torsions:
REMARK  status: ('A' for Active; 'I' for Inactive)
REMARK    1  A    between atoms: N_12  and  C_13
REMARK    2  A    between atoms: C_16  and  C_17
REMARK    3  A    between atoms: C_17  and  N_18
REMARK    4  A    between atoms: N_18  and  C_19
REMARK                            x       y       z     vdW  Elec       q    Type
REMARK                         _______ _______ _______ _____ _____    ______ ____
ROOT
ATOM      1  C   UNL     1       2.312   6.866  19.443  0.00  0.00    +0.000 A 
ATOM      2  C   UNL     1       1.772   7.643  20.483  0.00  0.00    +0.000 A 
ATOM      3  C   UNL     1       1.310   8.946  20.271  0.00  0.00    +0.000 A 
ATOM      4  C   UNL     1       1.362   9.532  19.003  0.00  0.00    +0.000 A 
ATOM      5  C   UNL     1       1.932   8.788  17.965  0.00  0.00    +0.000 A 
ATOM      6  C   UNL     1       2.395   7.476  18.178  0.00  0.00    +0.000 A 
ENDROOT
BRANCH   1  18
ATOM      7  O   UNL     1       0.689   4.521  20.284  0.00  0.00    +0.000 OA
ATOM      8  C   UNL     1       1.893   4.487  20.060  0.00  0.00    +0.000 C 
ATOM      9  C   UNL     1       2.663   3.203  20.097  0.00  0.00    +0.000 C 
ATOM     10  C   UNL     1       2.282   2.142  19.047  0.00  0.00    +0.000 C 
ATOM     11  C   UNL     1       2.103   2.756  17.644  0.00  0.00    +0.000 C 
ATOM     12  C   UNL     1       3.536   3.138  17.248  0.00  0.00    +0.000 C 
ATOM     13  C   UNL     1       4.362   2.693  18.469  0.00  0.00    +0.000 C 
ATOM     14  C   UNL     1       3.620   1.414  18.870  0.00  0.00    +0.000 C 
ATOM     15  C   UNL     1       4.087   3.582  19.699  0.00  0.00    +0.000 C 
ATOM     16  C   UNL     1       4.032   5.063  19.454  0.00  0.00    +0.000 C 
ATOM     17  O   UNL     1       5.038   5.688  19.141  0.00  0.00    +0.000 OA
ATOM     18  N   UNL     1       2.739   5.512  19.662  0.00  0.00    +0.000 N 
ENDBRANCH   1  18
BRANCH   4  19
ATOM     19  C   UNL     1       0.897  10.961  18.781  0.00  0.00    +0.000 C 
BRANCH  19  20
ATOM     20  N   UNL     1      -0.436  10.907  18.195  0.00  0.00    +0.000 N 
ATOM     21  H   UNL     1      -0.411  11.214  17.225  0.00  0.00    +0.000 HD
BRANCH  20  22
ATOM     22  C   UNL     1      -1.555  11.493  18.832  0.00  0.00    +0.000 A 
ATOM     23  C   UNL     1      -1.300  11.946  20.147  0.00  0.00    +0.000 A 
ATOM     24  C   UNL     1      -2.290  12.524  20.931  0.00  0.00    +0.000 A 
ATOM     25  C   UNL     1      -3.578  12.600  20.434  0.00  0.00    +0.000 A 
ATOM     26  C   UNL     1      -3.868  12.124  19.148  0.00  0.00    +0.000 A 
ATOM     27  C   UNL     1      -5.202  12.041  18.734  0.00  0.00    +0.000 A 
ATOM     28  C   UNL     1      -5.506  11.568  17.468  0.00  0.00    +0.000 A 
ATOM     29  C   UNL     1      -4.456  11.303  16.618  0.00  0.00    +0.000 A 
ATOM     30  N   UNL     1      -3.159  11.329  16.996  0.00  0.00    +0.000 NA
ATOM     31  C   UNL     1      -2.848  11.662  18.277  0.00  0.00    +0.000 A 
ENDBRANCH  20  22
ENDBRANCH  19  20
ENDBRANCH   4  19
TORSDOF 4
ENDMDL
MODEL 8
REMARK VINA RESULT:      -9.0      2.626      3.773
REMARK  Name = 
REMARK  4 active torsions:
REMARK  status: ('A' for Active; 'I' for Inactive)
REMARK    1  A    between atoms: N_12  and  C_13
REMARK    2  A    between atoms: C_16  and  C_17
REMARK    3  A    between atoms: C_17  and  N_18
REMARK    4  A    between atoms: N_18  and  C_19
REMARK                            x       y       z     vdW  Elec       q    Type
REMARK                         _______ _______ _______ _____ _____    ______ ____
ROOT
ATOM      1  C   UNL     1       2.407   6.751  18.733  0.00  0.00    +0.000 A 
ATOM      2  C   UNL     1       1.950   7.074  20.023  0.00  0.00    +0.000 A 
ATOM      3  C   UNL     1       1.438   8.339  20.332  0.00  0.00    +0.000 A 
ATOM      4  C   UNL     1       1.356   9.340  19.360  0.00  0.00    +0.000 A 
ATOM      5  C   UNL     1       1.841   9.049  18.082  0.00  0.00    +0.000 A 
ATOM      6  C   UNL     1       2.354   7.775  17.770  0.00  0.00    +0.000 A 
ENDROOT
BRANCH   1  18
ATOM      7  O   UNL     1       5.010   5.500  19.441  0.00  0.00    +0.000 OA
ATOM      8  C   UNL     1       4.129   4.948  18.794  0.00  0.00    +0.000 C 
ATOM      9  C   UNL     1       4.245   3.517  18.369  0.00  0.00    +0.000 C 
ATOM     10  C   UNL     1       4.289   2.466  19.496  0.00  0.00    +0.000 C 
ATOM     11  C   UNL     1       3.230   2.742  20.583  0.00  0.00    +0.000 C 
ATOM     12  C   UNL     1       1.909   2.429  19.867  0.00  0.00    +0.000 C 
ATOM     13  C   UNL     1       2.371   2.009  18.459  0.00  0.00    +0.000 C 
ATOM     14  C   UNL     1       3.664   1.257  18.791  0.00  0.00    +0.000 C 
ATOM     15  C   UNL     1       2.930   3.204  17.661  0.00  0.00    +0.000 C 
ATOM     16  C   UNL     1       2.144   4.483  17.735  0.00  0.00    +0.000 C 
ATOM     17  O   UNL     1       1.036   4.571  17.223  0.00  0.00    +0.000 OA
ATOM     18  N   UNL     1       2.886   5.434  18.414  0.00  0.00    +0.000 N 
ENDBRANCH   1  18
BRANCH   4  19
ATOM     19  C   UNL     1       0.837  10.725  19.705  0.00  0.00    +0.000 C 
BRANCH  19  20
ATOM     20  N   UNL     1       1.267  11.635  18.652  0.00  0.00    +0.000 N 
ATOM     21  H   UNL     1       2.230  11.439  18.384  0.00  0.00    +0.000 HD
BRANCH  20  22
ATOM     22  C   UNL     1       1.098  13.035  18.760  0.00  0.00    +0.000 A 
ATOM     23  C   UNL     1      -0.223  13.436  19.069  0.00  0.00    +0.000 A 
ATOM     24  C   UNL     1      -0.577  14.773  19.187  0.00  0.00    +0.000 A 
ATOM     25  C   UNL     1       0.375  15.743  18.932  0.00  0.00    +0.000 A 
ATOM     26  C   UNL     1       1.682  15.375  18.586  0.00  0.00    +0.000 A 
ATOM     27  C   UNL     1       2.578  16.360  18.156  0.00  0.00    +0.000 A 
ATOM     28  C   UNL     1       3.872  16.012  17.805  0.00  0.00    +0.000 A 
ATOM     29  C   UNL     1       4.259  14.707  18.009  0.00  0.00    +0.000 A 
ATOM     30  N   UNL     1       3.412  13.722  18.380  0.00  0.00    +0.000 NA
ATOM     31  C   UNL     1       2.104  14.021  18.599  0.00  0.00    +0.000 A 
ENDBRANCH  20  22
ENDBRANCH  19  20
ENDBRANCH   4  19
TORSDOF 4
ENDMDL
MODEL 9
REMARK VINA RESULT:      -8.9      1.298      2.169
REMARK  Name = 
REMARK  4 active torsions:
REMARK  status: ('A' for Active; 'I' for Inactive)
REMARK    1  A    between atoms: N_12  and  C_13
REMARK    2  A    between atoms: C_16  and  C_17
REMARK    3  A    between atoms: C_17  and  N_18
REMARK    4  A    between atoms: N_18  and  C_19
REMARK                            x       y       z     vdW  Elec       q    Type
REMARK                         _______ _______ _______ _____ _____    ______ ____
ROOT
ATOM      1  C   UNL     1       2.434   6.769  18.731  0.00  0.00    +0.000 A 
ATOM      2  C   UNL     1       1.948   7.095  20.009  0.00  0.00    +0.000 A 
ATOM      3  C   UNL     1       1.456   8.370  20.311  0.00  0.00    +0.000 A 
ATOM      4  C   UNL     1       1.424   9.377  19.342  0.00  0.00    +0.000 A 
ATOM      5  C   UNL     1       1.940   9.082  18.077  0.00  0.00    +0.000 A 
ATOM      6  C   UNL     1       2.433   7.799  17.773  0.00  0.00    +0.000 A 
ENDROOT
BRANCH   1  18
ATOM      7  O   UNL     1       5.018   5.480  19.444  0.00  0.00    +0.000 OA
ATOM      8  C   UNL     1       4.128   4.939  18.800  0.00  0.00    +0.000 C 
ATOM      9  C   UNL     1       4.222   3.504  18.382  0.00  0.00    +0.000 C 
ATOM     10  C   UNL     1       4.248   2.458  19.514  0.00  0.00    +0.000 C 
ATOM     11  C   UNL     1       3.194   2.756  20.600  0.00  0.00    +0.000 C 
ATOM     12  C   UNL     1       1.868   2.460  19.885  0.00  0.00    +0.000 C 
ATOM     13  C   UNL     1       2.323   2.026  18.479  0.00  0.00    +0.000 C 
ATOM     14  C   UNL     1       3.605   1.255  18.814  0.00  0.00    +0.000 C 
ATOM     15  C   UNL     1       2.901   3.208  17.676  0.00  0.00    +0.000 C 
ATOM     16  C   UNL     1       2.136   4.500  17.744  0.00  0.00    +0.000 C 
ATOM     17  O   UNL     1       1.028   4.603  17.232  0.00  0.00    +0.000 OA
ATOM     18  N   UNL     1       2.892   5.442  18.418  0.00  0.00    +0.000 N 
ENDBRANCH   1  18
BRANCH   4  19
ATOM     19  C   UNL     1       0.928  10.773  19.681  0.00  0.00    +0.000 C 
BRANCH  19  20
ATOM     20  N   UNL     1      -0.524  10.712  19.786  0.00  0.00    +0.000 N 
ATOM     21  H   UNL     1      -0.952  10.801  18.867  0.00  0.00    +0.000 HD
BRANCH  20  22
ATOM     22  C   UNL     1      -1.240  11.518  20.703  0.00  0.00    +0.000 A 
ATOM     23  C   UNL     1      -0.565  11.742  21.925  0.00  0.00    +0.000 A 
ATOM     24  C   UNL     1      -1.129  12.488  22.951  0.00  0.00    +0.000 A 
ATOM     25  C   UNL     1      -2.415  12.973  22.798  0.00  0.00    +0.000 A 
ATOM     26  C   UNL     1      -3.123  12.733  21.611  0.00  0.00    +0.000 A 
ATOM     27  C   UNL     1      -4.478  13.071  21.545  0.00  0.00    +0.000 A 
ATOM     28  C   UNL     1      -5.194  12.836  20.382  0.00  0.00    +0.000 A 
ATOM     29  C   UNL     1      -4.496  12.379  19.286  0.00  0.00    +0.000 A 
ATOM     30  N   UNL     1      -3.199  12.001  19.326  0.00  0.00    +0.000 NA
ATOM     31  C   UNL     1      -2.516  12.098  20.497  0.00  0.00    +0.000 A 
ENDBRANCH  20  22
ENDBRANCH  19  20
ENDBRANCH   4  19
TORSDOF 4
ENDMDL
