MODEL 1
REMARK VINA RESULT:      -7.0      0.000      0.000
REMARK  Name = 
REMARK  4 active torsions:
REMARK  status: ('A' for Active; 'I' for Inactive)
REMARK    1  A    between atoms: C_1  and  C_2
REMARK    2  A    between atoms: C_2  and  C_3
REMARK    3  A    between atoms: C_2  and  C_4
REMARK    4  A    between atoms: C_4  and  N_5
REMARK                            x       y       z     vdW  Elec       q    Type
REMARK                         _______ _______ _______ _____ _____    ______ ____
ROOT
ATOM      1  N   UNL     1       5.812   4.700  15.206  0.00  0.00    +0.000 N 
ATOM      2  N   UNL     1       5.359   5.881  15.676  0.00  0.00    +0.000 NA
ATOM      3  C   UNL     1       4.637   5.491  16.734  0.00  0.00    +0.000 A 
ATOM      4  C   UNL     1       4.676   4.090  16.849  0.00  0.00    +0.000 A 
ATOM      5  N   UNL     1       5.431   3.579  15.865  0.00  0.00    +0.000 NA
ATOM      6  C   UNL     1       3.970   3.369  17.897  0.00  0.00    +0.000 C 
ATOM      7  O   UNL     1       3.964   2.152  18.037  0.00  0.00    +0.000 OA
ATOM      8  C   UNL     1       3.208   4.235  18.835  0.00  0.00    +0.000 A 
ATOM      9  C   UNL     1       2.500   3.660  19.872  0.00  0.00    +0.000 A 
ATOM     10  N   UNL     1       1.788   4.401  20.745  0.00  0.00    +0.000 NA
ATOM     11  N   UNL     1       1.752   5.761  20.614  0.00  0.00    +0.000 NA
ATOM     12  C   UNL     1       2.431   6.357  19.617  0.00  0.00    +0.000 A 
ATOM     13  C   UNL     1       3.172   5.627  18.709  0.00  0.00    +0.000 A 
ATOM     14  C   UNL     1       3.899   6.348  17.638  0.00  0.00    +0.000 C 
ATOM     15  O   UNL     1       3.846   7.568  17.568  0.00  0.00    +0.000 OA
ENDROOT
BRANCH   1  16
ATOM     16  C   UNL     1       6.604   4.645  13.988  0.00  0.00    +0.000 C 
BRANCH  16  18
ATOM     17  C   UNL     1       4.781   3.764  12.455  0.00  0.00    +0.000 C 
ATOM     18  C   UNL     1       6.177   3.521  13.027  0.00  0.00    +0.000 C 
ATOM     19  C   UNL     1       7.185   3.383  11.884  0.00  0.00    +0.000 C 
ENDBRANCH  16  18
ENDBRANCH   1  16
TORSDOF 2
ENDMDL
MODEL 2
REMARK VINA RESULT:      -6.9      0.101      2.451
REMARK  Name = 
REMARK  4 active torsions:
REMARK  status: ('A' for Active; 'I' for Inactive)
REMARK    1  A    between atoms: C_1  and  C_2
REMARK    2  A    between atoms: C_2  and  C_3
REMARK    3  A    between atoms: C_2  and  C_4
REMARK    4  A    between atoms: C_4  and  N_5
REMARK                            x       y       z     vdW  Elec       q    Type
REMARK                         _______ _______ _______ _____ _____    ______ ____
ROOT
ATOM      1  N   UNL     1       5.724   4.733  15.229  0.00  0.00    +0.000 N 
ATOM      2  N   UNL     1       5.359   3.626  15.910  0.00  0.00    +0.000 NA
ATOM      3  C   UNL     1       4.600   4.146  16.882  0.00  0.00    +0.000 A 
ATOM      4  C   UNL     1       4.549   5.546  16.753  0.00  0.00    +0.000 A 
ATOM      5  N   UNL     1       5.275   5.925  15.690  0.00  0.00    +0.000 NA
ATOM      6  C   UNL     1       3.811   6.392  17.677  0.00  0.00    +0.000 C 
ATOM      7  O   UNL     1       3.742   7.614  17.615  0.00  0.00    +0.000 OA
ATOM      8  C   UNL     1       3.114   5.657  18.765  0.00  0.00    +0.000 A 
ATOM      9  C   UNL     1       2.380   6.357  19.701  0.00  0.00    +0.000 A 
ATOM     10  N   UNL     1       1.736   5.738  20.710  0.00  0.00    +0.000 NA
ATOM     11  N   UNL     1       1.802   4.378  20.828  0.00  0.00    +0.000 NA
ATOM     12  C   UNL     1       2.507   3.661  19.933  0.00  0.00    +0.000 A 
ATOM     13  C   UNL     1       3.175   4.265  18.887  0.00  0.00    +0.000 A 
ATOM     14  C   UNL     1       3.928   3.415  17.936  0.00  0.00    +0.000 C 
ATOM     15  O   UNL     1       3.950   2.200  18.076  0.00  0.00    +0.000 OA
ENDROOT
BRANCH   1  16
ATOM     16  C   UNL     1       6.636   4.639  14.101  0.00  0.00    +0.000 C 
BRANCH  16  18
ATOM     17  C   UNL     1       4.813   3.776  12.558  0.00  0.00    +0.000 C 
ATOM     18  C   UNL     1       6.236   3.565  13.074  0.00  0.00    +0.000 C 
ATOM     19  C   UNL     1       7.215   3.558  11.898  0.00  0.00    +0.000 C 
ENDBRANCH  16  18
ENDBRANCH   1  16
TORSDOF 2
ENDMDL
MODEL 3
REMARK VINA RESULT:      -6.7      0.947      2.747
REMARK  Name = 
REMARK  4 active torsions:
REMARK  status: ('A' for Active; 'I' for Inactive)
REMARK    1  A    between atoms: C_1  and  C_2
REMARK    2  A    between atoms: C_2  and  C_3
REMARK    3  A    between atoms: C_2  and  C_4
REMARK    4  A    between atoms: C_4  and  N_5
REMARK                            x       y       z     vdW  Elec       q    Type
REMARK                         _______ _______ _______ _____ _____    ______ ____
ROOT
ATOM      1  N   UNL     1       5.980   4.553  15.891  0.00  0.00    +0.000 N 
ATOM      2  N   UNL     1       5.528   3.342  16.281  0.00  0.00    +0.000 NA
ATOM      3  C   UNL     1       4.572   3.681  17.156  0.00  0.00    +0.000 A 
ATOM      4  C   UNL     1       4.497   5.081  17.265  0.00  0.00    +0.000 A 
ATOM      5  N   UNL     1       5.405   5.644  16.452  0.00  0.00    +0.000 NA
ATOM      6  C   UNL     1       3.560   5.750  18.154  0.00  0.00    +0.000 C 
ATOM      7  O   UNL     1       3.461   6.963  18.293  0.00  0.00    +0.000 OA
ATOM      8  C   UNL     1       2.689   4.832  18.934  0.00  0.00    +0.000 A 
ATOM      9  C   UNL     1       1.759   5.355  19.810  0.00  0.00    +0.000 A 
ATOM     10  N   UNL     1       0.950   4.566  20.546  0.00  0.00    +0.000 NA
ATOM     11  N   UNL     1       1.041   3.206  20.437  0.00  0.00    +0.000 NA
ATOM     12  C   UNL     1       1.935   2.661  19.591  0.00  0.00    +0.000 A 
ATOM     13  C   UNL     1       2.775   3.441  18.822  0.00  0.00    +0.000 A 
ATOM     14  C   UNL     1       3.732   2.774  17.910  0.00  0.00    +0.000 C 
ATOM     15  O   UNL     1       3.770   1.553  17.838  0.00  0.00    +0.000 OA
ENDROOT
BRANCH   1  16
ATOM     16  C   UNL     1       7.100   4.661  14.971  0.00  0.00    +0.000 C 
BRANCH  16  18
ATOM     17  C   UNL     1       7.838   5.326  12.633  0.00  0.00    +0.000 C 
ATOM     18  C   UNL     1       6.675   4.849  13.504  0.00  0.00    +0.000 C 
ATOM     19  C   UNL     1       6.110   3.544  12.939  0.00  0.00    +0.000 C 
ENDBRANCH  16  18
ENDBRANCH   1  16
TORSDOF 2
ENDMDL
MODEL 4
REMARK VINA RESULT:      -6.5      1.318      1.728
REMARK  Name = 
REMARK  4 active torsions:
REMARK  status: ('A' for Active; 'I' for Inactive)
REMARK    1  A    between atoms: C_1  and  C_2
REMARK    2  A    between atoms: C_2  and  C_3
REMARK    3  A    between atoms: C_2  and  C_4
REMARK    4  A    between atoms: C_4  and  N_5
REMARK                            x       y       z     vdW  Elec       q    Type
REMARK                         _______ _______ _______ _____ _____    ______ ____
ROOT
ATOM      1  N   UNL     1       4.921   4.947  16.092  0.00  0.00    +0.000 N 
ATOM      2  N   UNL     1       4.443   5.835  16.988  0.00  0.00    +0.000 NA
ATOM      3  C   UNL     1       3.965   5.026  17.941  0.00  0.00    +0.000 A 
ATOM      4  C   UNL     1       4.164   3.683  17.573  0.00  0.00    +0.000 A 
ATOM      5  N   UNL     1       4.779   3.631  16.381  0.00  0.00    +0.000 NA
ATOM      6  C   UNL     1       3.733   2.569  18.403  0.00  0.00    +0.000 C 
ATOM      7  O   UNL     1       3.874   1.384  18.125  0.00  0.00    +0.000 OA
ATOM      8  C   UNL     1       3.067   2.967  19.671  0.00  0.00    +0.000 A 
ATOM      9  C   UNL     1       2.617   1.994  20.540  0.00  0.00    +0.000 A 
ATOM     10  N   UNL     1       2.002   2.302  21.699  0.00  0.00    +0.000 NA
ATOM     11  N   UNL     1       1.806   3.612  22.039  0.00  0.00    +0.000 NA
ATOM     12  C   UNL     1       2.233   4.589  21.217  0.00  0.00    +0.000 A 
ATOM     13  C   UNL     1       2.870   4.305  20.025  0.00  0.00    +0.000 A 
ATOM     14  C   UNL     1       3.317   5.429  19.171  0.00  0.00    +0.000 C 
ATOM     15  O   UNL     1       3.130   6.586  19.523  0.00  0.00    +0.000 OA
ENDROOT
BRANCH   1  16
ATOM     16  C   UNL     1       5.485   5.401  14.831  0.00  0.00    +0.000 C 
BRANCH  16  18
ATOM     17  C   UNL     1       5.663   3.646  13.003  0.00  0.00    +0.000 C 
ATOM     18  C   UNL     1       6.385   4.356  14.148  0.00  0.00    +0.000 C 
ATOM     19  C   UNL     1       7.663   5.013  13.622  0.00  0.00    +0.000 C 
ENDBRANCH  16  18
ENDBRANCH   1  16
TORSDOF 2
ENDMDL
MODEL 5
REMARK VINA RESULT:      -6.3      1.194      2.809
REMARK  Name = 
REMARK  4 active torsions:
REMARK  status: ('A' for Active; 'I' for Inactive)
REMARK    1  A    between atoms: C_1  and  C_2
REMARK    2  A    between atoms: C_2  and  C_3
REMARK    3  A    between atoms: C_2  and  C_4
REMARK    4  A    between atoms: C_4  and  N_5
REMARK                            x       y       z     vdW  Elec       q    Type
REMARK                         _______ _______ _______ _____ _____    ______ ____
ROOT
ATOM      1  N   UNL     1       5.016   5.162  15.933  0.00  0.00    +0.000 N 
ATOM      2  N   UNL     1       4.827   3.851  16.193  0.00  0.00    +0.000 NA
ATOM      3  C   UNL     1       4.108   3.901  17.321  0.00  0.00    +0.000 A 
ATOM      4  C   UNL     1       3.904   5.240  17.700  0.00  0.00    +0.000 A 
ATOM      5  N   UNL     1       4.490   6.053  16.807  0.00  0.00    +0.000 NA
ATOM      6  C   UNL     1       3.169   5.614  18.898  0.00  0.00    +0.000 C 
ATOM      7  O   UNL     1       2.971   6.762  19.277  0.00  0.00    +0.000 OA
ATOM      8  C   UNL     1       2.650   4.465  19.685  0.00  0.00    +0.000 A 
ATOM      9  C   UNL     1       1.934   4.699  20.843  0.00  0.00    +0.000 A 
ATOM     10  N   UNL     1       1.448   3.692  21.596  0.00  0.00    +0.000 NA
ATOM     11  N   UNL     1       1.662   2.394  21.220  0.00  0.00    +0.000 NA
ATOM     12  C   UNL     1       2.354   2.128  20.097  0.00  0.00    +0.000 A 
ATOM     13  C   UNL     1       2.862   3.137  19.302  0.00  0.00    +0.000 A 
ATOM     14  C   UNL     1       3.610   2.772  18.078  0.00  0.00    +0.000 C 
ATOM     15  O   UNL     1       3.767   1.597  17.776  0.00  0.00    +0.000 OA
ENDROOT
BRANCH   1  16
ATOM     16  C   UNL     1       5.829   5.581  14.803  0.00  0.00    +0.000 C 
BRANCH  16  18
ATOM     17  C   UNL     1       5.536   3.759  13.057  0.00  0.00    +0.000 C 
ATOM     18  C   UNL     1       6.493   4.412  14.055  0.00  0.00    +0.000 C 
ATOM     19  C   UNL     1       7.751   4.888  13.326  0.00  0.00    +0.000 C 
ENDBRANCH  16  18
ENDBRANCH   1  16
TORSDOF 2
ENDMDL
MODEL 6
REMARK VINA RESULT:      -6.2      1.571      1.925
REMARK  Name = 
REMARK  4 active torsions:
REMARK  status: ('A' for Active; 'I' for Inactive)
REMARK    1  A    between atoms: C_1  and  C_2
REMARK    2  A    between atoms: C_2  and  C_3
REMARK    3  A    between atoms: C_2  and  C_4
REMARK    4  A    between atoms: C_4  and  N_5
REMARK                            x       y       z     vdW  Elec       q    Type
REMARK                         _______ _______ _______ _____ _____    ______ ____
ROOT
ATOM      1  N   UNL     1       6.097   5.007  16.781  0.00  0.00    +0.000 N 
ATOM      2  N   UNL     1       4.931   5.686  16.787  0.00  0.00    +0.000 NA
ATOM      3  C   UNL     1       4.267   5.075  17.775  0.00  0.00    +0.000 A 
ATOM      4  C   UNL     1       5.057   4.044  18.317  0.00  0.00    +0.000 A 
ATOM      5  N   UNL     1       6.236   3.999  17.676  0.00  0.00    +0.000 NA
ATOM      6  C   UNL     1       4.597   3.189  19.399  0.00  0.00    +0.000 C 
ATOM      7  O   UNL     1       5.241   2.274  19.900  0.00  0.00    +0.000 OA
ATOM      8  C   UNL     1       3.227   3.495  19.886  0.00  0.00    +0.000 A 
ATOM      9  C   UNL     1       2.685   2.748  20.914  0.00  0.00    +0.000 A 
ATOM     10  N   UNL     1       1.445   2.981  21.387  0.00  0.00    +0.000 NA
ATOM     11  N   UNL     1       0.684   3.979  20.844  0.00  0.00    +0.000 NA
ATOM     12  C   UNL     1       1.179   4.729  19.842  0.00  0.00    +0.000 A 
ATOM     13  C   UNL     1       2.448   4.518  19.338  0.00  0.00    +0.000 A 
ATOM     14  C   UNL     1       2.930   5.383  18.238  0.00  0.00    +0.000 C 
ATOM     15  O   UNL     1       2.218   6.272  17.791  0.00  0.00    +0.000 OA
ENDROOT
BRANCH   1  16
ATOM     16  C   UNL     1       7.119   5.302  15.790  0.00  0.00    +0.000 C 
BRANCH  16  18
ATOM     17  C   UNL     1       7.793   5.271  13.342  0.00  0.00    +0.000 C 
ATOM     18  C   UNL     1       6.650   5.086  14.340  0.00  0.00    +0.000 C 
ATOM     19  C   UNL     1       6.044   3.691  14.176  0.00  0.00    +0.000 C 
ENDBRANCH  16  18
ENDBRANCH   1  16
TORSDOF 2
ENDMDL
MODEL 7
REMARK VINA RESULT:      -6.2      2.557      3.691
REMARK  Name = 
REMARK  4 active torsions:
REMARK  status: ('A' for Active; 'I' for Inactive)
REMARK    1  A    between atoms: C_1  and  C_2
REMARK    2  A    between atoms: C_2  and  C_3
REMARK    3  A    between atoms: C_2  and  C_4
REMARK    4  A    between atoms: C_4  and  N_5
REMARK                            x       y       z     vdW  Elec       q    Type
REMARK                         _______ _______ _______ _____ _____    ______ ____
ROOT
ATOM      1  N   UNL     1       4.180   5.181  17.515  0.00  0.00    +0.000 N 
ATOM      2  N   UNL     1       3.885   6.415  17.055  0.00  0.00    +0.000 NA
ATOM      3  C   UNL     1       3.125   6.897  18.045  0.00  0.00    +0.000 A 
ATOM      4  C   UNL     1       2.984   5.928  19.056  0.00  0.00    +0.000 A 
ATOM      5  N   UNL     1       3.662   4.822  18.714  0.00  0.00    +0.000 NA
ATOM      6  C   UNL     1       2.197   6.156  20.257  0.00  0.00    +0.000 C 
ATOM      7  O   UNL     1       2.035   5.345  21.161  0.00  0.00    +0.000 OA
ATOM      8  C   UNL     1       1.557   7.496  20.330  0.00  0.00    +0.000 A 
ATOM      9  C   UNL     1       0.786   7.825  21.427  0.00  0.00    +0.000 A 
ATOM     10  N   UNL     1       0.180   9.024  21.538  0.00  0.00    +0.000 NA
ATOM     11  N   UNL     1       0.317   9.952  20.543  0.00  0.00    +0.000 NA
ATOM     12  C   UNL     1       1.062   9.667  19.459  0.00  0.00    +0.000 A 
ATOM     13  C   UNL     1       1.699   8.450  19.318  0.00  0.00    +0.000 A 
ATOM     14  C   UNL     1       2.507   8.205  18.101  0.00  0.00    +0.000 C 
ATOM     15  O   UNL     1       2.610   9.070  17.242  0.00  0.00    +0.000 OA
ENDROOT
BRANCH   1  16
ATOM     16  C   UNL     1       4.953   4.255  16.702  0.00  0.00    +0.000 C 
BRANCH  16  18
ATOM     17  C   UNL     1       7.440   4.574  17.107  0.00  0.00    +0.000 C 
ATOM     18  C   UNL     1       6.266   4.853  16.168  0.00  0.00    +0.000 C 
ATOM     19  C   UNL     1       6.578   4.302  14.775  0.00  0.00    +0.000 C 
ENDBRANCH  16  18
ENDBRANCH   1  16
TORSDOF 2
ENDMDL
MODEL 8
REMARK VINA RESULT:      -6.2      1.718      2.946
REMARK  Name = 
REMARK  4 active torsions:
REMARK  status: ('A' for Active; 'I' for Inactive)
REMARK    1  A    between atoms: C_1  and  C_2
REMARK    2  A    between atoms: C_2  and  C_3
REMARK    3  A    between atoms: C_2  and  C_4
REMARK    4  A    between atoms: C_4  and  N_5
REMARK                            x       y       z     vdW  Elec       q    Type
REMARK                         _______ _______ _______ _____ _____    ______ ____
ROOT
ATOM      1  N   UNL     1       5.828   4.859  16.788  0.00  0.00    +0.000 N 
ATOM      2  N   UNL     1       6.091   3.952  17.752  0.00  0.00    +0.000 NA
ATOM      3  C   UNL     1       4.922   3.904  18.403  0.00  0.00    +0.000 A 
ATOM      4  C   UNL     1       4.008   4.794  17.811  0.00  0.00    +0.000 A 
ATOM      5  N   UNL     1       4.590   5.411  16.772  0.00  0.00    +0.000 NA
ATOM      6  C   UNL     1       2.654   4.976  18.311  0.00  0.00    +0.000 C 
ATOM      7  O   UNL     1       1.823   5.742  17.839  0.00  0.00    +0.000 OA
ATOM      8  C   UNL     1       2.317   4.143  19.495  0.00  0.00    +0.000 A 
ATOM      9  C   UNL     1       1.059   4.230  20.055  0.00  0.00    +0.000 A 
ATOM     10  N   UNL     1       0.706   3.501  21.133  0.00  0.00    +0.000 NA
ATOM     11  N   UNL     1       1.609   2.648  21.704  0.00  0.00    +0.000 NA
ATOM     12  C   UNL     1       2.845   2.535  21.184  0.00  0.00    +0.000 A 
ATOM     13  C   UNL     1       3.235   3.265  20.079  0.00  0.00    +0.000 A 
ATOM     14  C   UNL     1       4.610   3.087  19.557  0.00  0.00    +0.000 C 
ATOM     15  O   UNL     1       5.380   2.303  20.094  0.00  0.00    +0.000 OA
ENDROOT
BRANCH   1  16
ATOM     16  C   UNL     1       6.870   5.280  15.866  0.00  0.00    +0.000 C 
BRANCH  16  18
ATOM     17  C   UNL     1       7.704   5.316  13.467  0.00  0.00    +0.000 C 
ATOM     18  C   UNL     1       6.511   5.055  14.386  0.00  0.00    +0.000 C 
ATOM     19  C   UNL     1       5.997   3.630  14.171  0.00  0.00    +0.000 C 
ENDBRANCH  16  18
ENDBRANCH   1  16
TORSDOF 2
ENDMDL
MODEL 9
REMARK VINA RESULT:      -6.2      3.070      6.745
REMARK  Name = 
REMARK  4 active torsions:
REMARK  status: ('A' for Active; 'I' for Inactive)
REMARK    1  A    between atoms: C_1  and  C_2
REMARK    2  A    between atoms: C_2  and  C_3
REMARK    3  A    between atoms: C_2  and  C_4
REMARK    4  A    between atoms: C_4  and  N_5
REMARK                            x       y       z     vdW  Elec       q    Type
REMARK                         _______ _______ _______ _____ _____    ______ ____
ROOT
ATOM      1  N   UNL     1       1.599   7.789  20.723  0.00  0.00    +0.000 N 
ATOM      2  N   UNL     1       2.343   7.783  19.597  0.00  0.00    +0.000 NA
ATOM      3  C   UNL     1       2.481   6.470  19.373  0.00  0.00    +0.000 A 
ATOM      4  C   UNL     1       1.825   5.741  20.381  0.00  0.00    +0.000 A 
ATOM      5  N   UNL     1       1.257   6.589  21.252  0.00  0.00    +0.000 NA
ATOM      6  C   UNL     1       1.814   4.287  20.416  0.00  0.00    +0.000 C 
ATOM      7  O   UNL     1       1.266   3.604  21.273  0.00  0.00    +0.000 OA
ATOM      8  C   UNL     1       2.551   3.638  19.300  0.00  0.00    +0.000 A 
ATOM      9  C   UNL     1       2.606   2.260  19.229  0.00  0.00    +0.000 A 
ATOM     10  N   UNL     1       3.267   1.623  18.242  0.00  0.00    +0.000 NA
ATOM     11  N   UNL     1       3.909   2.346  17.275  0.00  0.00    +0.000 NA
ATOM     12  C   UNL     1       3.875   3.691  17.310  0.00  0.00    +0.000 A 
ATOM     13  C   UNL     1       3.204   4.372  18.306  0.00  0.00    +0.000 A 
ATOM     14  C   UNL     1       3.204   5.853  18.281  0.00  0.00    +0.000 C 
ATOM     15  O   UNL     1       3.784   6.457  17.389  0.00  0.00    +0.000 OA
ENDROOT
BRANCH   1  16
ATOM     16  C   UNL     1       1.260   9.042  21.378  0.00  0.00    +0.000 C 
BRANCH  16  18
ATOM     17  C   UNL     1      -0.675  10.262  22.481  0.00  0.00    +0.000 C 
ATOM     18  C   UNL     1      -0.237   9.390  21.304  0.00  0.00    +0.000 C 
ATOM     19  C   UNL     1      -0.557  10.103  19.988  0.00  0.00    +0.000 C 
ENDBRANCH  16  18
ENDBRANCH   1  16
TORSDOF 2
ENDMDL
