MODEL 1
REMARK VINA RESULT:      -8.4      0.000      0.000
REMARK  Name = 
REMARK  6 active torsions:
REMARK  status: ('A' for Active; 'I' for Inactive)
REMARK    1  A    between atoms: C_2  and  O_3
REMARK    2  A    between atoms: C_2  and  C_20
REMARK    3  A    between atoms: O_3  and  C_4
REMARK    4  A    between atoms: C_6  and  N_7
REMARK    5  A    between atoms: C_17  and  C_18
REMARK    6  A    between atoms: C_18  and  O_19
REMARK                            x       y       z     vdW  Elec       q    Type
REMARK                         _______ _______ _______ _____ _____    ______ ____
ROOT
ATOM      1  C   UNL     1       3.163   5.884  18.922  0.00  0.00    +0.000 C 
ATOM      2  C   UNL     1       4.493   5.618  19.587  0.00  0.00    +0.000 C 
ATOM      3  C   UNL     1       4.943   4.332  18.898  0.00  0.00    +0.000 C 
ATOM      4  O   UNL     1       3.734   3.565  18.708  0.00  0.00    +0.000 OA
ATOM      5  C   UNL     1       2.606   4.463  18.844  0.00  0.00    +0.000 C 
ENDROOT
BRANCH   3   6
ATOM      6  N   UNL     1       5.619   4.520  17.602  0.00  0.00    +0.000 N 
ATOM      7  C   UNL     1       4.954   4.312  16.401  0.00  0.00    +0.000 A 
ATOM      8  C   UNL     1       5.567   4.407  15.221  0.00  0.00    +0.000 A 
ATOM      9  F   UNL     1       4.925   4.200  14.057  0.00  0.00    +0.000 F 
ATOM     10  C   UNL     1       7.001   4.729  15.168  0.00  0.00    +0.000 A 
ATOM     11  O   UNL     1       7.625   4.808  14.116  0.00  0.00    +0.000 OA
ATOM     12  N   UNL     1       7.591   4.909  16.391  0.00  0.00    +0.000 N 
ATOM     13  C   UNL     1       6.995   4.749  17.618  0.00  0.00    +0.000 A 
ATOM     14  O   UNL     1       7.671   4.800  18.641  0.00  0.00    +0.000 OA
ATOM     15  H   UNL     1       8.585   5.085  16.392  0.00  0.00    +0.000 HD
ENDBRANCH   3   6
BRANCH   1  16
ATOM     16  O   UNL     1       2.248   6.717  19.647  0.00  0.00    +0.000 OA
BRANCH  16  18
ATOM     17  O   UNL     1       2.494   8.462  18.185  0.00  0.00    +0.000 OA
ATOM     18  C   UNL     1       2.102   8.000  19.247  0.00  0.00    +0.000 C 
BRANCH  18  19
ATOM     19  C   UNL     1       1.211   8.744  20.175  0.00  0.00    +0.000 A 
ATOM     20  C   UNL     1       1.395   8.485  21.545  0.00  0.00    +0.000 A 
ATOM     21  C   UNL     1       0.707   9.222  22.513  0.00  0.00    +0.000 A 
ATOM     22  C   UNL     1      -0.176  10.223  22.121  0.00  0.00    +0.000 A 
ATOM     23  C   UNL     1      -0.410  10.451  20.762  0.00  0.00    +0.000 A 
ATOM     24  C   UNL     1       0.265   9.703  19.787  0.00  0.00    +0.000 A 
ATOM     25 CL   UNL     1      -0.190   9.990  18.142  0.00  0.00    +0.000 Cl
ENDBRANCH  18  19
ENDBRANCH  16  18
ENDBRANCH   1  16
BRANCH   5  26
ATOM     26  C   UNL     1       1.654   4.257  17.668  0.00  0.00    +0.000 C 
BRANCH  26  27
ATOM     27  O   UNL     1       0.911   3.050  17.841  0.00  0.00    +0.000 OA
ATOM     28  H   UNL     1       1.443   2.336  17.441  0.00  0.00    +0.000 HD
ENDBRANCH  26  27
ENDBRANCH   5  26
TORSDOF 6
ENDMDL
MODEL 2
REMARK VINA RESULT:      -8.0      3.074      6.416
REMARK  Name = 
REMARK  6 active torsions:
REMARK  status: ('A' for Active; 'I' for Inactive)
REMARK    1  A    between atoms: C_2  and  O_3
REMARK    2  A    between atoms: C_2  and  C_20
REMARK    3  A    between atoms: O_3  and  C_4
REMARK    4  A    between atoms: C_6  and  N_7
REMARK    5  A    between atoms: C_17  and  C_18
REMARK    6  A    between atoms: C_18  and  O_19
REMARK                            x       y       z     vdW  Elec       q    Type
REMARK                         _______ _______ _______ _____ _____    ______ ____
ROOT
ATOM      1  C   UNL     1       4.169   3.545  17.600  0.00  0.00    +0.000 C 
ATOM      2  C   UNL     1       2.811   3.801  16.988  0.00  0.00    +0.000 C 
ATOM      3  C   UNL     1       1.908   3.843  18.219  0.00  0.00    +0.000 C 
ATOM      4  O   UNL     1       2.444   2.843  19.112  0.00  0.00    +0.000 OA
ATOM      5  C   UNL     1       3.793   2.536  18.685  0.00  0.00    +0.000 C 
ENDROOT
BRANCH   3   6
ATOM      6  N   UNL     1       1.852   5.144  18.908  0.00  0.00    +0.000 N 
ATOM      7  C   UNL     1       2.276   6.312  18.288  0.00  0.00    +0.000 A 
ATOM      8  C   UNL     1       2.300   7.486  18.920  0.00  0.00    +0.000 A 
ATOM      9  F   UNL     1       2.717   8.616  18.322  0.00  0.00    +0.000 F 
ATOM     10  C   UNL     1       1.879   7.566  20.327  0.00  0.00    +0.000 A 
ATOM     11  O   UNL     1       1.901   8.610  20.967  0.00  0.00    +0.000 OA
ATOM     12  N   UNL     1       1.485   6.373  20.873  0.00  0.00    +0.000 N 
ATOM     13  C   UNL     1       1.518   5.143  20.263  0.00  0.00    +0.000 A 
ATOM     14  O   UNL     1       1.272   4.130  20.909  0.00  0.00    +0.000 OA
ATOM     15  H   UNL     1       1.235   6.385  21.851  0.00  0.00    +0.000 HD
ENDBRANCH   3   6
BRANCH   1  16
ATOM     16  O   UNL     1       5.155   2.970  16.734  0.00  0.00    +0.000 OA
BRANCH  16  18
ATOM     17  O   UNL     1       6.030   3.779  14.777  0.00  0.00    +0.000 OA
ATOM     18  C   UNL     1       5.918   3.808  15.994  0.00  0.00    +0.000 C 
BRANCH  18  19
ATOM     19  C   UNL     1       6.447   4.916  16.831  0.00  0.00    +0.000 A 
ATOM     20  C   UNL     1       7.367   4.550  17.830  0.00  0.00    +0.000 A 
ATOM     21  C   UNL     1       8.028   5.519  18.588  0.00  0.00    +0.000 A 
ATOM     22  C   UNL     1       7.773   6.868  18.359  0.00  0.00    +0.000 A 
ATOM     23  C   UNL     1       6.818   7.243  17.409  0.00  0.00    +0.000 A 
ATOM     24  C   UNL     1       6.140   6.273  16.658  0.00  0.00    +0.000 A 
ATOM     25 CL   UNL     1       4.898   6.847  15.598  0.00  0.00    +0.000 Cl
ENDBRANCH  18  19
ENDBRANCH  16  18
ENDBRANCH   1  16
BRANCH   5  26
ATOM     26  C   UNL     1       4.726   2.582  19.893  0.00  0.00    +0.000 C 
BRANCH  26  27
ATOM     27  O   UNL     1       5.290   1.293  20.131  0.00  0.00    +0.000 OA
ATOM     28  H   UNL     1       6.053   1.207  19.527  0.00  0.00    +0.000 HD
ENDBRANCH  26  27
ENDBRANCH   5  26
TORSDOF 6
ENDMDL
MODEL 3
REMARK VINA RESULT:      -8.0      3.465      7.733
REMARK  Name = 
REMARK  6 active torsions:
REMARK  status: ('A' for Active; 'I' for Inactive)
REMARK    1  A    between atoms: C_2  and  O_3
REMARK    2  A    between atoms: C_2  and  C_20
REMARK    3  A    between atoms: O_3  and  C_4
REMARK    4  A    between atoms: C_6  and  N_7
REMARK    5  A    between atoms: C_17  and  C_18
REMARK    6  A    between atoms: C_18  and  O_19
REMARK                            x       y       z     vdW  Elec       q    Type
REMARK                         _______ _______ _______ _____ _____    ______ ____
ROOT
ATOM      1  C   UNL     1       5.703   4.660  17.460  0.00  0.00    +0.000 C 
ATOM      2  C   UNL     1       4.451   3.829  17.627  0.00  0.00    +0.000 C 
ATOM      3  C   UNL     1       4.035   4.162  19.058  0.00  0.00    +0.000 C 
ATOM      4  O   UNL     1       5.274   4.286  19.790  0.00  0.00    +0.000 OA
ATOM      5  C   UNL     1       6.346   4.463  18.833  0.00  0.00    +0.000 C 
ENDROOT
BRANCH   3   6
ATOM      6  N   UNL     1       3.246   5.398  19.208  0.00  0.00    +0.000 N 
ATOM      7  C   UNL     1       3.356   6.443  18.301  0.00  0.00    +0.000 A 
ATOM      8  C   UNL     1       2.706   7.596  18.460  0.00  0.00    +0.000 A 
ATOM      9  F   UNL     1       2.817   8.611  17.585  0.00  0.00    +0.000 F 
ATOM     10  C   UNL     1       1.846   7.792  19.637  0.00  0.00    +0.000 A 
ATOM     11  O   UNL     1       1.240   8.836  19.849  0.00  0.00    +0.000 OA
ATOM     12  N   UNL     1       1.795   6.723  20.491  0.00  0.00    +0.000 N 
ATOM     13  C   UNL     1       2.509   5.555  20.383  0.00  0.00    +0.000 A 
ATOM     14  O   UNL     1       2.482   4.732  21.292  0.00  0.00    +0.000 OA
ATOM     15  H   UNL     1       1.251   6.843  21.332  0.00  0.00    +0.000 HD
ENDBRANCH   3   6
BRANCH   1  16
ATOM     16  O   UNL     1       6.614   4.232  16.440  0.00  0.00    +0.000 OA
BRANCH  16  18
ATOM     17  O   UNL     1       7.592   6.188  15.760  0.00  0.00    +0.000 OA
ATOM     18  C   UNL     1       7.010   5.141  15.519  0.00  0.00    +0.000 C 
BRANCH  18  19
ATOM     19  C   UNL     1       6.836   4.607  14.143  0.00  0.00    +0.000 A 
ATOM     20  C   UNL     1       5.774   3.703  13.962  0.00  0.00    +0.000 A 
ATOM     21  C   UNL     1       5.434   3.241  12.688  0.00  0.00    +0.000 A 
ATOM     22  C   UNL     1       6.156   3.673  11.581  0.00  0.00    +0.000 A 
ATOM     23  C   UNL     1       7.250   4.527  11.754  0.00  0.00    +0.000 A 
ATOM     24  C   UNL     1       7.605   4.980  13.032  0.00  0.00    +0.000 A 
ATOM     25 CL   UNL     1       9.044   5.936  13.140  0.00  0.00    +0.000 Cl
ENDBRANCH  18  19
ENDBRANCH  16  18
ENDBRANCH   1  16
BRANCH   5  26
ATOM     26  C   UNL     1       7.212   5.646  19.262  0.00  0.00    +0.000 C 
BRANCH  26  27
ATOM     27  O   UNL     1       7.923   5.328  20.458  0.00  0.00    +0.000 OA
ATOM     28  H   UNL     1       7.942   6.143  20.995  0.00  0.00    +0.000 HD
ENDBRANCH  26  27
ENDBRANCH   5  26
TORSDOF 6
ENDMDL
MODEL 4
REMARK VINA RESULT:      -7.8      1.495      2.054
REMARK  Name = 
REMARK  6 active torsions:
REMARK  status: ('A' for Active; 'I' for Inactive)
REMARK    1  A    between atoms: C_2  and  O_3
REMARK    2  A    between atoms: C_2  and  C_20
REMARK    3  A    between atoms: O_3  and  C_4
REMARK    4  A    between atoms: C_6  and  N_7
REMARK    5  A    between atoms: C_17  and  C_18
REMARK    6  A    between atoms: C_18  and  O_19
REMARK                            x       y       z     vdW  Elec       q    Type
REMARK                         _______ _______ _______ _____ _____    ______ ____
ROOT
ATOM      1  C   UNL     1       4.007   5.375  19.021  0.00  0.00    +0.000 C 
ATOM      2  C   UNL     1       5.359   4.759  19.297  0.00  0.00    +0.000 C 
ATOM      3  C   UNL     1       5.443   3.677  18.223  0.00  0.00    +0.000 C 
ATOM      4  O   UNL     1       4.099   3.160  18.106  0.00  0.00    +0.000 OA
ATOM      5  C   UNL     1       3.195   4.119  18.704  0.00  0.00    +0.000 C 
ENDROOT
BRANCH   3   6
ATOM      6  N   UNL     1       5.913   4.139  16.905  0.00  0.00    +0.000 N 
ATOM      7  C   UNL     1       5.145   3.967  15.761  0.00  0.00    +0.000 A 
ATOM      8  C   UNL     1       5.583   4.313  14.550  0.00  0.00    +0.000 A 
ATOM      9  F   UNL     1       4.842   4.141  13.441  0.00  0.00    +0.000 F 
ATOM     10  C   UNL     1       6.930   4.885  14.397  0.00  0.00    +0.000 A 
ATOM     11  O   UNL     1       7.397   5.200  13.309  0.00  0.00    +0.000 OA
ATOM     12  N   UNL     1       7.631   5.013  15.567  0.00  0.00    +0.000 N 
ATOM     13  C   UNL     1       7.226   4.601  16.813  0.00  0.00    +0.000 A 
ATOM     14  O   UNL     1       8.008   4.643  17.758  0.00  0.00    +0.000 OA
ATOM     15  H   UNL     1       8.576   5.359  15.491  0.00  0.00    +0.000 HD
ENDBRANCH   3   6
BRANCH   1  16
ATOM     16  O   UNL     1       3.397   6.076  20.112  0.00  0.00    +0.000 OA
BRANCH  16  18
ATOM     17  O   UNL     1       1.172   5.635  20.436  0.00  0.00    +0.000 OA
ATOM     18  C   UNL     1       2.075   6.353  20.030  0.00  0.00    +0.000 C 
BRANCH  18  19
ATOM     19  C   UNL     1       1.857   7.749  19.570  0.00  0.00    +0.000 A 
ATOM     20  C   UNL     1       2.198   8.017  18.232  0.00  0.00    +0.000 A 
ATOM     21  C   UNL     1       1.914   9.257  17.654  0.00  0.00    +0.000 A 
ATOM     22  C   UNL     1       1.289  10.245  18.409  0.00  0.00    +0.000 A 
ATOM     23  C   UNL     1       0.997  10.010  19.755  0.00  0.00    +0.000 A 
ATOM     24  C   UNL     1       1.296   8.774  20.345  0.00  0.00    +0.000 A 
ATOM     25 CL   UNL     1       0.999   8.637  22.044  0.00  0.00    +0.000 Cl
ENDBRANCH  18  19
ENDBRANCH  16  18
ENDBRANCH   1  16
BRANCH   5  26
ATOM     26  C   UNL     1       2.036   4.384  17.745  0.00  0.00    +0.000 C 
BRANCH  26  27
ATOM     27  O   UNL     1       0.972   3.464  17.991  0.00  0.00    +0.000 OA
ATOM     28  H   UNL     1       1.268   2.598  17.651  0.00  0.00    +0.000 HD
ENDBRANCH  26  27
ENDBRANCH   5  26
TORSDOF 6
ENDMDL
MODEL 5
REMARK VINA RESULT:      -7.7      4.107      5.079
REMARK  Name = 
REMARK  6 active torsions:
REMARK  status: ('A' for Active; 'I' for Inactive)
REMARK    1  A    between atoms: C_2  and  O_3
REMARK    2  A    between atoms: C_2  and  C_20
REMARK    3  A    between atoms: O_3  and  C_4
REMARK    4  A    between atoms: C_6  and  N_7
REMARK    5  A    between atoms: C_17  and  C_18
REMARK    6  A    between atoms: C_18  and  O_19
REMARK                            x       y       z     vdW  Elec       q    Type
REMARK                         _______ _______ _______ _____ _____    ______ ____
ROOT
ATOM      1  C   UNL     1       5.537   4.391  18.866  0.00  0.00    +0.000 C 
ATOM      2  C   UNL     1       4.421   5.096  18.130  0.00  0.00    +0.000 C 
ATOM      3  C   UNL     1       5.184   6.135  17.311  0.00  0.00    +0.000 C 
ATOM      4  O   UNL     1       6.264   6.567  18.166  0.00  0.00    +0.000 OA
ATOM      5  C   UNL     1       6.428   5.583  19.216  0.00  0.00    +0.000 C 
ENDROOT
BRANCH   3   6
ATOM      6  N   UNL     1       5.730   5.645  16.032  0.00  0.00    +0.000 N 
ATOM      7  C   UNL     1       5.034   4.734  15.250  0.00  0.00    +0.000 A 
ATOM      8  C   UNL     1       5.542   4.225  14.127  0.00  0.00    +0.000 A 
ATOM      9  F   UNL     1       4.872   3.337  13.371  0.00  0.00    +0.000 F 
ATOM     10  C   UNL     1       6.891   4.619  13.692  0.00  0.00    +0.000 A 
ATOM     11  O   UNL     1       7.421   4.170  12.683  0.00  0.00    +0.000 OA
ATOM     12  N   UNL     1       7.518   5.513  14.520  0.00  0.00    +0.000 N 
ATOM     13  C   UNL     1       7.042   5.995  15.714  0.00  0.00    +0.000 A 
ATOM     14  O   UNL     1       7.764   6.680  16.432  0.00  0.00    +0.000 OA
ATOM     15  H   UNL     1       8.463   5.768  14.274  0.00  0.00    +0.000 HD
ENDBRANCH   3   6
BRANCH   1  16
ATOM     16  O   UNL     1       5.166   3.703  20.067  0.00  0.00    +0.000 OA
BRANCH  16  18
ATOM     17  O   UNL     1       5.222   1.415  19.979  0.00  0.00    +0.000 OA
ATOM     18  C   UNL     1       4.612   2.474  19.951  0.00  0.00    +0.000 C 
BRANCH  18  19
ATOM     19  C   UNL     1       3.129   2.558  19.993  0.00  0.00    +0.000 A 
ATOM     20  C   UNL     1       2.562   2.806  21.256  0.00  0.00    +0.000 A 
ATOM     21  C   UNL     1       1.191   3.035  21.395  0.00  0.00    +0.000 A 
ATOM     22  C   UNL     1       0.370   3.016  20.271  0.00  0.00    +0.000 A 
ATOM     23  C   UNL     1       0.913   2.715  19.019  0.00  0.00    +0.000 A 
ATOM     24  C   UNL     1       2.285   2.467  18.877  0.00  0.00    +0.000 A 
ATOM     25 CL   UNL     1       2.825   1.990  17.304  0.00  0.00    +0.000 Cl
ENDBRANCH  18  19
ENDBRANCH  16  18
ENDBRANCH   1  16
BRANCH   5  26
ATOM     26  C   UNL     1       7.905   5.211  19.330  0.00  0.00    +0.000 C 
BRANCH  26  27
ATOM     27  O   UNL     1       8.326   5.278  20.693  0.00  0.00    +0.000 OA
ATOM     28  H   UNL     1       7.875   6.049  21.086  0.00  0.00    +0.000 HD
ENDBRANCH  26  27
ENDBRANCH   5  26
TORSDOF 6
ENDMDL
MODEL 6
REMARK VINA RESULT:      -7.7      1.549      1.814
REMARK  Name = 
REMARK  6 active torsions:
REMARK  status: ('A' for Active; 'I' for Inactive)
REMARK    1  A    between atoms: C_2  and  O_3
REMARK    2  A    between atoms: C_2  and  C_20
REMARK    3  A    between atoms: O_3  and  C_4
REMARK    4  A    between atoms: C_6  and  N_7
REMARK    5  A    between atoms: C_17  and  C_18
REMARK    6  A    between atoms: C_18  and  O_19
REMARK                            x       y       z     vdW  Elec       q    Type
REMARK                         _______ _______ _______ _____ _____    ______ ____
ROOT
ATOM      1  C   UNL     1       3.467   5.732  17.834  0.00  0.00    +0.000 C 
ATOM      2  C   UNL     1       4.868   5.915  18.372  0.00  0.00    +0.000 C 
ATOM      3  C   UNL     1       5.573   4.661  17.859  0.00  0.00    +0.000 C 
ATOM      4  O   UNL     1       4.584   3.612  17.946  0.00  0.00    +0.000 OA
ATOM      5  C   UNL     1       3.281   4.232  18.064  0.00  0.00    +0.000 C 
ENDROOT
BRANCH   3   6
ATOM      6  N   UNL     1       6.082   4.749  16.479  0.00  0.00    +0.000 N 
ATOM      7  C   UNL     1       5.594   3.926  15.473  0.00  0.00    +0.000 A 
ATOM      8  C   UNL     1       6.091   3.940  14.236  0.00  0.00    +0.000 A 
ATOM      9  F   UNL     1       5.623   3.138  13.263  0.00  0.00    +0.000 F 
ATOM     10  C   UNL     1       7.205   4.843  13.908  0.00  0.00    +0.000 A 
ATOM     11  O   UNL     1       7.719   4.886  12.797  0.00  0.00    +0.000 OA
ATOM     12  N   UNL     1       7.639   5.615  14.953  0.00  0.00    +0.000 N 
ATOM     13  C   UNL     1       7.188   5.567  16.249  0.00  0.00    +0.000 A 
ATOM     14  O   UNL     1       7.760   6.211  17.123  0.00  0.00    +0.000 OA
ATOM     15  H   UNL     1       8.433   6.211  14.774  0.00  0.00    +0.000 HD
ENDBRANCH   3   6
BRANCH   1  16
ATOM     16  O   UNL     1       2.431   6.452  18.514  0.00  0.00    +0.000 OA
BRANCH  16  18
ATOM     17  O   UNL     1       2.604   8.343  17.233  0.00  0.00    +0.000 OA
ATOM     18  C   UNL     1       2.322   7.780  18.281  0.00  0.00    +0.000 C 
BRANCH  18  19
ATOM     19  C   UNL     1       1.610   8.454  19.398  0.00  0.00    +0.000 A 
ATOM     20  C   UNL     1       1.243   9.793  19.176  0.00  0.00    +0.000 A 
ATOM     21  C   UNL     1       0.457  10.485  20.101  0.00  0.00    +0.000 A 
ATOM     22  C   UNL     1       0.031   9.845  21.261  0.00  0.00    +0.000 A 
ATOM     23  C   UNL     1       0.437   8.533  21.520  0.00  0.00    +0.000 A 
ATOM     24  C   UNL     1       1.240   7.841  20.603  0.00  0.00    +0.000 A 
ATOM     25 CL   UNL     1       1.778   6.267  21.082  0.00  0.00    +0.000 Cl
ENDBRANCH  18  19
ENDBRANCH  16  18
ENDBRANCH   1  16
BRANCH   5  26
ATOM     26  C   UNL     1       2.325   3.589  17.061  0.00  0.00    +0.000 C 
BRANCH  26  27
ATOM     27  O   UNL     1       1.000   4.081  17.257  0.00  0.00    +0.000 OA
ATOM     28  H   UNL     1       1.080   5.040  17.420  0.00  0.00    +0.000 HD
ENDBRANCH  26  27
ENDBRANCH   5  26
TORSDOF 6
ENDMDL
MODEL 7
REMARK VINA RESULT:      -7.4      3.578      7.298
REMARK  Name = 
REMARK  6 active torsions:
REMARK  status: ('A' for Active; 'I' for Inactive)
REMARK    1  A    between atoms: C_2  and  O_3
REMARK    2  A    between atoms: C_2  and  C_20
REMARK    3  A    between atoms: O_3  and  C_4
REMARK    4  A    between atoms: C_6  and  N_7
REMARK    5  A    between atoms: C_17  and  C_18
REMARK    6  A    between atoms: C_18  and  O_19
REMARK                            x       y       z     vdW  Elec       q    Type
REMARK                         _______ _______ _______ _____ _____    ______ ____
ROOT
ATOM      1  C   UNL     1       3.741   5.696  19.375  0.00  0.00    +0.000 C 
ATOM      2  C   UNL     1       3.789   6.699  18.246  0.00  0.00    +0.000 C 
ATOM      3  C   UNL     1       2.330   7.138  18.146  0.00  0.00    +0.000 C 
ATOM      4  O   UNL     1       1.560   5.945  18.408  0.00  0.00    +0.000 OA
ATOM      5  C   UNL     1       2.430   4.981  19.049  0.00  0.00    +0.000 C 
ENDROOT
BRANCH   3   6
ATOM      6  N   UNL     1       1.931   8.202  19.085  0.00  0.00    +0.000 N 
ATOM      7  C   UNL     1       1.616   7.919  20.407  0.00  0.00    +0.000 A 
ATOM      8  C   UNL     1       1.183   8.855  21.253  0.00  0.00    +0.000 A 
ATOM      9  F   UNL     1       0.871   8.582  22.532  0.00  0.00    +0.000 F 
ATOM     10  C   UNL     1       1.014  10.240  20.784  0.00  0.00    +0.000 A 
ATOM     11  O   UNL     1       0.600  11.139  21.506  0.00  0.00    +0.000 OA
ATOM     12  N   UNL     1       1.335  10.439  19.467  0.00  0.00    +0.000 N 
ATOM     13  C   UNL     1       1.715   9.477  18.563  0.00  0.00    +0.000 A 
ATOM     14  O   UNL     1       1.835   9.763  17.376  0.00  0.00    +0.000 OA
ATOM     15  H   UNL     1       1.185  11.367  19.102  0.00  0.00    +0.000 HD
ENDBRANCH   3   6
BRANCH   1  16
ATOM     16  O   UNL     1       4.808   4.741  19.418  0.00  0.00    +0.000 OA
BRANCH  16  18
ATOM     17  O   UNL     1       6.932   5.454  19.896  0.00  0.00    +0.000 OA
ATOM     18  C   UNL     1       6.053   5.163  19.097  0.00  0.00    +0.000 C 
BRANCH  18  19
ATOM     19  C   UNL     1       6.294   5.031  17.637  0.00  0.00    +0.000 A 
ATOM     20  C   UNL     1       5.795   3.863  17.033  0.00  0.00    +0.000 A 
ATOM     21  C   UNL     1       5.847   3.693  15.648  0.00  0.00    +0.000 A 
ATOM     22  C   UNL     1       6.403   4.687  14.850  0.00  0.00    +0.000 A 
ATOM     23  C   UNL     1       6.953   5.827  15.442  0.00  0.00    +0.000 A 
ATOM     24  C   UNL     1       6.919   5.995  16.834  0.00  0.00    +0.000 A 
ATOM     25 CL   UNL     1       7.734   7.385  17.464  0.00  0.00    +0.000 Cl
ENDBRANCH  18  19
ENDBRANCH  16  18
ENDBRANCH   1  16
BRANCH   5  26
ATOM     26  C   UNL     1       1.732   4.418  20.285  0.00  0.00    +0.000 C 
BRANCH  26  27
ATOM     27  O   UNL     1       2.484   4.726  21.459  0.00  0.00    +0.000 OA
ATOM     28  H   UNL     1       2.662   5.686  21.431  0.00  0.00    +0.000 HD
ENDBRANCH  26  27
ENDBRANCH   5  26
TORSDOF 6
ENDMDL
MODEL 8
REMARK VINA RESULT:      -7.4      1.290      1.565
REMARK  Name = 
REMARK  6 active torsions:
REMARK  status: ('A' for Active; 'I' for Inactive)
REMARK    1  A    between atoms: C_2  and  O_3
REMARK    2  A    between atoms: C_2  and  C_20
REMARK    3  A    between atoms: O_3  and  C_4
REMARK    4  A    between atoms: C_6  and  N_7
REMARK    5  A    between atoms: C_17  and  C_18
REMARK    6  A    between atoms: C_18  and  O_19
REMARK                            x       y       z     vdW  Elec       q    Type
REMARK                         _______ _______ _______ _____ _____    ______ ____
ROOT
ATOM      1  C   UNL     1       3.154   5.191  18.487  0.00  0.00    +0.000 C 
ATOM      2  C   UNL     1       4.433   5.665  19.137  0.00  0.00    +0.000 C 
ATOM      3  C   UNL     1       5.434   4.605  18.682  0.00  0.00    +0.000 C 
ATOM      4  O   UNL     1       4.695   3.364  18.687  0.00  0.00    +0.000 OA
ATOM      5  C   UNL     1       3.282   3.683  18.699  0.00  0.00    +0.000 C 
ENDROOT
BRANCH   3   6
ATOM      6  N   UNL     1       6.019   4.828  17.348  0.00  0.00    +0.000 N 
ATOM      7  C   UNL     1       5.707   4.006  16.274  0.00  0.00    +0.000 A 
ATOM      8  C   UNL     1       6.280   4.147  15.078  0.00  0.00    +0.000 A 
ATOM      9  F   UNL     1       5.984   3.347  14.038  0.00  0.00    +0.000 F 
ATOM     10  C   UNL     1       7.290   5.197  14.873  0.00  0.00    +0.000 A 
ATOM     11  O   UNL     1       7.868   5.362  13.805  0.00  0.00    +0.000 OA
ATOM     12  N   UNL     1       7.552   5.960  15.980  0.00  0.00    +0.000 N 
ATOM     13  C   UNL     1       7.026   5.788  17.236  0.00  0.00    +0.000 A 
ATOM     14  O   UNL     1       7.451   6.450  18.177  0.00  0.00    +0.000 OA
ATOM     15  H   UNL     1       8.275   6.658  15.885  0.00  0.00    +0.000 HD
ENDBRANCH   3   6
BRANCH   1  16
ATOM     16  O   UNL     1       1.934   5.655  19.081  0.00  0.00    +0.000 OA
BRANCH  16  18
ATOM     17  O   UNL     1       2.545   5.577  21.287  0.00  0.00    +0.000 OA
ATOM     18  C   UNL     1       1.982   6.123  20.349  0.00  0.00    +0.000 C 
BRANCH  18  19
ATOM     19  C   UNL     1       1.440   7.505  20.422  0.00  0.00    +0.000 A 
ATOM     20  C   UNL     1       0.740   7.832  21.597  0.00  0.00    +0.000 A 
ATOM     21  C   UNL     1       0.301   9.137  21.831  0.00  0.00    +0.000 A 
ATOM     22  C   UNL     1       0.554  10.131  20.890  0.00  0.00    +0.000 A 
ATOM     23  C   UNL     1       1.199   9.807  19.693  0.00  0.00    +0.000 A 
ATOM     24  C   UNL     1       1.626   8.494  19.446  0.00  0.00    +0.000 A 
ATOM     25 CL   UNL     1       2.305   8.185  17.884  0.00  0.00    +0.000 Cl
ENDBRANCH  18  19
ENDBRANCH  16  18
ENDBRANCH   1  16
BRANCH   5  26
ATOM     26  C   UNL     1       2.573   2.866  17.620  0.00  0.00    +0.000 C 
BRANCH  26  27
ATOM     27  O   UNL     1       1.481   3.608  17.078  0.00  0.00    +0.000 OA
ATOM     28  H   UNL     1       1.539   4.506  17.456  0.00  0.00    +0.000 HD
ENDBRANCH  26  27
ENDBRANCH   5  26
TORSDOF 6
ENDMDL
MODEL 9
REMARK VINA RESULT:      -7.3      4.764      8.338
REMARK  Name = 
REMARK  6 active torsions:
REMARK  status: ('A' for Active; 'I' for Inactive)
REMARK    1  A    between atoms: C_2  and  O_3
REMARK    2  A    between atoms: C_2  and  C_20
REMARK    3  A    between atoms: O_3  and  C_4
REMARK    4  A    between atoms: C_6  and  N_7
REMARK    5  A    between atoms: C_17  and  C_18
REMARK    6  A    between atoms: C_18  and  O_19
REMARK                            x       y       z     vdW  Elec       q    Type
REMARK                         _______ _______ _______ _____ _____    ______ ____
ROOT
ATOM      1  C   UNL     1       0.943   9.378  19.613  0.00  0.00    +0.000 C 
ATOM      2  C   UNL     1      -0.179   9.455  20.622  0.00  0.00    +0.000 C 
ATOM      3  C   UNL     1      -0.736  10.856  20.375  0.00  0.00    +0.000 C 
ATOM      4  O   UNL     1       0.419  11.671  20.080  0.00  0.00    +0.000 OA
ATOM      5  C   UNL     1       1.514  10.791  19.731  0.00  0.00    +0.000 C 
ENDROOT
BRANCH   3   6
ATOM      6  N   UNL     1      -1.709  10.957  19.273  0.00  0.00    +0.000 N 
ATOM      7  C   UNL     1      -1.621  10.143  18.152  0.00  0.00    +0.000 A 
ATOM      8  C   UNL     1      -2.447  10.268  17.113  0.00  0.00    +0.000 A 
ATOM      9  F   UNL     1      -2.359   9.484  16.024  0.00  0.00    +0.000 F 
ATOM     10  C   UNL     1      -3.487  11.308  17.130  0.00  0.00    +0.000 A 
ATOM     11  O   UNL     1      -4.261  11.487  16.197  0.00  0.00    +0.000 OA
ATOM     12  N   UNL     1      -3.505  12.078  18.263  0.00  0.00    +0.000 N 
ATOM     13  C   UNL     1      -2.621  12.012  19.312  0.00  0.00    +0.000 A 
ATOM     14  O   UNL     1      -2.660  12.855  20.202  0.00  0.00    +0.000 OA
ATOM     15  H   UNL     1      -4.176  12.832  18.285  0.00  0.00    +0.000 HD
ENDBRANCH   3   6
BRANCH   1  16
ATOM     16  O   UNL     1       1.974   8.421  19.886  0.00  0.00    +0.000 OA
BRANCH  16  18
ATOM     17  O   UNL     1       2.472   7.796  17.739  0.00  0.00    +0.000 OA
ATOM     18  C   UNL     1       2.286   7.529  18.918  0.00  0.00    +0.000 C 
BRANCH  18  19
ATOM     19  C   UNL     1       2.585   6.197  19.505  0.00  0.00    +0.000 A 
ATOM     20  C   UNL     1       1.659   5.717  20.449  0.00  0.00    +0.000 A 
ATOM     21  C   UNL     1       1.768   4.424  20.967  0.00  0.00    +0.000 A 
ATOM     22  C   UNL     1       2.806   3.598  20.551  0.00  0.00    +0.000 A 
ATOM     23  C   UNL     1       3.765   4.083  19.657  0.00  0.00    +0.000 A 
ATOM     24  C   UNL     1       3.671   5.385  19.147  0.00  0.00    +0.000 A 
ATOM     25 CL   UNL     1       4.976   5.917  18.142  0.00  0.00    +0.000 Cl
ENDBRANCH  18  19
ENDBRANCH  16  18
ENDBRANCH   1  16
BRANCH   5  26
ATOM     26  C   UNL     1       2.164  11.283  18.440  0.00  0.00    +0.000 C 
BRANCH  26  27
ATOM     27  O   UNL     1       1.855  10.397  17.364  0.00  0.00    +0.000 OA
ATOM     28  H   UNL     1       2.031  10.889  16.539  0.00  0.00    +0.000 HD
ENDBRANCH  26  27
ENDBRANCH   5  26
TORSDOF 6
ENDMDL
