MODEL 1
REMARK VINA RESULT:      -7.1      0.000      0.000
REMARK  Name = 
REMARK  4 active torsions:
REMARK  status: ('A' for Active; 'I' for Inactive)
REMARK    1  A    between atoms: C_2  and  C_3
REMARK    2  A    between atoms: C_3  and  C_4
REMARK    3  A    between atoms: C_4  and  N_5
REMARK    4  A    between atoms: N_11  and  C_12
REMARK                            x       y       z     vdW  Elec       q    Type
REMARK                         _______ _______ _______ _____ _____    ______ ____
ROOT
ATOM      1  N   UNL     1       5.663   5.783  17.805  0.00  0.00    +0.000 N 
ATOM      2  C   UNL     1       5.983   4.553  18.435  0.00  0.00    +0.000 A 
ATOM      3  O   UNL     1       7.109   4.056  18.388  0.00  0.00    +0.000 OA
ATOM      4  C   UNL     1       4.896   3.905  19.152  0.00  0.00    +0.000 A 
ATOM      5  N   UNL     1       4.954   2.679  19.775  0.00  0.00    +0.000 NA
ATOM      6  C   UNL     1       3.766   2.513  20.298  0.00  0.00    +0.000 A 
ATOM      7  N   UNL     1       2.939   3.578  20.043  0.00  0.00    +0.000 N 
ATOM      8  C   UNL     1       1.588   3.654  20.534  0.00  0.00    +0.000 C 
ATOM      9  C   UNL     1       3.649   4.482  19.290  0.00  0.00    +0.000 A 
ATOM     10  C   UNL     1       3.332   5.784  18.712  0.00  0.00    +0.000 A 
ATOM     11  C   UNL     1       2.089   6.415  18.869  0.00  0.00    +0.000 A 
ATOM     12  C   UNL     1       1.848   7.669  18.312  0.00  0.00    +0.000 A 
ATOM     13  C   UNL     1       2.846   8.304  17.589  0.00  0.00    +0.000 A 
ATOM     14  C   UNL     1       4.089   7.688  17.411  0.00  0.00    +0.000 A 
ATOM     15  C   UNL     1       4.366   6.425  17.963  0.00  0.00    +0.000 A 
ENDROOT
BRANCH   1  16
ATOM     16  C   UNL     1       6.764   6.406  17.061  0.00  0.00    +0.000 C 
BRANCH  16  17
ATOM     17  C   UNL     1       7.760   7.165  17.959  0.00  0.00    +0.000 C 
BRANCH  17  19
ATOM     18  C   UNL     1       8.555   9.523  18.285  0.00  0.00    +0.000 C 
ATOM     19  C   UNL     1       7.798   8.633  17.632  0.00  0.00    +0.000 C 
ENDBRANCH  17  19
ENDBRANCH  16  17
ENDBRANCH   1  16
TORSDOF 3
ENDMDL
MODEL 2
REMARK VINA RESULT:      -6.7      2.528      5.294
REMARK  Name = 
REMARK  4 active torsions:
REMARK  status: ('A' for Active; 'I' for Inactive)
REMARK    1  A    between atoms: C_2  and  C_3
REMARK    2  A    between atoms: C_3  and  C_4
REMARK    3  A    between atoms: C_4  and  N_5
REMARK    4  A    between atoms: N_11  and  C_12
REMARK                            x       y       z     vdW  Elec       q    Type
REMARK                         _______ _______ _______ _____ _____    ______ ____
ROOT
ATOM      1  N   UNL     1       3.604   4.245  19.282  0.00  0.00    +0.000 N 
ATOM      2  C   UNL     1       2.776   4.891  20.236  0.00  0.00    +0.000 A 
ATOM      3  O   UNL     1       2.419   4.347  21.281  0.00  0.00    +0.000 OA
ATOM      4  C   UNL     1       2.373   6.250  19.910  0.00  0.00    +0.000 A 
ATOM      5  N   UNL     1       1.520   7.040  20.646  0.00  0.00    +0.000 NA
ATOM      6  C   UNL     1       1.464   8.173  19.993  0.00  0.00    +0.000 A 
ATOM      7  N   UNL     1       2.245   8.153  18.865  0.00  0.00    +0.000 N 
ATOM      8  C   UNL     1       2.379   9.287  17.987  0.00  0.00    +0.000 C 
ATOM      9  C   UNL     1       2.829   6.911  18.787  0.00  0.00    +0.000 A 
ATOM     10  C   UNL     1       3.743   6.284  17.839  0.00  0.00    +0.000 A 
ATOM     11  C   UNL     1       4.256   6.942  16.711  0.00  0.00    +0.000 A 
ATOM     12  C   UNL     1       5.143   6.300  15.850  0.00  0.00    +0.000 A 
ATOM     13  C   UNL     1       5.523   4.991  16.104  0.00  0.00    +0.000 A 
ATOM     14  C   UNL     1       5.015   4.313  17.217  0.00  0.00    +0.000 A 
ATOM     15  C   UNL     1       4.122   4.932  18.108  0.00  0.00    +0.000 A 
ENDROOT
BRANCH   1  16
ATOM     16  C   UNL     1       3.975   2.864  19.614  0.00  0.00    +0.000 C 
BRANCH  16  17
ATOM     17  C   UNL     1       3.225   1.809  18.777  0.00  0.00    +0.000 C 
BRANCH  17  19
ATOM     18  C   UNL     1       0.750   2.221  18.794  0.00  0.00    +0.000 C 
ATOM     19  C   UNL     1       1.946   2.357  18.208  0.00  0.00    +0.000 C 
ENDBRANCH  17  19
ENDBRANCH  16  17
ENDBRANCH   1  16
TORSDOF 3
ENDMDL
MODEL 3
REMARK VINA RESULT:      -6.6      1.624      1.760
REMARK  Name = 
REMARK  4 active torsions:
REMARK  status: ('A' for Active; 'I' for Inactive)
REMARK    1  A    between atoms: C_2  and  C_3
REMARK    2  A    between atoms: C_3  and  C_4
REMARK    3  A    between atoms: C_4  and  N_5
REMARK    4  A    between atoms: N_11  and  C_12
REMARK                            x       y       z     vdW  Elec       q    Type
REMARK                         _______ _______ _______ _____ _____    ______ ____
ROOT
ATOM      1  N   UNL     1       4.618   5.232  16.686  0.00  0.00    +0.000 N 
ATOM      2  C   UNL     1       4.690   3.823  16.833  0.00  0.00    +0.000 A 
ATOM      3  O   UNL     1       5.500   3.132  16.215  0.00  0.00    +0.000 OA
ATOM      4  C   UNL     1       3.745   3.233  17.769  0.00  0.00    +0.000 A 
ATOM      5  N   UNL     1       3.585   1.889  18.018  0.00  0.00    +0.000 NA
ATOM      6  C   UNL     1       2.652   1.827  18.933  0.00  0.00    +0.000 A 
ATOM      7  N   UNL     1       2.199   3.072  19.290  0.00  0.00    +0.000 N 
ATOM      8  C   UNL     1       1.192   3.279  20.298  0.00  0.00    +0.000 C 
ATOM      9  C   UNL     1       2.886   3.994  18.535  0.00  0.00    +0.000 A 
ATOM     10  C   UNL     1       2.857   5.450  18.450  0.00  0.00    +0.000 A 
ATOM     11  C   UNL     1       2.025   6.253  19.243  0.00  0.00    +0.000 A 
ATOM     12  C   UNL     1       2.054   7.641  19.134  0.00  0.00    +0.000 A 
ATOM     13  C   UNL     1       2.913   8.242  18.227  0.00  0.00    +0.000 A 
ATOM     14  C   UNL     1       3.743   7.460  17.418  0.00  0.00    +0.000 A 
ATOM     15  C   UNL     1       3.741   6.057  17.506  0.00  0.00    +0.000 A 
ENDROOT
BRANCH   1  16
ATOM     16  C   UNL     1       5.557   5.806  15.715  0.00  0.00    +0.000 C 
BRANCH  16  17
ATOM     17  C   UNL     1       7.028   5.745  16.173  0.00  0.00    +0.000 C 
BRANCH  17  19
ATOM     18  C   UNL     1       7.648   6.307  18.539  0.00  0.00    +0.000 C 
ATOM     19  C   UNL     1       7.297   6.696  17.307  0.00  0.00    +0.000 C 
ENDBRANCH  17  19
ENDBRANCH  16  17
ENDBRANCH   1  16
TORSDOF 3
ENDMDL
MODEL 4
REMARK VINA RESULT:      -6.6      1.465      2.360
REMARK  Name = 
REMARK  4 active torsions:
REMARK  status: ('A' for Active; 'I' for Inactive)
REMARK    1  A    between atoms: C_2  and  C_3
REMARK    2  A    between atoms: C_3  and  C_4
REMARK    3  A    between atoms: C_4  and  N_5
REMARK    4  A    between atoms: N_11  and  C_12
REMARK                            x       y       z     vdW  Elec       q    Type
REMARK                         _______ _______ _______ _____ _____    ______ ____
ROOT
ATOM      1  N   UNL     1       5.226   5.618  17.575  0.00  0.00    +0.000 N 
ATOM      2  C   UNL     1       5.633   4.389  18.157  0.00  0.00    +0.000 A 
ATOM      3  O   UNL     1       6.679   3.821  17.842  0.00  0.00    +0.000 OA
ATOM      4  C   UNL     1       4.738   3.834  19.160  0.00  0.00    +0.000 A 
ATOM      5  N   UNL     1       4.891   2.626  19.801  0.00  0.00    +0.000 NA
ATOM      6  C   UNL     1       3.874   2.551  20.622  0.00  0.00    +0.000 A 
ATOM      7  N   UNL     1       3.068   3.659  20.542  0.00  0.00    +0.000 N 
ATOM      8  C   UNL     1       1.898   3.836  21.362  0.00  0.00    +0.000 C 
ATOM      9  C   UNL     1       3.604   4.493  19.589  0.00  0.00    +0.000 A 
ATOM     10  C   UNL     1       3.216   5.795  19.055  0.00  0.00    +0.000 A 
ATOM     11  C   UNL     1       2.094   6.508  19.500  0.00  0.00    +0.000 A 
ATOM     12  C   UNL     1       1.783   7.757  18.968  0.00  0.00    +0.000 A 
ATOM     13  C   UNL     1       2.589   8.305  17.983  0.00  0.00    +0.000 A 
ATOM     14  C   UNL     1       3.707   7.607  17.517  0.00  0.00    +0.000 A 
ATOM     15  C   UNL     1       4.051   6.346  18.035  0.00  0.00    +0.000 A 
ENDROOT
BRANCH   1  16
ATOM     16  C   UNL     1       6.126   6.147  16.544  0.00  0.00    +0.000 C 
BRANCH  16  17
ATOM     17  C   UNL     1       5.709   5.763  15.110  0.00  0.00    +0.000 C 
BRANCH  17  19
ATOM     18  C   UNL     1       6.177   3.832  13.578  0.00  0.00    +0.000 C 
ATOM     19  C   UNL     1       6.564   4.654  14.560  0.00  0.00    +0.000 C 
ENDBRANCH  17  19
ENDBRANCH  16  17
ENDBRANCH   1  16
TORSDOF 3
ENDMDL
MODEL 5
REMARK VINA RESULT:      -6.6      2.664      4.218
REMARK  Name = 
REMARK  4 active torsions:
REMARK  status: ('A' for Active; 'I' for Inactive)
REMARK    1  A    between atoms: C_2  and  C_3
REMARK    2  A    between atoms: C_3  and  C_4
REMARK    3  A    between atoms: C_4  and  N_5
REMARK    4  A    between atoms: N_11  and  C_12
REMARK                            x       y       z     vdW  Elec       q    Type
REMARK                         _______ _______ _______ _____ _____    ______ ____
ROOT
ATOM      1  N   UNL     1       3.045   6.701  18.658  0.00  0.00    +0.000 N 
ATOM      2  C   UNL     1       2.294   6.026  19.655  0.00  0.00    +0.000 A 
ATOM      3  O   UNL     1       1.541   6.616  20.430  0.00  0.00    +0.000 OA
ATOM      4  C   UNL     1       2.461   4.582  19.708  0.00  0.00    +0.000 A 
ATOM      5  N   UNL     1       1.893   3.734  20.631  0.00  0.00    +0.000 NA
ATOM      6  C   UNL     1       2.299   2.540  20.283  0.00  0.00    +0.000 A 
ATOM      7  N   UNL     1       3.106   2.575  19.174  0.00  0.00    +0.000 N 
ATOM      8  C   UNL     1       3.660   1.390  18.572  0.00  0.00    +0.000 C 
ATOM      9  C   UNL     1       3.234   3.891  18.797  0.00  0.00    +0.000 A 
ATOM     10  C   UNL     1       3.949   4.566  17.718  0.00  0.00    +0.000 A 
ATOM     11  C   UNL     1       4.708   3.888  16.753  0.00  0.00    +0.000 A 
ATOM     12  C   UNL     1       5.354   4.583  15.733  0.00  0.00    +0.000 A 
ATOM     13  C   UNL     1       5.250   5.964  15.669  0.00  0.00    +0.000 A 
ATOM     14  C   UNL     1       4.507   6.661  16.628  0.00  0.00    +0.000 A 
ATOM     15  C   UNL     1       3.841   5.990  17.668  0.00  0.00    +0.000 A 
ENDROOT
BRANCH   1  16
ATOM     16  C   UNL     1       2.887   8.160  18.640  0.00  0.00    +0.000 C 
BRANCH  16  17
ATOM     17  C   UNL     1       1.795   8.647  17.667  0.00  0.00    +0.000 C 
BRANCH  17  19
ATOM     18  C   UNL     1       0.868   9.937  19.610  0.00  0.00    +0.000 C 
ATOM     19  C   UNL     1       0.919   9.697  18.294  0.00  0.00    +0.000 C 
ENDBRANCH  17  19
ENDBRANCH  16  17
ENDBRANCH   1  16
TORSDOF 3
ENDMDL
MODEL 6
REMARK VINA RESULT:      -6.6      2.252      4.937
REMARK  Name = 
REMARK  4 active torsions:
REMARK  status: ('A' for Active; 'I' for Inactive)
REMARK    1  A    between atoms: C_2  and  C_3
REMARK    2  A    between atoms: C_3  and  C_4
REMARK    3  A    between atoms: C_4  and  N_5
REMARK    4  A    between atoms: N_11  and  C_12
REMARK                            x       y       z     vdW  Elec       q    Type
REMARK                         _______ _______ _______ _____ _____    ______ ____
ROOT
ATOM      1  N   UNL     1       3.157   4.769  20.078  0.00  0.00    +0.000 N 
ATOM      2  C   UNL     1       3.995   3.848  19.397  0.00  0.00    +0.000 A 
ATOM      3  O   UNL     1       4.201   2.707  19.812  0.00  0.00    +0.000 OA
ATOM      4  C   UNL     1       4.600   4.331  18.165  0.00  0.00    +0.000 A 
ATOM      5  N   UNL     1       5.497   3.643  17.381  0.00  0.00    +0.000 NA
ATOM      6  C   UNL     1       5.751   4.446  16.379  0.00  0.00    +0.000 A 
ATOM      7  N   UNL     1       5.056   5.625  16.478  0.00  0.00    +0.000 N 
ATOM      8  C   UNL     1       5.137   6.667  15.487  0.00  0.00    +0.000 C 
ATOM      9  C   UNL     1       4.317   5.574  17.637  0.00  0.00    +0.000 A 
ATOM     10  C   UNL     1       3.395   6.500  18.287  0.00  0.00    +0.000 A 
ATOM     11  C   UNL     1       3.056   7.752  17.754  0.00  0.00    +0.000 A 
ATOM     12  C   UNL     1       2.154   8.587  18.409  0.00  0.00    +0.000 A 
ATOM     13  C   UNL     1       1.584   8.181  19.605  0.00  0.00    +0.000 A 
ATOM     14  C   UNL     1       1.916   6.941  20.160  0.00  0.00    +0.000 A 
ATOM     15  C   UNL     1       2.820   6.072  19.523  0.00  0.00    +0.000 A 
ENDROOT
BRANCH   1  16
ATOM     16  C   UNL     1       2.580   4.275  21.334  0.00  0.00    +0.000 C 
BRANCH  16  17
ATOM     17  C   UNL     1       1.537   3.159  21.134  0.00  0.00    +0.000 C 
BRANCH  17  19
ATOM     18  C   UNL     1       0.641   2.553  18.869  0.00  0.00    +0.000 C 
ATOM     19  C   UNL     1       0.697   3.395  19.908  0.00  0.00    +0.000 C 
ENDBRANCH  17  19
ENDBRANCH  16  17
ENDBRANCH   1  16
TORSDOF 3
ENDMDL
MODEL 7
REMARK VINA RESULT:      -6.6      1.760      1.992
REMARK  Name = 
REMARK  4 active torsions:
REMARK  status: ('A' for Active; 'I' for Inactive)
REMARK    1  A    between atoms: C_2  and  C_3
REMARK    2  A    between atoms: C_3  and  C_4
REMARK    3  A    between atoms: C_4  and  N_5
REMARK    4  A    between atoms: N_11  and  C_12
REMARK                            x       y       z     vdW  Elec       q    Type
REMARK                         _______ _______ _______ _____ _____    ______ ____
ROOT
ATOM      1  N   UNL     1       4.101   5.509  17.331  0.00  0.00    +0.000 N 
ATOM      2  C   UNL     1       4.390   4.124  17.216  0.00  0.00    +0.000 A 
ATOM      3  O   UNL     1       5.205   3.681  16.407  0.00  0.00    +0.000 OA
ATOM      4  C   UNL     1       3.663   3.247  18.122  0.00  0.00    +0.000 A 
ATOM      5  N   UNL     1       3.727   1.873  18.142  0.00  0.00    +0.000 NA
ATOM      6  C   UNL     1       2.934   1.515  19.120  0.00  0.00    +0.000 A 
ATOM      7  N   UNL     1       2.359   2.597  19.736  0.00  0.00    +0.000 N 
ATOM      8  C   UNL     1       1.468   2.475  20.860  0.00  0.00    +0.000 C 
ATOM      9  C   UNL     1       2.808   3.727  19.093  0.00  0.00    +0.000 A 
ATOM     10  C   UNL     1       2.563   5.154  19.273  0.00  0.00    +0.000 A 
ATOM     11  C   UNL     1       1.733   5.675  20.276  0.00  0.00    +0.000 A 
ATOM     12  C   UNL     1       1.551   7.049  20.413  0.00  0.00    +0.000 A 
ATOM     13  C   UNL     1       2.196   7.917  19.547  0.00  0.00    +0.000 A 
ATOM     14  C   UNL     1       3.020   7.420  18.532  0.00  0.00    +0.000 A 
ATOM     15  C   UNL     1       3.227   6.039  18.368  0.00  0.00    +0.000 A 
ENDROOT
BRANCH   1  16
ATOM     16  C   UNL     1       4.821   6.375  16.389  0.00  0.00    +0.000 C 
BRANCH  16  17
ATOM     17  C   UNL     1       5.941   7.203  17.049  0.00  0.00    +0.000 C 
BRANCH  17  19
ATOM     18  C   UNL     1       7.584   5.850  18.378  0.00  0.00    +0.000 C 
ATOM     19  C   UNL     1       7.200   6.399  17.219  0.00  0.00    +0.000 C 
ENDBRANCH  17  19
ENDBRANCH  16  17
ENDBRANCH   1  16
TORSDOF 3
ENDMDL
MODEL 8
REMARK VINA RESULT:      -6.5      2.065      4.048
REMARK  Name = 
REMARK  4 active torsions:
REMARK  status: ('A' for Active; 'I' for Inactive)
REMARK    1  A    between atoms: C_2  and  C_3
REMARK    2  A    between atoms: C_3  and  C_4
REMARK    3  A    between atoms: C_4  and  N_5
REMARK    4  A    between atoms: N_11  and  C_12
REMARK                            x       y       z     vdW  Elec       q    Type
REMARK                         _______ _______ _______ _____ _____    ______ ____
ROOT
ATOM      1  N   UNL     1       4.564   4.989  17.633  0.00  0.00    +0.000 N 
ATOM      2  C   UNL     1       4.234   6.291  17.173  0.00  0.00    +0.000 A 
ATOM      3  O   UNL     1       4.667   6.750  16.116  0.00  0.00    +0.000 OA
ATOM      4  C   UNL     1       3.341   7.058  18.028  0.00  0.00    +0.000 A 
ATOM      5  N   UNL     1       2.944   8.360  17.821  0.00  0.00    +0.000 NA
ATOM      6  C   UNL     1       2.137   8.626  18.817  0.00  0.00    +0.000 A 
ATOM      7  N   UNL     1       1.992   7.553  19.660  0.00  0.00    +0.000 N 
ATOM      8  C   UNL     1       1.135   7.578  20.817  0.00  0.00    +0.000 C 
ATOM      9  C   UNL     1       2.777   6.534  19.173  0.00  0.00    +0.000 A 
ATOM     10  C   UNL     1       3.047   5.170  19.614  0.00  0.00    +0.000 A 
ATOM     11  C   UNL     1       2.458   4.595  20.750  0.00  0.00    +0.000 A 
ATOM     12  C   UNL     1       2.737   3.280  21.113  0.00  0.00    +0.000 A 
ATOM     13  C   UNL     1       3.612   2.526  20.347  0.00  0.00    +0.000 A 
ATOM     14  C   UNL     1       4.220   3.083  19.217  0.00  0.00    +0.000 A 
ATOM     15  C   UNL     1       3.957   4.406  18.821  0.00  0.00    +0.000 A 
ENDROOT
BRANCH   1  16
ATOM     16  C   UNL     1       5.490   4.242  16.774  0.00  0.00    +0.000 C 
BRANCH  16  17
ATOM     17  C   UNL     1       6.914   4.831  16.747  0.00  0.00    +0.000 C 
BRANCH  17  19
ATOM     18  C   UNL     1       7.761   5.925  18.841  0.00  0.00    +0.000 C 
ATOM     19  C   UNL     1       7.546   4.823  18.112  0.00  0.00    +0.000 C 
ENDBRANCH  17  19
ENDBRANCH  16  17
ENDBRANCH   1  16
TORSDOF 3
ENDMDL
MODEL 9
REMARK VINA RESULT:      -6.5      2.450      4.372
REMARK  Name = 
REMARK  4 active torsions:
REMARK  status: ('A' for Active; 'I' for Inactive)
REMARK    1  A    between atoms: C_2  and  C_3
REMARK    2  A    between atoms: C_3  and  C_4
REMARK    3  A    between atoms: C_4  and  N_5
REMARK    4  A    between atoms: N_11  and  C_12
REMARK                            x       y       z     vdW  Elec       q    Type
REMARK                         _______ _______ _______ _____ _____    ______ ____
ROOT
ATOM      1  N   UNL     1       4.201   4.974  17.934  0.00  0.00    +0.000 N 
ATOM      2  C   UNL     1       3.953   6.274  17.422  0.00  0.00    +0.000 A 
ATOM      3  O   UNL     1       4.413   6.662  16.347  0.00  0.00    +0.000 OA
ATOM      4  C   UNL     1       3.112   7.131  18.243  0.00  0.00    +0.000 A 
ATOM      5  N   UNL     1       2.798   8.445  17.984  0.00  0.00    +0.000 NA
ATOM      6  C   UNL     1       2.011   8.802  18.967  0.00  0.00    +0.000 A 
ATOM      7  N   UNL     1       1.800   7.775  19.853  0.00  0.00    +0.000 N 
ATOM      8  C   UNL     1       0.949   7.901  21.007  0.00  0.00    +0.000 C 
ATOM      9  C   UNL     1       2.518   6.690  19.408  0.00  0.00    +0.000 A 
ATOM     10  C   UNL     1       2.702   5.330  19.905  0.00  0.00    +0.000 A 
ATOM     11  C   UNL     1       2.079   4.840  21.062  0.00  0.00    +0.000 A 
ATOM     12  C   UNL     1       2.276   3.526  21.479  0.00  0.00    +0.000 A 
ATOM     13  C   UNL     1       3.100   2.688  20.744  0.00  0.00    +0.000 A 
ATOM     14  C   UNL     1       3.740   3.159  19.593  0.00  0.00    +0.000 A 
ATOM     15  C   UNL     1       3.560   4.479  19.144  0.00  0.00    +0.000 A 
ENDROOT
BRANCH   1  16
ATOM     16  C   UNL     1       5.077   4.135  17.107  0.00  0.00    +0.000 C 
BRANCH  16  17
ATOM     17  C   UNL     1       6.564   4.529  17.192  0.00  0.00    +0.000 C 
BRANCH  17  19
ATOM     18  C   UNL     1       6.559   4.312  14.692  0.00  0.00    +0.000 C 
ATOM     19  C   UNL     1       7.200   4.601  15.831  0.00  0.00    +0.000 C 
ENDBRANCH  17  19
ENDBRANCH  16  17
ENDBRANCH   1  16
TORSDOF 3
ENDMDL
