MODEL 1
REMARK VINA RESULT:      -4.4      0.000      0.000
REMARK  Name = 
REMARK  4 active torsions:
REMARK  status: ('A' for Active; 'I' for Inactive)
REMARK    1  A    between atoms: C_1  and  C_2
REMARK    2  A    between atoms: C_3  and  C_4
REMARK    3  A    between atoms: C_4  and  C_6
REMARK    4  A    between atoms: C_6  and  C_7
REMARK                            x       y       z     vdW  Elec       q    Type
REMARK                         _______ _______ _______ _____ _____    ______ ____
ROOT
ATOM      1  C   UNL     1       8.466   4.512  27.648  0.00  0.00    +0.000 C 
ATOM      2  O   UNL     1       7.593   3.783  27.183  0.00  0.00    +0.000 OA
ENDROOT
BRANCH   1   5
ATOM      3  C   UNL     1      12.311   4.560  28.040  0.00  0.00    +0.000 C 
ATOM      4  C   UNL     1      10.847   4.802  28.199  0.00  0.00    +0.000 C 
ATOM      5  C   UNL     1       9.913   4.207  27.442  0.00  0.00    +0.000 C 
ENDBRANCH   1   5
BRANCH   1   6
ATOM      6  C   UNL     1       8.161   5.744  28.477  0.00  0.00    +0.000 C 
ATOM      7  C   UNL     1       6.669   6.000  28.601  0.00  0.00    +0.000 C 
ENDBRANCH   1   6
TORSDOF 2
ENDMDL
MODEL 2
REMARK VINA RESULT:      -4.4      0.761      1.055
REMARK  Name = 
REMARK  4 active torsions:
REMARK  status: ('A' for Active; 'I' for Inactive)
REMARK    1  A    between atoms: C_1  and  C_2
REMARK    2  A    between atoms: C_3  and  C_4
REMARK    3  A    between atoms: C_4  and  C_6
REMARK    4  A    between atoms: C_6  and  C_7
REMARK                            x       y       z     vdW  Elec       q    Type
REMARK                         _______ _______ _______ _____ _____    ______ ____
ROOT
ATOM      1  C   UNL     1       7.707   4.633  27.611  0.00  0.00    +0.000 C 
ATOM      2  O   UNL     1       7.586   3.651  26.883  0.00  0.00    +0.000 OA
ENDROOT
BRANCH   1   5
ATOM      3  C   UNL     1      11.542   4.888  28.026  0.00  0.00    +0.000 C 
ATOM      4  C   UNL     1      10.165   4.495  27.607  0.00  0.00    +0.000 C 
ATOM      5  C   UNL     1       9.055   5.093  28.063  0.00  0.00    +0.000 C 
ENDBRANCH   1   5
BRANCH   1   6
ATOM      6  C   UNL     1       6.527   5.432  28.129  0.00  0.00    +0.000 C 
ATOM      7  C   UNL     1       6.947   6.778  28.693  0.00  0.00    +0.000 C 
ENDBRANCH   1   6
TORSDOF 2
ENDMDL
MODEL 3
REMARK VINA RESULT:      -4.1     13.460     14.120
REMARK  Name = 
REMARK  4 active torsions:
REMARK  status: ('A' for Active; 'I' for Inactive)
REMARK    1  A    between atoms: C_1  and  C_2
REMARK    2  A    between atoms: C_3  and  C_4
REMARK    3  A    between atoms: C_4  and  C_6
REMARK    4  A    between atoms: C_6  and  C_7
REMARK                            x       y       z     vdW  Elec       q    Type
REMARK                         _______ _______ _______ _____ _____    ______ ____
ROOT
ATOM      1  C   UNL     1       6.874   4.718  14.923  0.00  0.00    +0.000 C 
ATOM      2  O   UNL     1       7.805   5.397  14.496  0.00  0.00    +0.000 OA
ENDROOT
BRANCH   1   5
ATOM      3  C   UNL     1       5.187   3.074  11.858  0.00  0.00    +0.000 C 
ATOM      4  C   UNL     1       6.176   3.615  12.836  0.00  0.00    +0.000 C 
ATOM      5  C   UNL     1       5.828   4.181  14.001  0.00  0.00    +0.000 C 
ENDBRANCH   1   5
BRANCH   1   6
ATOM      6  C   UNL     1       6.689   4.395  16.393  0.00  0.00    +0.000 C 
ATOM      7  C   UNL     1       5.234   4.146  16.748  0.00  0.00    +0.000 C 
ENDBRANCH   1   6
TORSDOF 2
ENDMDL
MODEL 4
REMARK VINA RESULT:      -4.1     16.868     17.660
REMARK  Name = 
REMARK  4 active torsions:
REMARK  status: ('A' for Active; 'I' for Inactive)
REMARK    1  A    between atoms: C_1  and  C_2
REMARK    2  A    between atoms: C_3  and  C_4
REMARK    3  A    between atoms: C_4  and  C_6
REMARK    4  A    between atoms: C_6  and  C_7
REMARK                            x       y       z     vdW  Elec       q    Type
REMARK                         _______ _______ _______ _____ _____    ______ ____
ROOT
ATOM      1  C   UNL     1       5.171   2.718  11.733  0.00  0.00    +0.000 C 
ATOM      2  O   UNL     1       5.562   1.626  11.328  0.00  0.00    +0.000 OA
ENDROOT
BRANCH   1   5
ATOM      3  C   UNL     1       2.551   4.427   9.462  0.00  0.00    +0.000 C 
ATOM      4  C   UNL     1       3.795   3.811  10.010  0.00  0.00    +0.000 C 
ATOM      5  C   UNL     1       3.885   3.303  11.247  0.00  0.00    +0.000 C 
ENDBRANCH   1   5
BRANCH   1   6
ATOM      6  C   UNL     1       5.952   3.565  12.719  0.00  0.00    +0.000 C 
ATOM      7  C   UNL     1       7.162   4.223  12.079  0.00  0.00    +0.000 C 
ENDBRANCH   1   6
TORSDOF 2
ENDMDL
MODEL 5
REMARK VINA RESULT:      -4.1     11.214     11.856
REMARK  Name = 
REMARK  4 active torsions:
REMARK  status: ('A' for Active; 'I' for Inactive)
REMARK    1  A    between atoms: C_1  and  C_2
REMARK    2  A    between atoms: C_3  and  C_4
REMARK    3  A    between atoms: C_4  and  C_6
REMARK    4  A    between atoms: C_6  and  C_7
REMARK                            x       y       z     vdW  Elec       q    Type
REMARK                         _______ _______ _______ _____ _____    ______ ____
ROOT
ATOM      1  C   UNL     1       7.379   4.764  17.502  0.00  0.00    +0.000 C 
ATOM      2  O   UNL     1       8.389   4.116  17.764  0.00  0.00    +0.000 OA
ENDROOT
BRANCH   1   5
ATOM      3  C   UNL     1       5.943   4.096  13.976  0.00  0.00    +0.000 C 
ATOM      4  C   UNL     1       6.818   4.480  15.123  0.00  0.00    +0.000 C 
ATOM      5  C   UNL     1       6.456   4.341  16.406  0.00  0.00    +0.000 C 
ENDBRANCH   1   5
BRANCH   1   6
ATOM      6  C   UNL     1       6.999   6.040  18.230  0.00  0.00    +0.000 C 
ATOM      7  C   UNL     1       7.581   7.275  17.567  0.00  0.00    +0.000 C 
ENDBRANCH   1   6
TORSDOF 2
ENDMDL
MODEL 6
REMARK VINA RESULT:      -4.0      0.906      3.871
REMARK  Name = 
REMARK  4 active torsions:
REMARK  status: ('A' for Active; 'I' for Inactive)
REMARK    1  A    between atoms: C_1  and  C_2
REMARK    2  A    between atoms: C_3  and  C_4
REMARK    3  A    between atoms: C_4  and  C_6
REMARK    4  A    between atoms: C_6  and  C_7
REMARK                            x       y       z     vdW  Elec       q    Type
REMARK                         _______ _______ _______ _____ _____    ______ ____
ROOT
ATOM      1  C   UNL     1       8.954   4.540  27.739  0.00  0.00    +0.000 C 
ATOM      2  O   UNL     1       8.466   3.680  27.010  0.00  0.00    +0.000 OA
ENDROOT
BRANCH   1   5
ATOM      3  C   UNL     1       5.872   6.666  28.700  0.00  0.00    +0.000 C 
ATOM      4  C   UNL     1       6.777   5.607  28.164  0.00  0.00    +0.000 C 
ATOM      5  C   UNL     1       8.109   5.627  28.318  0.00  0.00    +0.000 C 
ENDBRANCH   1   5
BRANCH   1   6
ATOM      6  C   UNL     1      10.429   4.593  28.085  0.00  0.00    +0.000 C 
ATOM      7  C   UNL     1      11.096   3.233  27.971  0.00  0.00    +0.000 C 
ENDBRANCH   1   6
TORSDOF 2
ENDMDL
MODEL 7
REMARK VINA RESULT:      -3.9     15.689     16.250
REMARK  Name = 
REMARK  4 active torsions:
REMARK  status: ('A' for Active; 'I' for Inactive)
REMARK    1  A    between atoms: C_1  and  C_2
REMARK    2  A    between atoms: C_3  and  C_4
REMARK    3  A    between atoms: C_4  and  C_6
REMARK    4  A    between atoms: C_6  and  C_7
REMARK                            x       y       z     vdW  Elec       q    Type
REMARK                         _______ _______ _______ _____ _____    ______ ____
ROOT
ATOM      1  C   UNL     1       5.345   2.854  11.809  0.00  0.00    +0.000 C 
ATOM      2  O   UNL     1       5.581   1.732  11.370  0.00  0.00    +0.000 OA
ENDROOT
BRANCH   1   5
ATOM      3  C   UNL     1       6.951   4.711  14.795  0.00  0.00    +0.000 C 
ATOM      4  C   UNL     1       6.015   3.974  13.896  0.00  0.00    +0.000 C 
ATOM      5  C   UNL     1       6.342   3.572  12.659  0.00  0.00    +0.000 C 
ENDBRANCH   1   5
BRANCH   1   6
ATOM      6  C   UNL     1       4.040   3.585  11.560  0.00  0.00    +0.000 C 
ATOM      7  C   UNL     1       3.344   3.104  10.299  0.00  0.00    +0.000 C 
ENDBRANCH   1   6
TORSDOF 2
ENDMDL
MODEL 8
REMARK VINA RESULT:      -3.9     10.422     10.846
REMARK  Name = 
REMARK  4 active torsions:
REMARK  status: ('A' for Active; 'I' for Inactive)
REMARK    1  A    between atoms: C_1  and  C_2
REMARK    2  A    between atoms: C_3  and  C_4
REMARK    3  A    between atoms: C_4  and  C_6
REMARK    4  A    between atoms: C_6  and  C_7
REMARK                            x       y       z     vdW  Elec       q    Type
REMARK                         _______ _______ _______ _____ _____    ______ ____
ROOT
ATOM      1  C   UNL     1       7.104   6.497  17.188  0.00  0.00    +0.000 C 
ATOM      2  O   UNL     1       7.511   6.108  16.096  0.00  0.00    +0.000 OA
ENDROOT
BRANCH   1   5
ATOM      3  C   UNL     1       8.756   9.734  18.505  0.00  0.00    +0.000 C 
ATOM      4  C   UNL     1       7.955   8.742  17.729  0.00  0.00    +0.000 C 
ATOM      5  C   UNL     1       7.915   7.434  18.022  0.00  0.00    +0.000 C 
ENDBRANCH   1   5
BRANCH   1   6
ATOM      6  C   UNL     1       5.785   6.050  17.789  0.00  0.00    +0.000 C 
ATOM      7  C   UNL     1       5.980   5.176  19.016  0.00  0.00    +0.000 C 
ENDBRANCH   1   6
TORSDOF 2
ENDMDL
MODEL 9
REMARK VINA RESULT:      -3.9     12.437     13.024
REMARK  Name = 
REMARK  4 active torsions:
REMARK  status: ('A' for Active; 'I' for Inactive)
REMARK    1  A    between atoms: C_1  and  C_2
REMARK    2  A    between atoms: C_3  and  C_4
REMARK    3  A    between atoms: C_4  and  C_6
REMARK    4  A    between atoms: C_6  and  C_7
REMARK                            x       y       z     vdW  Elec       q    Type
REMARK                         _______ _______ _______ _____ _____    ______ ____
ROOT
ATOM      1  C   UNL     1       6.927   4.894  16.333  0.00  0.00    +0.000 C 
ATOM      2  O   UNL     1       7.940   4.371  16.788  0.00  0.00    +0.000 OA
ENDROOT
BRANCH   1   5
ATOM      3  C   UNL     1       5.882   3.579  12.851  0.00  0.00    +0.000 C 
ATOM      4  C   UNL     1       6.616   4.203  13.991  0.00  0.00    +0.000 C 
ATOM      5  C   UNL     1       6.143   4.235  15.245  0.00  0.00    +0.000 C 
ENDBRANCH   1   5
BRANCH   1   6
ATOM      6  C   UNL     1       6.406   6.239  16.802  0.00  0.00    +0.000 C 
ATOM      7  C   UNL     1       4.968   6.479  16.377  0.00  0.00    +0.000 C 
ENDBRANCH   1   6
TORSDOF 2
ENDMDL
