MODEL 1
REMARK VINA RESULT:      -7.8      0.000      0.000
REMARK  Name = 
REMARK  5 active torsions:
REMARK  status: ('A' for Active; 'I' for Inactive)
REMARK    1  A    between atoms: C_1  and  N_2
REMARK    2  A    between atoms: N_2  and  C_3
REMARK    3  A    between atoms: C_3  and  C_4
REMARK    4  A    between atoms: C_12  and  O_13
REMARK    5  A    between atoms: O_13  and  C_14
REMARK                            x       y       z     vdW  Elec       q    Type
REMARK                         _______ _______ _______ _____ _____    ______ ____
ROOT
ATOM      1  C   UNL     1       4.195   5.887  18.448  0.00  0.00    +0.000 C 
ATOM      2  C   UNL     1       3.567   4.922  17.416  0.00  0.00    +0.000 C 
ATOM      3  C   UNL     1       2.538   4.223  18.245  0.00  0.00    +0.000 A 
ATOM      4  C   UNL     1       1.958   2.987  18.018  0.00  0.00    +0.000 A 
ATOM      5  C   UNL     1       1.027   2.515  18.945  0.00  0.00    +0.000 A 
ATOM      6  C   UNL     1       0.681   3.286  20.065  0.00  0.00    +0.000 A 
ATOM      7  C   UNL     1       1.260   4.542  20.273  0.00  0.00    +0.000 A 
ATOM      8  C   UNL     1       2.196   4.998  19.357  0.00  0.00    +0.000 A 
ATOM      9  C   UNL     1       3.026   6.262  19.410  0.00  0.00    +0.000 C 
ENDROOT
BRANCH   1  10
ATOM     10  C   UNL     1       5.364   5.263  19.243  0.00  0.00    +0.000 C 
BRANCH  10  12
ATOM     11  C   UNL     1       7.331   4.740  17.939  0.00  0.00    +0.000 C 
ATOM     12  N   UNL     1       6.061   4.245  18.451  0.00  0.00    +0.000 NA
ATOM     13  H   UNL     1       6.248   3.426  19.028  0.00  0.00    +0.000 HD
ENDBRANCH  10  12
ENDBRANCH   1  10
BRANCH   9  14
ATOM     14  O   UNL     1       2.263   7.368  18.907  0.00  0.00    +0.000 OA
BRANCH  14  15
ATOM     15  C   UNL     1       1.658   8.153  19.872  0.00  0.00    +0.000 A 
ATOM     16  C   UNL     1       1.905   7.977  21.239  0.00  0.00    +0.000 A 
ATOM     17  C   UNL     1       1.298   8.804  22.180  0.00  0.00    +0.000 A 
ATOM     18  C   UNL     1       0.424   9.804  21.768  0.00  0.00    +0.000 A 
ATOM     19  C   UNL     1       0.142   9.995  20.409  0.00  0.00    +0.000 A 
ATOM     20  C   UNL     1      -0.735  11.017  20.013  0.00  0.00    +0.000 A 
ATOM     21  C   UNL     1      -1.018  11.237  18.666  0.00  0.00    +0.000 A 
ATOM     22  C   UNL     1      -0.439  10.418  17.701  0.00  0.00    +0.000 A 
ATOM     23  C   UNL     1       0.432   9.391  18.080  0.00  0.00    +0.000 A 
ATOM     24  C   UNL     1       0.751   9.157  19.437  0.00  0.00    +0.000 A 
ENDBRANCH  14  15
ENDBRANCH   9  14
TORSDOF 4
ENDMDL
MODEL 2
REMARK VINA RESULT:      -7.7      1.016      1.026
REMARK  Name = 
REMARK  5 active torsions:
REMARK  status: ('A' for Active; 'I' for Inactive)
REMARK    1  A    between atoms: C_1  and  N_2
REMARK    2  A    between atoms: N_2  and  C_3
REMARK    3  A    between atoms: C_3  and  C_4
REMARK    4  A    between atoms: C_12  and  O_13
REMARK    5  A    between atoms: O_13  and  C_14
REMARK                            x       y       z     vdW  Elec       q    Type
REMARK                         _______ _______ _______ _____ _____    ______ ____
ROOT
ATOM      1  C   UNL     1       4.288   5.753  18.345  0.00  0.00    +0.000 C 
ATOM      2  C   UNL     1       3.742   4.762  17.290  0.00  0.00    +0.000 C 
ATOM      3  C   UNL     1       2.711   4.021  18.078  0.00  0.00    +0.000 A 
ATOM      4  C   UNL     1       2.192   2.763  17.830  0.00  0.00    +0.000 A 
ATOM      5  C   UNL     1       1.244   2.252  18.720  0.00  0.00    +0.000 A 
ATOM      6  C   UNL     1       0.822   3.009  19.823  0.00  0.00    +0.000 A 
ATOM      7  C   UNL     1       1.340   4.288  20.053  0.00  0.00    +0.000 A 
ATOM      8  C   UNL     1       2.292   4.782  19.174  0.00  0.00    +0.000 A 
ATOM      9  C   UNL     1       3.066   6.080  19.257  0.00  0.00    +0.000 C 
ENDROOT
BRANCH   1  10
ATOM     10  C   UNL     1       5.448   5.178  19.188  0.00  0.00    +0.000 C 
BRANCH  10  12
ATOM     11  C   UNL     1       7.450   4.740  17.906  0.00  0.00    +0.000 C 
ATOM     12  N   UNL     1       6.212   4.182  18.430  0.00  0.00    +0.000 NA
ATOM     13  H   UNL     1       6.448   3.396  19.033  0.00  0.00    +0.000 HD
ENDBRANCH  10  12
ENDBRANCH   1  10
BRANCH   9  14
ATOM     14  O   UNL     1       2.279   7.152  18.722  0.00  0.00    +0.000 OA
BRANCH  14  15
ATOM     15  C   UNL     1       1.752   8.022  19.660  0.00  0.00    +0.000 A 
ATOM     16  C   UNL     1       1.319   7.587  20.919  0.00  0.00    +0.000 A 
ATOM     17  C   UNL     1       0.819   8.495  21.848  0.00  0.00    +0.000 A 
ATOM     18  C   UNL     1       0.726   9.844  21.523  0.00  0.00    +0.000 A 
ATOM     19  C   UNL     1       1.134  10.308  20.265  0.00  0.00    +0.000 A 
ATOM     20  C   UNL     1       1.043  11.676  19.962  0.00  0.00    +0.000 A 
ATOM     21  C   UNL     1       1.457  12.164  18.724  0.00  0.00    +0.000 A 
ATOM     22  C   UNL     1       1.949  11.280  17.768  0.00  0.00    +0.000 A 
ATOM     23  C   UNL     1       2.040   9.913  18.053  0.00  0.00    +0.000 A 
ATOM     24  C   UNL     1       1.644   9.394  19.306  0.00  0.00    +0.000 A 
ENDBRANCH  14  15
ENDBRANCH   9  14
TORSDOF 4
ENDMDL
MODEL 3
REMARK VINA RESULT:      -7.7      1.432      3.921
REMARK  Name = 
REMARK  5 active torsions:
REMARK  status: ('A' for Active; 'I' for Inactive)
REMARK    1  A    between atoms: C_1  and  N_2
REMARK    2  A    between atoms: N_2  and  C_3
REMARK    3  A    between atoms: C_3  and  C_4
REMARK    4  A    between atoms: C_12  and  O_13
REMARK    5  A    between atoms: O_13  and  C_14
REMARK                            x       y       z     vdW  Elec       q    Type
REMARK                         _______ _______ _______ _____ _____    ______ ____
ROOT
ATOM      1  C   UNL     1       2.164   5.098  19.076  0.00  0.00    +0.000 C 
ATOM      2  C   UNL     1       3.486   4.527  19.641  0.00  0.00    +0.000 C 
ATOM      3  C   UNL     1       4.496   5.154  18.735  0.00  0.00    +0.000 A 
ATOM      4  C   UNL     1       5.781   4.719  18.462  0.00  0.00    +0.000 A 
ATOM      5  C   UNL     1       6.549   5.456  17.558  0.00  0.00    +0.000 A 
ATOM      6  C   UNL     1       6.031   6.615  16.961  0.00  0.00    +0.000 A 
ATOM      7  C   UNL     1       4.738   7.056  17.260  0.00  0.00    +0.000 A 
ATOM      8  C   UNL     1       3.975   6.311  18.147  0.00  0.00    +0.000 A 
ATOM      9  C   UNL     1       2.532   6.520  18.554  0.00  0.00    +0.000 C 
ENDROOT
BRANCH   1  10
ATOM     10  C   UNL     1       1.565   4.246  17.934  0.00  0.00    +0.000 C 
BRANCH  10  12
ATOM     11  C   UNL     1       0.687   2.208  18.893  0.00  0.00    +0.000 C 
ATOM     12  N   UNL     1       1.790   2.815  18.164  0.00  0.00    +0.000 NA
ATOM     13  H   UNL     1       1.886   2.333  17.272  0.00  0.00    +0.000 HD
ENDBRANCH  10  12
ENDBRANCH   1  10
BRANCH   9  14
ATOM     14  O   UNL     1       2.458   7.502  19.597  0.00  0.00    +0.000 OA
BRANCH  14  15
ATOM     15  C   UNL     1       1.581   8.545  19.363  0.00  0.00    +0.000 A 
ATOM     16  C   UNL     1       1.326   9.030  18.073  0.00  0.00    +0.000 A 
ATOM     17  C   UNL     1       0.416  10.065  17.873  0.00  0.00    +0.000 A 
ATOM     18  C   UNL     1      -0.234  10.639  18.959  0.00  0.00    +0.000 A 
ATOM     19  C   UNL     1       0.011  10.190  20.263  0.00  0.00    +0.000 A 
ATOM     20  C   UNL     1      -0.665  10.776  21.344  0.00  0.00    +0.000 A 
ATOM     21  C   UNL     1      -0.450  10.334  22.648  0.00  0.00    +0.000 A 
ATOM     22  C   UNL     1       0.464   9.312  22.884  0.00  0.00    +0.000 A 
ATOM     23  C   UNL     1       1.151   8.721  21.817  0.00  0.00    +0.000 A 
ATOM     24  C   UNL     1       0.938   9.137  20.483  0.00  0.00    +0.000 A 
ENDBRANCH  14  15
ENDBRANCH   9  14
TORSDOF 4
ENDMDL
MODEL 4
REMARK VINA RESULT:      -7.4      2.597      6.834
REMARK  Name = 
REMARK  5 active torsions:
REMARK  status: ('A' for Active; 'I' for Inactive)
REMARK    1  A    between atoms: C_1  and  N_2
REMARK    2  A    between atoms: N_2  and  C_3
REMARK    3  A    between atoms: C_3  and  C_4
REMARK    4  A    between atoms: C_12  and  O_13
REMARK    5  A    between atoms: O_13  and  C_14
REMARK                            x       y       z     vdW  Elec       q    Type
REMARK                         _______ _______ _______ _____ _____    ______ ____
ROOT
ATOM      1  C   UNL     1       0.512  10.006  18.463  0.00  0.00    +0.000 C 
ATOM      2  C   UNL     1       0.772  11.316  19.243  0.00  0.00    +0.000 C 
ATOM      3  C   UNL     1       0.227  10.975  20.593  0.00  0.00    +0.000 A 
ATOM      4  C   UNL     1      -0.209  11.842  21.579  0.00  0.00    +0.000 A 
ATOM      5  C   UNL     1      -0.705  11.297  22.765  0.00  0.00    +0.000 A 
ATOM      6  C   UNL     1      -0.739   9.907  22.952  0.00  0.00    +0.000 A 
ATOM      7  C   UNL     1      -0.276   9.041  21.956  0.00  0.00    +0.000 A 
ATOM      8  C   UNL     1       0.200   9.588  20.774  0.00  0.00    +0.000 A 
ATOM      9  C   UNL     1       0.659   8.872  19.522  0.00  0.00    +0.000 C 
ENDROOT
BRANCH   1  10
ATOM     10  C   UNL     1      -0.885   9.948  17.806  0.00  0.00    +0.000 C 
BRANCH  10  12
ATOM     11  C   UNL     1      -2.680  11.564  17.917  0.00  0.00    +0.000 C 
ATOM     12  N   UNL     1      -1.343  11.285  17.412  0.00  0.00    +0.000 NA
ATOM     13  H   UNL     1      -0.709  11.990  17.783  0.00  0.00    +0.000 HD
ENDBRANCH  10  12
ENDBRANCH   1  10
BRANCH   9  14
ATOM     14  O   UNL     1       2.025   8.460  19.670  0.00  0.00    +0.000 OA
BRANCH  14  15
ATOM     15  C   UNL     1       2.232   7.092  19.664  0.00  0.00    +0.000 A 
ATOM     16  C   UNL     1       1.646   6.245  20.613  0.00  0.00    +0.000 A 
ATOM     17  C   UNL     1       1.856   4.870  20.560  0.00  0.00    +0.000 A 
ATOM     18  C   UNL     1       2.669   4.328  19.570  0.00  0.00    +0.000 A 
ATOM     19  C   UNL     1       3.284   5.149  18.617  0.00  0.00    +0.000 A 
ATOM     20  C   UNL     1       4.091   4.580  17.619  0.00  0.00    +0.000 A 
ATOM     21  C   UNL     1       4.700   5.375  16.650  0.00  0.00    +0.000 A 
ATOM     22  C   UNL     1       4.522   6.755  16.684  0.00  0.00    +0.000 A 
ATOM     23  C   UNL     1       3.726   7.338  17.676  0.00  0.00    +0.000 A 
ATOM     24  C   UNL     1       3.081   6.554  18.659  0.00  0.00    +0.000 A 
ENDBRANCH  14  15
ENDBRANCH   9  14
TORSDOF 4
ENDMDL
MODEL 5
REMARK VINA RESULT:      -7.3      2.981      6.029
REMARK  Name = 
REMARK  5 active torsions:
REMARK  status: ('A' for Active; 'I' for Inactive)
REMARK    1  A    between atoms: C_1  and  N_2
REMARK    2  A    between atoms: N_2  and  C_3
REMARK    3  A    between atoms: C_3  and  C_4
REMARK    4  A    between atoms: C_12  and  O_13
REMARK    5  A    between atoms: O_13  and  C_14
REMARK                            x       y       z     vdW  Elec       q    Type
REMARK                         _______ _______ _______ _____ _____    ______ ____
ROOT
ATOM      1  C   UNL     1       6.670   5.432  16.882  0.00  0.00    +0.000 C 
ATOM      2  C   UNL     1       7.289   6.202  15.692  0.00  0.00    +0.000 C 
ATOM      3  C   UNL     1       6.977   5.290  14.549  0.00  0.00    +0.000 A 
ATOM      4  C   UNL     1       7.617   5.210  13.325  0.00  0.00    +0.000 A 
ATOM      5  C   UNL     1       7.168   4.259  12.406  0.00  0.00    +0.000 A 
ATOM      6  C   UNL     1       6.085   3.423  12.717  0.00  0.00    +0.000 A 
ATOM      7  C   UNL     1       5.434   3.527  13.950  0.00  0.00    +0.000 A 
ATOM      8  C   UNL     1       5.895   4.462  14.865  0.00  0.00    +0.000 A 
ATOM      9  C   UNL     1       5.430   4.699  16.285  0.00  0.00    +0.000 C 
ENDROOT
BRANCH   1  10
ATOM     10  C   UNL     1       7.637   4.413  17.525  0.00  0.00    +0.000 C 
BRANCH  10  12
ATOM     11  C   UNL     1       6.960   5.587  19.527  0.00  0.00    +0.000 C 
ATOM     12  N   UNL     1       8.017   4.823  18.881  0.00  0.00    +0.000 NA
ATOM     13  H   UNL     1       8.209   4.000  19.450  0.00  0.00    +0.000 HD
ENDBRANCH  10  12
ENDBRANCH   1  10
BRANCH   9  14
ATOM     14  O   UNL     1       4.269   5.541  16.284  0.00  0.00    +0.000 OA
BRANCH  14  15
ATOM     15  C   UNL     1       3.592   5.614  17.488  0.00  0.00    +0.000 A 
ATOM     16  C   UNL     1       3.533   6.795  18.239  0.00  0.00    +0.000 A 
ATOM     17  C   UNL     1       2.820   6.839  19.434  0.00  0.00    +0.000 A 
ATOM     18  C   UNL     1       2.174   5.700  19.901  0.00  0.00    +0.000 A 
ATOM     19  C   UNL     1       2.228   4.499  19.183  0.00  0.00    +0.000 A 
ATOM     20  C   UNL     1       1.559   3.363  19.666  0.00  0.00    +0.000 A 
ATOM     21  C   UNL     1       1.585   2.162  18.961  0.00  0.00    +0.000 A 
ATOM     22  C   UNL     1       2.301   2.080  17.771  0.00  0.00    +0.000 A 
ATOM     23  C   UNL     1       2.978   3.202  17.279  0.00  0.00    +0.000 A 
ATOM     24  C   UNL     1       2.954   4.437  17.963  0.00  0.00    +0.000 A 
ENDBRANCH  14  15
ENDBRANCH   9  14
TORSDOF 4
ENDMDL
MODEL 6
REMARK VINA RESULT:      -7.3      2.783      5.798
REMARK  Name = 
REMARK  5 active torsions:
REMARK  status: ('A' for Active; 'I' for Inactive)
REMARK    1  A    between atoms: C_1  and  N_2
REMARK    2  A    between atoms: N_2  and  C_3
REMARK    3  A    between atoms: C_3  and  C_4
REMARK    4  A    between atoms: C_12  and  O_13
REMARK    5  A    between atoms: O_13  and  C_14
REMARK                            x       y       z     vdW  Elec       q    Type
REMARK                         _______ _______ _______ _____ _____    ______ ____
ROOT
ATOM      1  C   UNL     1       6.214   5.108  16.957  0.00  0.00    +0.000 C 
ATOM      2  C   UNL     1       6.516   6.111  15.819  0.00  0.00    +0.000 C 
ATOM      3  C   UNL     1       6.533   5.213  14.624  0.00  0.00    +0.000 A 
ATOM      4  C   UNL     1       7.151   5.431  13.405  0.00  0.00    +0.000 A 
ATOM      5  C   UNL     1       7.054   4.436  12.429  0.00  0.00    +0.000 A 
ATOM      6  C   UNL     1       6.333   3.259  12.680  0.00  0.00    +0.000 A 
ATOM      7  C   UNL     1       5.696   3.060  13.909  0.00  0.00    +0.000 A 
ATOM      8  C   UNL     1       5.810   4.044  14.879  0.00  0.00    +0.000 A 
ATOM      9  C   UNL     1       5.302   4.024  16.305  0.00  0.00    +0.000 C 
ENDROOT
BRANCH   1  10
ATOM     10  C   UNL     1       7.480   4.455  17.555  0.00  0.00    +0.000 C 
BRANCH  10  12
ATOM     11  C   UNL     1       8.027   6.228  19.105  0.00  0.00    +0.000 C 
ATOM     12  N   UNL     1       7.657   4.828  18.962  0.00  0.00    +0.000 NA
ATOM     13  H   UNL     1       6.788   4.675  19.471  0.00  0.00    +0.000 HD
ENDBRANCH  10  12
ENDBRANCH   1  10
BRANCH   9  14
ATOM     14  O   UNL     1       3.921   4.407  16.336  0.00  0.00    +0.000 OA
BRANCH  14  15
ATOM     15  C   UNL     1       3.197   3.916  17.408  0.00  0.00    +0.000 A 
ATOM     16  C   UNL     1       2.911   2.552  17.552  0.00  0.00    +0.000 A 
ATOM     17  C   UNL     1       2.202   2.091  18.658  0.00  0.00    +0.000 A 
ATOM     18  C   UNL     1       1.755   2.987  19.621  0.00  0.00    +0.000 A 
ATOM     19  C   UNL     1       2.008   4.360  19.498  0.00  0.00    +0.000 A 
ATOM     20  C   UNL     1       1.558   5.247  20.488  0.00  0.00    +0.000 A 
ATOM     21  C   UNL     1       1.812   6.613  20.395  0.00  0.00    +0.000 A 
ATOM     22  C   UNL     1       2.506   7.109  19.295  0.00  0.00    +0.000 A 
ATOM     23  C   UNL     1       2.956   6.239  18.297  0.00  0.00    +0.000 A 
ATOM     24  C   UNL     1       2.728   4.846  18.374  0.00  0.00    +0.000 A 
ENDBRANCH  14  15
ENDBRANCH   9  14
TORSDOF 4
ENDMDL
MODEL 7
REMARK VINA RESULT:      -7.1      1.964      3.881
REMARK  Name = 
REMARK  5 active torsions:
REMARK  status: ('A' for Active; 'I' for Inactive)
REMARK    1  A    between atoms: C_1  and  N_2
REMARK    2  A    between atoms: N_2  and  C_3
REMARK    3  A    between atoms: C_3  and  C_4
REMARK    4  A    between atoms: C_12  and  O_13
REMARK    5  A    between atoms: O_13  and  C_14
REMARK                            x       y       z     vdW  Elec       q    Type
REMARK                         _______ _______ _______ _____ _____    ______ ____
ROOT
ATOM      1  C   UNL     1       5.223   5.354  18.668  0.00  0.00    +0.000 C 
ATOM      2  C   UNL     1       6.261   6.189  17.881  0.00  0.00    +0.000 C 
ATOM      3  C   UNL     1       6.222   5.531  16.539  0.00  0.00    +0.000 A 
ATOM      4  C   UNL     1       7.197   5.540  15.558  0.00  0.00    +0.000 A 
ATOM      5  C   UNL     1       6.954   4.831  14.379  0.00  0.00    +0.000 A 
ATOM      6  C   UNL     1       5.744   4.145  14.196  0.00  0.00    +0.000 A 
ATOM      7  C   UNL     1       4.758   4.160  15.188  0.00  0.00    +0.000 A 
ATOM      8  C   UNL     1       5.012   4.852  16.362  0.00  0.00    +0.000 A 
ATOM      9  C   UNL     1       4.158   4.937  17.609  0.00  0.00    +0.000 C 
ENDROOT
BRANCH   1  10
ATOM     10  C   UNL     1       5.826   4.102  19.344  0.00  0.00    +0.000 C 
BRANCH  10  12
ATOM     11  C   UNL     1       4.420   2.343  20.222  0.00  0.00    +0.000 C 
ATOM     12  N   UNL     1       5.045   2.901  19.032  0.00  0.00    +0.000 NA
ATOM     13  H   UNL     1       4.310   3.131  18.365  0.00  0.00    +0.000 HD
ENDBRANCH  10  12
ENDBRANCH   1  10
BRANCH   9  14
ATOM     14  O   UNL     1       3.153   5.947  17.444  0.00  0.00    +0.000 OA
BRANCH  14  15
ATOM     15  C   UNL     1       2.518   6.343  18.607  0.00  0.00    +0.000 A 
ATOM     16  C   UNL     1       2.267   5.453  19.659  0.00  0.00    +0.000 A 
ATOM     17  C   UNL     1       1.649   5.894  20.826  0.00  0.00    +0.000 A 
ATOM     18  C   UNL     1       1.259   7.222  20.948  0.00  0.00    +0.000 A 
ATOM     19  C   UNL     1       1.480   8.134  19.908  0.00  0.00    +0.000 A 
ATOM     20  C   UNL     1       1.089   9.474  20.056  0.00  0.00    +0.000 A 
ATOM     21  C   UNL     1       1.313  10.402  19.042  0.00  0.00    +0.000 A 
ATOM     22  C   UNL     1       1.915   9.991  17.856  0.00  0.00    +0.000 A 
ATOM     23  C   UNL     1       2.305   8.657  17.690  0.00  0.00    +0.000 A 
ATOM     24  C   UNL     1       2.107   7.699  18.710  0.00  0.00    +0.000 A 
ENDBRANCH  14  15
ENDBRANCH   9  14
TORSDOF 4
ENDMDL
MODEL 8
REMARK VINA RESULT:      -7.1      1.389      2.276
REMARK  Name = 
REMARK  5 active torsions:
REMARK  status: ('A' for Active; 'I' for Inactive)
REMARK    1  A    between atoms: C_1  and  N_2
REMARK    2  A    between atoms: N_2  and  C_3
REMARK    3  A    between atoms: C_3  and  C_4
REMARK    4  A    between atoms: C_12  and  O_13
REMARK    5  A    between atoms: O_13  and  C_14
REMARK                            x       y       z     vdW  Elec       q    Type
REMARK                         _______ _______ _______ _____ _____    ______ ____
ROOT
ATOM      1  C   UNL     1       3.705   6.071  17.870  0.00  0.00    +0.000 C 
ATOM      2  C   UNL     1       3.152   4.670  17.519  0.00  0.00    +0.000 C 
ATOM      3  C   UNL     1       2.752   4.159  18.865  0.00  0.00    +0.000 A 
ATOM      4  C   UNL     1       2.592   2.843  19.263  0.00  0.00    +0.000 A 
ATOM      5  C   UNL     1       2.232   2.593  20.589  0.00  0.00    +0.000 A 
ATOM      6  C   UNL     1       2.022   3.654  21.483  0.00  0.00    +0.000 A 
ATOM      7  C   UNL     1       2.167   4.980  21.064  0.00  0.00    +0.000 A 
ATOM      8  C   UNL     1       2.541   5.221  19.750  0.00  0.00    +0.000 A 
ATOM      9  C   UNL     1       2.854   6.545  19.087  0.00  0.00    +0.000 C 
ENDROOT
BRANCH   1  10
ATOM     10  C   UNL     1       5.207   6.066  18.235  0.00  0.00    +0.000 C 
BRANCH  10  12
ATOM     11  C   UNL     1       7.009   4.741  17.318  0.00  0.00    +0.000 C 
ATOM     12  N   UNL     1       6.039   5.795  17.058  0.00  0.00    +0.000 NA
ATOM     13  H   UNL     1       5.451   5.502  16.280  0.00  0.00    +0.000 HD
ENDBRANCH  10  12
ENDBRANCH   1  10
BRANCH   9  14
ATOM     14  O   UNL     1       1.639   7.180  18.668  0.00  0.00    +0.000 OA
BRANCH  14  15
ATOM     15  C   UNL     1       1.609   8.555  18.817  0.00  0.00    +0.000 A 
ATOM     16  C   UNL     1       2.137   9.421  17.852  0.00  0.00    +0.000 A 
ATOM     17  C   UNL     1       2.065  10.801  18.024  0.00  0.00    +0.000 A 
ATOM     18  C   UNL     1       1.483  11.330  19.170  0.00  0.00    +0.000 A 
ATOM     19  C   UNL     1       0.962  10.490  20.164  0.00  0.00    +0.000 A 
ATOM     20  C   UNL     1       0.368  11.045  21.308  0.00  0.00    +0.000 A 
ATOM     21  C   UNL     1      -0.172  10.231  22.301  0.00  0.00    +0.000 A 
ATOM     22  C   UNL     1      -0.103   8.847  22.167  0.00  0.00    +0.000 A 
ATOM     23  C   UNL     1       0.491   8.279  21.034  0.00  0.00    +0.000 A 
ATOM     24  C   UNL     1       1.030   9.081  20.003  0.00  0.00    +0.000 A 
ENDBRANCH  14  15
ENDBRANCH   9  14
TORSDOF 4
ENDMDL
MODEL 9
REMARK VINA RESULT:      -7.1      2.491      6.874
REMARK  Name = 
REMARK  5 active torsions:
REMARK  status: ('A' for Active; 'I' for Inactive)
REMARK    1  A    between atoms: C_1  and  N_2
REMARK    2  A    between atoms: N_2  and  C_3
REMARK    3  A    between atoms: C_3  and  C_4
REMARK    4  A    between atoms: C_12  and  O_13
REMARK    5  A    between atoms: O_13  and  C_14
REMARK                            x       y       z     vdW  Elec       q    Type
REMARK                         _______ _______ _______ _____ _____    ______ ____
ROOT
ATOM      1  C   UNL     1       0.915   9.708  18.577  0.00  0.00    +0.000 C 
ATOM      2  C   UNL     1       1.176  11.017  19.360  0.00  0.00    +0.000 C 
ATOM      3  C   UNL     1       0.481  10.737  20.654  0.00  0.00    +0.000 A 
ATOM      4  C   UNL     1       0.003  11.650  21.577  0.00  0.00    +0.000 A 
ATOM      5  C   UNL     1      -0.640  11.160  22.717  0.00  0.00    +0.000 A 
ATOM      6  C   UNL     1      -0.777   9.779  22.920  0.00  0.00    +0.000 A 
ATOM      7  C   UNL     1      -0.272   8.866  21.989  0.00  0.00    +0.000 A 
ATOM      8  C   UNL     1       0.351   9.359  20.852  0.00  0.00    +0.000 A 
ATOM      9  C   UNL     1       0.887   8.590  19.663  0.00  0.00    +0.000 C 
ENDROOT
BRANCH   1  10
ATOM     10  C   UNL     1      -0.411   9.720  17.785  0.00  0.00    +0.000 C 
BRANCH  10  12
ATOM     11  C   UNL     1      -2.314  11.116  17.260  0.00  0.00    +0.000 C 
ATOM     12  N   UNL     1      -0.893  11.089  17.574  0.00  0.00    +0.000 NA
ATOM     13  H   UNL     1      -0.742  11.641  18.416  0.00  0.00    +0.000 HD
ENDBRANCH  10  12
ENDBRANCH   1  10
BRANCH   9  14
ATOM     14  O   UNL     1       2.204   8.101  19.953  0.00  0.00    +0.000 OA
BRANCH  14  15
ATOM     15  C   UNL     1       2.667   7.115  19.101  0.00  0.00    +0.000 A 
ATOM     16  C   UNL     1       3.434   7.409  17.967  0.00  0.00    +0.000 A 
ATOM     17  C   UNL     1       3.906   6.387  17.147  0.00  0.00    +0.000 A 
ATOM     18  C   UNL     1       3.601   5.063  17.440  0.00  0.00    +0.000 A 
ATOM     19  C   UNL     1       2.822   4.736  18.557  0.00  0.00    +0.000 A 
ATOM     20  C   UNL     1       2.536   3.391  18.842  0.00  0.00    +0.000 A 
ATOM     21  C   UNL     1       1.776   3.041  19.956  0.00  0.00    +0.000 A 
ATOM     22  C   UNL     1       1.277   4.039  20.788  0.00  0.00    +0.000 A 
ATOM     23  C   UNL     1       1.549   5.384  20.514  0.00  0.00    +0.000 A 
ATOM     24  C   UNL     1       2.331   5.767  19.402  0.00  0.00    +0.000 A 
ENDBRANCH  14  15
ENDBRANCH   9  14
TORSDOF 4
ENDMDL
