MODEL 1
REMARK VINA RESULT:      -6.3      0.000      0.000
REMARK  Name = 
REMARK  7 active torsions:
REMARK  status: ('A' for Active; 'I' for Inactive)
REMARK    1  A    between atoms: O_1  and  C_2
REMARK    2  A    between atoms: C_2  and  C_3
REMARK    3  A    between atoms: C_3  and  C_4
REMARK    4  A    between atoms: C_3  and  C_6
REMARK    5  A    between atoms: C_3  and  N_8
REMARK    6  A    between atoms: C_4  and  O_5
REMARK    7  A    between atoms: C_6  and  O_7
REMARK                            x       y       z     vdW  Elec       q    Type
REMARK                         _______ _______ _______ _____ _____    ______ ____
ROOT
ATOM      1  N   UNL     1       4.039   3.875  19.714  0.00  0.00    +0.000 N 
ATOM      2  C   UNL     1       4.832   4.355  18.698  0.00  0.00    +0.000 A 
ATOM      3  N   UNL     1       4.604   3.939  17.390  0.00  0.00    +0.000 NA
ATOM      4  N   UNL     1       5.259   4.413  16.429  0.00  0.00    +0.000 NA
ATOM      5  C   UNL     1       6.206   5.341  16.679  0.00  0.00    +0.000 A 
ATOM      6  N   UNL     1       7.009   6.037  15.899  0.00  0.00    +0.000 NA
ATOM      7  N   UNL     1       7.779   6.854  16.705  0.00  0.00    +0.000 NA
ATOM      8  C   UNL     1       7.422   6.623  17.950  0.00  0.00    +0.000 A 
ATOM      9  N   UNL     1       6.444   5.677  17.984  0.00  0.00    +0.000 N 
ATOM     10  N   UNL     1       5.788   5.177  19.054  0.00  0.00    +0.000 NA
ATOM     11  H   UNL     1       4.584   3.326  20.376  0.00  0.00    +0.000 HD
ENDROOT
BRANCH   1  12
ATOM     12  C   UNL     1       2.676   3.312  19.527  0.00  0.00    +0.000 C 
BRANCH  12  13
ATOM     13  C   UNL     1       2.749   1.968  18.769  0.00  0.00    +0.000 C 
BRANCH  13  14
ATOM     14  O   UNL     1       1.438   1.430  18.589  0.00  0.00    +0.000 OA
ATOM     15  H   UNL     1       0.824   2.186  18.524  0.00  0.00    +0.000 HD
ENDBRANCH  13  14
ENDBRANCH  12  13
BRANCH  12  16
ATOM     16  C   UNL     1       1.734   4.297  18.776  0.00  0.00    +0.000 C 
BRANCH  16  17
ATOM     17  O   UNL     1       1.530   3.948  17.409  0.00  0.00    +0.000 OA
ATOM     18  H   UNL     1       2.106   4.534  16.873  0.00  0.00    +0.000 HD
ENDBRANCH  16  17
ENDBRANCH  12  16
BRANCH  12  19
ATOM     19  C   UNL     1       2.102   3.065  20.952  0.00  0.00    +0.000 C 
BRANCH  19  20
ATOM     20  O   UNL     1       0.671   3.008  20.928  0.00  0.00    +0.000 OA
ATOM     21  H   UNL     1       0.393   3.670  20.261  0.00  0.00    +0.000 HD
ENDBRANCH  19  20
ENDBRANCH  12  19
ENDBRANCH   1  12
TORSDOF 7
ENDMDL
MODEL 2
REMARK VINA RESULT:      -6.3      1.567      2.534
REMARK  Name = 
REMARK  7 active torsions:
REMARK  status: ('A' for Active; 'I' for Inactive)
REMARK    1  A    between atoms: O_1  and  C_2
REMARK    2  A    between atoms: C_2  and  C_3
REMARK    3  A    between atoms: C_3  and  C_4
REMARK    4  A    between atoms: C_3  and  C_6
REMARK    5  A    between atoms: C_3  and  N_8
REMARK    6  A    between atoms: C_4  and  O_5
REMARK    7  A    between atoms: C_6  and  O_7
REMARK                            x       y       z     vdW  Elec       q    Type
REMARK                         _______ _______ _______ _____ _____    ______ ____
ROOT
ATOM      1  N   UNL     1       3.029   3.733  18.519  0.00  0.00    +0.000 N 
ATOM      2  C   UNL     1       4.252   4.138  18.038  0.00  0.00    +0.000 A 
ATOM      3  N   UNL     1       5.371   4.083  18.864  0.00  0.00    +0.000 NA
ATOM      4  N   UNL     1       6.515   4.372  18.436  0.00  0.00    +0.000 NA
ATOM      5  C   UNL     1       6.654   4.749  17.148  0.00  0.00    +0.000 A 
ATOM      6  N   UNL     1       7.702   5.066  16.413  0.00  0.00    +0.000 NA
ATOM      7  N   UNL     1       7.252   5.371  15.143  0.00  0.00    +0.000 NA
ATOM      8  C   UNL     1       5.943   5.233  15.148  0.00  0.00    +0.000 A 
ATOM      9  N   UNL     1       5.523   4.852  16.385  0.00  0.00    +0.000 N 
ATOM     10  N   UNL     1       4.267   4.579  16.805  0.00  0.00    +0.000 NA
ATOM     11  H   UNL     1       2.370   4.509  18.541  0.00  0.00    +0.000 HD
ENDROOT
BRANCH   1  12
ATOM     12  C   UNL     1       2.837   2.819  19.676  0.00  0.00    +0.000 C 
BRANCH  12  13
ATOM     13  C   UNL     1       2.857   3.614  20.999  0.00  0.00    +0.000 C 
BRANCH  13  14
ATOM     14  O   UNL     1       2.570   2.749  22.099  0.00  0.00    +0.000 OA
ATOM     15  H   UNL     1       1.603   2.621  22.119  0.00  0.00    +0.000 HD
ENDBRANCH  13  14
ENDBRANCH  12  13
BRANCH  12  16
ATOM     16  C   UNL     1       3.910   1.692  19.714  0.00  0.00    +0.000 C 
BRANCH  16  17
ATOM     17  O   UNL     1       4.920   1.911  20.695  0.00  0.00    +0.000 OA
ATOM     18  H   UNL     1       5.656   2.387  20.251  0.00  0.00    +0.000 HD
ENDBRANCH  16  17
ENDBRANCH  12  16
BRANCH  12  19
ATOM     19  C   UNL     1       1.437   2.164  19.491  0.00  0.00    +0.000 C 
BRANCH  19  20
ATOM     20  O   UNL     1       0.408   2.982  20.061  0.00  0.00    +0.000 OA
ATOM     21  H   UNL     1       0.867   3.594  20.673  0.00  0.00    +0.000 HD
ENDBRANCH  19  20
ENDBRANCH  12  19
ENDBRANCH   1  12
TORSDOF 7
ENDMDL
MODEL 3
REMARK VINA RESULT:      -6.3      1.543      2.347
REMARK  Name = 
REMARK  7 active torsions:
REMARK  status: ('A' for Active; 'I' for Inactive)
REMARK    1  A    between atoms: O_1  and  C_2
REMARK    2  A    between atoms: C_2  and  C_3
REMARK    3  A    between atoms: C_3  and  C_4
REMARK    4  A    between atoms: C_3  and  C_6
REMARK    5  A    between atoms: C_3  and  N_8
REMARK    6  A    between atoms: C_4  and  O_5
REMARK    7  A    between atoms: C_6  and  O_7
REMARK                            x       y       z     vdW  Elec       q    Type
REMARK                         _______ _______ _______ _____ _____    ______ ____
ROOT
ATOM      1  N   UNL     1       2.605   3.959  18.469  0.00  0.00    +0.000 N 
ATOM      2  C   UNL     1       3.938   4.234  18.267  0.00  0.00    +0.000 A 
ATOM      3  N   UNL     1       4.749   4.549  19.352  0.00  0.00    +0.000 NA
ATOM      4  N   UNL     1       5.984   4.731  19.216  0.00  0.00    +0.000 NA
ATOM      5  C   UNL     1       6.526   4.623  17.985  0.00  0.00    +0.000 A 
ATOM      6  N   UNL     1       7.764   4.714  17.538  0.00  0.00    +0.000 NA
ATOM      7  N   UNL     1       7.737   4.510  16.172  0.00  0.00    +0.000 NA
ATOM      8  C   UNL     1       6.483   4.306  15.832  0.00  0.00    +0.000 A 
ATOM      9  N   UNL     1       5.687   4.374  16.934  0.00  0.00    +0.000 N 
ATOM     10  N   UNL     1       4.350   4.198  17.024  0.00  0.00    +0.000 NA
ATOM     11  H   UNL     1       2.015   4.649  18.007  0.00  0.00    +0.000 HD
ENDROOT
BRANCH   1  12
ATOM     12  C   UNL     1       2.021   3.516  19.762  0.00  0.00    +0.000 C 
BRANCH  12  13
ATOM     13  C   UNL     1       3.091   2.814  20.624  0.00  0.00    +0.000 C 
BRANCH  13  14
ATOM     14  O   UNL     1       2.619   2.651  21.963  0.00  0.00    +0.000 OA
ATOM     15  H   UNL     1       3.375   2.822  22.556  0.00  0.00    +0.000 HD
ENDBRANCH  13  14
ENDBRANCH  12  13
BRANCH  12  16
ATOM     16  C   UNL     1       0.798   2.576  19.559  0.00  0.00    +0.000 C 
BRANCH  16  17
ATOM     17  O   UNL     1       0.827   1.876  18.318  0.00  0.00    +0.000 OA
ATOM     18  H   UNL     1       0.359   2.435  17.660  0.00  0.00    +0.000 HD
ENDBRANCH  16  17
ENDBRANCH  12  16
BRANCH  12  19
ATOM     19  C   UNL     1       1.540   4.805  20.491  0.00  0.00    +0.000 C 
BRANCH  19  20
ATOM     20  O   UNL     1       2.588   5.364  21.292  0.00  0.00    +0.000 OA
ATOM     21  H   UNL     1       2.250   5.354  22.211  0.00  0.00    +0.000 HD
ENDBRANCH  19  20
ENDBRANCH  12  19
ENDBRANCH   1  12
TORSDOF 7
ENDMDL
MODEL 4
REMARK VINA RESULT:      -6.3      3.372      5.892
REMARK  Name = 
REMARK  7 active torsions:
REMARK  status: ('A' for Active; 'I' for Inactive)
REMARK    1  A    between atoms: O_1  and  C_2
REMARK    2  A    between atoms: C_2  and  C_3
REMARK    3  A    between atoms: C_3  and  C_4
REMARK    4  A    between atoms: C_3  and  C_6
REMARK    5  A    between atoms: C_3  and  N_8
REMARK    6  A    between atoms: C_4  and  O_5
REMARK    7  A    between atoms: C_6  and  O_7
REMARK                            x       y       z     vdW  Elec       q    Type
REMARK                         _______ _______ _______ _____ _____    ______ ____
ROOT
ATOM      1  N   UNL     1       5.344   3.784  16.971  0.00  0.00    +0.000 N 
ATOM      2  C   UNL     1       4.374   3.843  17.944  0.00  0.00    +0.000 A 
ATOM      3  N   UNL     1       4.457   4.807  18.944  0.00  0.00    +0.000 NA
ATOM      4  N   UNL     1       3.552   4.939  19.803  0.00  0.00    +0.000 NA
ATOM      5  C   UNL     1       2.481   4.120  19.754  0.00  0.00    +0.000 A 
ATOM      6  N   UNL     1       1.377   4.041  20.471  0.00  0.00    +0.000 NA
ATOM      7  N   UNL     1       0.618   3.002  19.966  0.00  0.00    +0.000 NA
ATOM      8  C   UNL     1       1.288   2.480  18.961  0.00  0.00    +0.000 A 
ATOM      9  N   UNL     1       2.465   3.144  18.795  0.00  0.00    +0.000 N 
ATOM     10  N   UNL     1       3.426   2.942  17.866  0.00  0.00    +0.000 NA
ATOM     11  H   UNL     1       5.854   2.903  17.016  0.00  0.00    +0.000 HD
ENDROOT
BRANCH   1  12
ATOM     12  C   UNL     1       6.234   4.914  16.597  0.00  0.00    +0.000 C 
BRANCH  12  13
ATOM     13  C   UNL     1       7.367   5.071  17.633  0.00  0.00    +0.000 C 
BRANCH  13  14
ATOM     14  O   UNL     1       8.331   4.028  17.475  0.00  0.00    +0.000 OA
ATOM     15  H   UNL     1       8.886   4.026  18.277  0.00  0.00    +0.000 HD
ENDBRANCH  13  14
ENDBRANCH  12  13
BRANCH  12  16
ATOM     16  C   UNL     1       5.452   6.251  16.454  0.00  0.00    +0.000 C 
BRANCH  16  17
ATOM     17  O   UNL     1       5.219   6.624  15.098  0.00  0.00    +0.000 OA
ATOM     18  H   UNL     1       5.994   6.320  14.578  0.00  0.00    +0.000 HD
ENDBRANCH  16  17
ENDBRANCH  12  16
BRANCH  12  19
ATOM     19  C   UNL     1       6.850   4.549  15.215  0.00  0.00    +0.000 C 
BRANCH  19  20
ATOM     20  O   UNL     1       7.806   5.533  14.802  0.00  0.00    +0.000 OA
ATOM     21  H   UNL     1       7.457   6.390  15.124  0.00  0.00    +0.000 HD
ENDBRANCH  19  20
ENDBRANCH  12  19
ENDBRANCH   1  12
TORSDOF 7
ENDMDL
MODEL 5
REMARK VINA RESULT:      -6.2      3.329      5.625
REMARK  Name = 
REMARK  7 active torsions:
REMARK  status: ('A' for Active; 'I' for Inactive)
REMARK    1  A    between atoms: O_1  and  C_2
REMARK    2  A    between atoms: C_2  and  C_3
REMARK    3  A    between atoms: C_3  and  C_4
REMARK    4  A    between atoms: C_3  and  C_6
REMARK    5  A    between atoms: C_3  and  N_8
REMARK    6  A    between atoms: C_4  and  O_5
REMARK    7  A    between atoms: C_6  and  O_7
REMARK                            x       y       z     vdW  Elec       q    Type
REMARK                         _______ _______ _______ _____ _____    ______ ____
ROOT
ATOM      1  N   UNL     1       5.700   5.271  19.257  0.00  0.00    +0.000 N 
ATOM      2  C   UNL     1       4.460   4.770  18.934  0.00  0.00    +0.000 A 
ATOM      3  N   UNL     1       3.894   5.073  17.700  0.00  0.00    +0.000 NA
ATOM      4  N   UNL     1       2.800   4.572  17.341  0.00  0.00    +0.000 NA
ATOM      5  C   UNL     1       2.163   3.728  18.179  0.00  0.00    +0.000 A 
ATOM      6  N   UNL     1       1.050   3.029  18.075  0.00  0.00    +0.000 NA
ATOM      7  N   UNL     1       0.879   2.325  19.252  0.00  0.00    +0.000 NA
ATOM      8  C   UNL     1       1.893   2.624  20.036  0.00  0.00    +0.000 A 
ATOM      9  N   UNL     1       2.719   3.505  19.409  0.00  0.00    +0.000 N 
ATOM     10  N   UNL     1       3.878   4.040  19.853  0.00  0.00    +0.000 NA
ATOM     11  H   UNL     1       5.643   5.902  20.055  0.00  0.00    +0.000 HD
ENDROOT
BRANCH   1  12
ATOM     12  C   UNL     1       6.709   5.731  18.267  0.00  0.00    +0.000 C 
BRANCH  12  13
ATOM     13  C   UNL     1       6.166   6.933  17.465  0.00  0.00    +0.000 C 
BRANCH  13  14
ATOM     14  O   UNL     1       6.040   6.590  16.084  0.00  0.00    +0.000 OA
ATOM     15  H   UNL     1       5.864   7.417  15.598  0.00  0.00    +0.000 HD
ENDBRANCH  13  14
ENDBRANCH  12  13
BRANCH  12  16
ATOM     16  C   UNL     1       7.136   4.592  17.297  0.00  0.00    +0.000 C 
BRANCH  16  17
ATOM     17  O   UNL     1       8.346   3.947  17.686  0.00  0.00    +0.000 OA
ATOM     18  H   UNL     1       8.101   3.068  18.049  0.00  0.00    +0.000 HD
ENDBRANCH  16  17
ENDBRANCH  12  16
BRANCH  12  19
ATOM     19  C   UNL     1       7.954   6.180  19.084  0.00  0.00    +0.000 C 
BRANCH  19  20
ATOM     20  O   UNL     1       8.005   5.515  20.352  0.00  0.00    +0.000 OA
ATOM     21  H   UNL     1       8.957   5.379  20.540  0.00  0.00    +0.000 HD
ENDBRANCH  19  20
ENDBRANCH  12  19
ENDBRANCH   1  12
TORSDOF 7
ENDMDL
MODEL 6
REMARK VINA RESULT:      -6.2      3.384      5.889
REMARK  Name = 
REMARK  7 active torsions:
REMARK  status: ('A' for Active; 'I' for Inactive)
REMARK    1  A    between atoms: O_1  and  C_2
REMARK    2  A    between atoms: C_2  and  C_3
REMARK    3  A    between atoms: C_3  and  C_4
REMARK    4  A    between atoms: C_3  and  C_6
REMARK    5  A    between atoms: C_3  and  N_8
REMARK    6  A    between atoms: C_4  and  O_5
REMARK    7  A    between atoms: C_6  and  O_7
REMARK                            x       y       z     vdW  Elec       q    Type
REMARK                         _______ _______ _______ _____ _____    ______ ____
ROOT
ATOM      1  N   UNL     1       5.320   3.727  16.981  0.00  0.00    +0.000 N 
ATOM      2  C   UNL     1       4.455   3.799  18.048  0.00  0.00    +0.000 A 
ATOM      3  N   UNL     1       4.617   4.800  19.001  0.00  0.00    +0.000 NA
ATOM      4  N   UNL     1       3.803   4.942  19.946  0.00  0.00    +0.000 NA
ATOM      5  C   UNL     1       2.754   4.097  20.036  0.00  0.00    +0.000 A 
ATOM      6  N   UNL     1       1.733   4.018  20.867  0.00  0.00    +0.000 NA
ATOM      7  N   UNL     1       0.954   2.945  20.480  0.00  0.00    +0.000 NA
ATOM      8  C   UNL     1       1.530   2.403  19.428  0.00  0.00    +0.000 A 
ATOM      9  N   UNL     1       2.665   3.087  19.117  0.00  0.00    +0.000 N 
ATOM     10  N   UNL     1       3.529   2.875  18.100  0.00  0.00    +0.000 NA
ATOM     11  H   UNL     1       5.855   2.860  17.001  0.00  0.00    +0.000 HD
ENDROOT
BRANCH   1  12
ATOM     12  C   UNL     1       6.137   4.863  16.478  0.00  0.00    +0.000 C 
BRANCH  12  13
ATOM     13  C   UNL     1       6.642   4.571  15.049  0.00  0.00    +0.000 C 
BRANCH  13  14
ATOM     14  O   UNL     1       7.798   5.362  14.763  0.00  0.00    +0.000 OA
ATOM     15  H   UNL     1       7.950   5.937  15.535  0.00  0.00    +0.000 HD
ENDBRANCH  13  14
ENDBRANCH  12  13
BRANCH  12  16
ATOM     16  C   UNL     1       7.338   5.178  17.416  0.00  0.00    +0.000 C 
BRANCH  16  17
ATOM     17  O   UNL     1       8.200   4.061  17.620  0.00  0.00    +0.000 OA
ATOM     18  H   UNL     1       7.687   3.256  17.394  0.00  0.00    +0.000 HD
ENDBRANCH  16  17
ENDBRANCH  12  16
BRANCH  12  19
ATOM     19  C   UNL     1       5.195   6.102  16.446  0.00  0.00    +0.000 C 
BRANCH  19  20
ATOM     20  O   UNL     1       5.253   6.759  15.175  0.00  0.00    +0.000 OA
ATOM     21  H   UNL     1       4.808   6.155  14.546  0.00  0.00    +0.000 HD
ENDBRANCH  19  20
ENDBRANCH  12  19
ENDBRANCH   1  12
TORSDOF 7
ENDMDL
MODEL 7
REMARK VINA RESULT:      -6.2      3.402      5.847
REMARK  Name = 
REMARK  7 active torsions:
REMARK  status: ('A' for Active; 'I' for Inactive)
REMARK    1  A    between atoms: O_1  and  C_2
REMARK    2  A    between atoms: C_2  and  C_3
REMARK    3  A    between atoms: C_3  and  C_4
REMARK    4  A    between atoms: C_3  and  C_6
REMARK    5  A    between atoms: C_3  and  N_8
REMARK    6  A    between atoms: C_4  and  O_5
REMARK    7  A    between atoms: C_6  and  O_7
REMARK                            x       y       z     vdW  Elec       q    Type
REMARK                         _______ _______ _______ _____ _____    ______ ____
ROOT
ATOM      1  N   UNL     1       5.292   3.775  17.022  0.00  0.00    +0.000 N 
ATOM      2  C   UNL     1       4.429   3.864  18.089  0.00  0.00    +0.000 A 
ATOM      3  N   UNL     1       4.542   4.927  18.980  0.00  0.00    +0.000 NA
ATOM      4  N   UNL     1       3.725   5.082  19.921  0.00  0.00    +0.000 NA
ATOM      5  C   UNL     1       2.723   4.191  20.068  0.00  0.00    +0.000 A 
ATOM      6  N   UNL     1       1.711   4.108  20.910  0.00  0.00    +0.000 NA
ATOM      7  N   UNL     1       0.988   2.974  20.593  0.00  0.00    +0.000 NA
ATOM      8  C   UNL     1       1.587   2.402  19.571  0.00  0.00    +0.000 A 
ATOM      9  N   UNL     1       2.683   3.125  19.212  0.00  0.00    +0.000 N 
ATOM     10  N   UNL     1       3.553   2.898  18.202  0.00  0.00    +0.000 NA
ATOM     11  H   UNL     1       5.872   2.940  17.090  0.00  0.00    +0.000 HD
ENDROOT
BRANCH   1  12
ATOM     12  C   UNL     1       6.045   4.920  16.447  0.00  0.00    +0.000 C 
BRANCH  12  13
ATOM     13  C   UNL     1       5.154   6.180  16.397  0.00  0.00    +0.000 C 
BRANCH  13  14
ATOM     14  O   UNL     1       5.233   6.790  15.107  0.00  0.00    +0.000 OA
ATOM     15  H   UNL     1       6.000   6.396  14.650  0.00  0.00    +0.000 HD
ENDBRANCH  13  14
ENDBRANCH  12  13
BRANCH  12  16
ATOM     16  C   UNL     1       6.599   4.601  15.028  0.00  0.00    +0.000 C 
BRANCH  16  17
ATOM     17  O   UNL     1       7.724   5.400  14.672  0.00  0.00    +0.000 OA
ATOM     18  H   UNL     1       8.010   5.113  13.778  0.00  0.00    +0.000 HD
ENDBRANCH  16  17
ENDBRANCH  12  16
BRANCH  12  19
ATOM     19  C   UNL     1       7.247   5.180  17.402  0.00  0.00    +0.000 C 
BRANCH  19  20
ATOM     20  O   UNL     1       8.178   4.091  17.365  0.00  0.00    +0.000 OA
ATOM     21  H   UNL     1       7.645   3.284  17.520  0.00  0.00    +0.000 HD
ENDBRANCH  19  20
ENDBRANCH  12  19
ENDBRANCH   1  12
TORSDOF 7
ENDMDL
MODEL 8
REMARK VINA RESULT:      -6.2      3.498      5.872
REMARK  Name = 
REMARK  7 active torsions:
REMARK  status: ('A' for Active; 'I' for Inactive)
REMARK    1  A    between atoms: O_1  and  C_2
REMARK    2  A    between atoms: C_2  and  C_3
REMARK    3  A    between atoms: C_3  and  C_4
REMARK    4  A    between atoms: C_3  and  C_6
REMARK    5  A    between atoms: C_3  and  N_8
REMARK    6  A    between atoms: C_4  and  O_5
REMARK    7  A    between atoms: C_6  and  O_7
REMARK                            x       y       z     vdW  Elec       q    Type
REMARK                         _______ _______ _______ _____ _____    ______ ____
ROOT
ATOM      1  N   UNL     1       4.463   4.963  17.590  0.00  0.00    +0.000 N 
ATOM      2  C   UNL     1       4.071   4.177  18.649  0.00  0.00    +0.000 A 
ATOM      3  N   UNL     1       4.966   3.263  19.197  0.00  0.00    +0.000 NA
ATOM      4  N   UNL     1       4.669   2.584  20.211  0.00  0.00    +0.000 NA
ATOM      5  C   UNL     1       3.452   2.745  20.770  0.00  0.00    +0.000 A 
ATOM      6  N   UNL     1       2.877   2.222  21.836  0.00  0.00    +0.000 NA
ATOM      7  N   UNL     1       1.607   2.758  21.938  0.00  0.00    +0.000 NA
ATOM      8  C   UNL     1       1.450   3.587  20.928  0.00  0.00    +0.000 A 
ATOM      9  N   UNL     1       2.577   3.606  20.166  0.00  0.00    +0.000 N 
ATOM     10  N   UNL     1       2.838   4.338  19.060  0.00  0.00    +0.000 NA
ATOM     11  H   UNL     1       3.911   4.758  16.759  0.00  0.00    +0.000 HD
ENDROOT
BRANCH   1  12
ATOM     12  C   UNL     1       5.875   5.275  17.247  0.00  0.00    +0.000 C 
BRANCH  12  13
ATOM     13  C   UNL     1       6.781   5.099  18.484  0.00  0.00    +0.000 C 
BRANCH  13  14
ATOM     14  O   UNL     1       7.906   4.280  18.161  0.00  0.00    +0.000 OA
ATOM     15  H   UNL     1       8.124   4.449  17.225  0.00  0.00    +0.000 HD
ENDBRANCH  13  14
ENDBRANCH  12  13
BRANCH  12  16
ATOM     16  C   UNL     1       6.032   6.711  16.670  0.00  0.00    +0.000 C 
BRANCH  16  17
ATOM     17  O   UNL     1       7.352   7.231  16.809  0.00  0.00    +0.000 OA
ATOM     18  H   UNL     1       7.924   6.737  16.184  0.00  0.00    +0.000 HD
ENDBRANCH  16  17
ENDBRANCH  12  16
BRANCH  12  19
ATOM     19  C   UNL     1       6.298   4.252  16.153  0.00  0.00    +0.000 C 
BRANCH  19  20
ATOM     20  O   UNL     1       7.431   4.725  15.416  0.00  0.00    +0.000 OA
ATOM     21  H   UNL     1       8.216   4.414  15.913  0.00  0.00    +0.000 HD
ENDBRANCH  19  20
ENDBRANCH  12  19
ENDBRANCH   1  12
TORSDOF 7
ENDMDL
MODEL 9
REMARK VINA RESULT:      -6.2      0.252      1.737
REMARK  Name = 
REMARK  7 active torsions:
REMARK  status: ('A' for Active; 'I' for Inactive)
REMARK    1  A    between atoms: O_1  and  C_2
REMARK    2  A    between atoms: C_2  and  C_3
REMARK    3  A    between atoms: C_3  and  C_4
REMARK    4  A    between atoms: C_3  and  C_6
REMARK    5  A    between atoms: C_3  and  N_8
REMARK    6  A    between atoms: C_4  and  O_5
REMARK    7  A    between atoms: C_6  and  O_7
REMARK                            x       y       z     vdW  Elec       q    Type
REMARK                         _______ _______ _______ _____ _____    ______ ____
ROOT
ATOM      1  N   UNL     1       3.964   4.083  19.630  0.00  0.00    +0.000 N 
ATOM      2  C   UNL     1       4.810   4.520  18.638  0.00  0.00    +0.000 A 
ATOM      3  N   UNL     1       4.664   4.031  17.343  0.00  0.00    +0.000 NA
ATOM      4  N   UNL     1       5.368   4.464  16.397  0.00  0.00    +0.000 NA
ATOM      5  C   UNL     1       6.287   5.418  16.651  0.00  0.00    +0.000 A 
ATOM      6  N   UNL     1       7.125   6.085  15.882  0.00  0.00    +0.000 NA
ATOM      7  N   UNL     1       7.836   6.956  16.686  0.00  0.00    +0.000 NA
ATOM      8  C   UNL     1       7.410   6.786  17.919  0.00  0.00    +0.000 A 
ATOM      9  N   UNL     1       6.444   5.828  17.947  0.00  0.00    +0.000 N 
ATOM     10  N   UNL     1       5.732   5.375  19.003  0.00  0.00    +0.000 NA
ATOM     11  H   UNL     1       4.477   3.579  20.352  0.00  0.00    +0.000 HD
ENDROOT
BRANCH   1  12
ATOM     12  C   UNL     1       2.623   3.488  19.396  0.00  0.00    +0.000 C 
BRANCH  12  13
ATOM     13  C   UNL     1       1.858   3.342  20.729  0.00  0.00    +0.000 C 
BRANCH  13  14
ATOM     14  O   UNL     1       0.450   3.310  20.490  0.00  0.00    +0.000 OA
ATOM     15  H   UNL     1       0.017   3.137  21.347  0.00  0.00    +0.000 HD
ENDBRANCH  13  14
ENDBRANCH  12  13
BRANCH  12  16
ATOM     16  C   UNL     1       2.712   2.111  18.677  0.00  0.00    +0.000 C 
BRANCH  16  17
ATOM     17  O   UNL     1       1.490   1.379  18.711  0.00  0.00    +0.000 OA
ATOM     18  H   UNL     1       1.603   0.659  19.369  0.00  0.00    +0.000 HD
ENDBRANCH  16  17
ENDBRANCH  12  16
BRANCH  12  19
ATOM     19  C   UNL     1       1.857   4.480  18.472  0.00  0.00    +0.000 C 
BRANCH  19  20
ATOM     20  O   UNL     1       1.335   3.810  17.319  0.00  0.00    +0.000 OA
ATOM     21  H   UNL     1       2.114   3.589  16.768  0.00  0.00    +0.000 HD
ENDBRANCH  19  20
ENDBRANCH  12  19
ENDBRANCH   1  12
TORSDOF 7
ENDMDL
