MODEL 1
REMARK VINA RESULT:      -8.6      0.000      0.000
REMARK  Name = 
REMARK  1 active torsions:
REMARK  status: ('A' for Active; 'I' for Inactive)
REMARK    1  A    between atoms: C_7  and  C_8
REMARK                            x       y       z     vdW  Elec       q    Type
REMARK                         _______ _______ _______ _____ _____    ______ ____
ROOT
ATOM      1  F   UNL     1       1.777   2.084  21.956  0.00  0.00    +0.000 F 
ATOM      2  C   UNL     1       2.144   2.940  20.988  0.00  0.00    +0.000 A 
ATOM      3  C   UNL     1       1.410   4.117  20.864  0.00  0.00    +0.000 A 
ATOM      4  C   UNL     1       1.756   5.045  19.877  0.00  0.00    +0.000 A 
ATOM      5  C   UNL     1       2.843   4.713  19.064  0.00  0.00    +0.000 A 
ATOM      6  N   UNL     1       3.437   5.375  18.024  0.00  0.00    +0.000 NA
ATOM      7  C   UNL     1       4.398   4.551  17.645  0.00  0.00    +0.000 A 
ATOM      8  O   UNL     1       4.489   3.394  18.377  0.00  0.00    +0.000 OA
ATOM      9  C   UNL     1       3.484   3.499  19.294  0.00  0.00    +0.000 A 
ATOM     10  N   UNL     1       3.197   2.575  20.224  0.00  0.00    +0.000 NA
ENDROOT
BRANCH   7  11
ATOM     11  C   UNL     1       5.338   4.699  16.544  0.00  0.00    +0.000 A 
ATOM     12  C   UNL     1       6.407   5.591  16.662  0.00  0.00    +0.000 A 
ATOM     13  N   UNL     1       7.337   5.868  15.711  0.00  0.00    +0.000 NA
ATOM     14  C   UNL     1       7.127   5.185  14.572  0.00  0.00    +0.000 A 
ATOM     15  N   UNL     1       7.898   5.298  13.447  0.00  0.00    +0.000 N 
ATOM     16  C   UNL     1       7.401   4.485  12.461  0.00  0.00    +0.000 A 
ATOM     17  C   UNL     1       6.302   3.825  12.970  0.00  0.00    +0.000 A 
ATOM     18  C   UNL     1       6.118   4.266  14.309  0.00  0.00    +0.000 A 
ATOM     19  C   UNL     1       5.196   4.003  15.335  0.00  0.00    +0.000 A 
ATOM     20  H   UNL     1       8.698   5.910  13.379  0.00  0.00    +0.000 HD
ENDBRANCH   7  11
TORSDOF 1
ENDMDL
MODEL 2
REMARK VINA RESULT:      -8.3      1.067      1.103
REMARK  Name = 
REMARK  1 active torsions:
REMARK  status: ('A' for Active; 'I' for Inactive)
REMARK    1  A    between atoms: C_7  and  C_8
REMARK                            x       y       z     vdW  Elec       q    Type
REMARK                         _______ _______ _______ _____ _____    ______ ____
ROOT
ATOM      1  F   UNL     1       1.602   3.155  22.224  0.00  0.00    +0.000 F 
ATOM      2  C   UNL     1       1.878   3.207  20.911  0.00  0.00    +0.000 A 
ATOM      3  C   UNL     1       0.905   2.735  20.034  0.00  0.00    +0.000 A 
ATOM      4  C   UNL     1       1.140   2.774  18.656  0.00  0.00    +0.000 A 
ATOM      5  C   UNL     1       2.370   3.298  18.249  0.00  0.00    +0.000 A 
ATOM      6  N   UNL     1       2.915   3.479  17.008  0.00  0.00    +0.000 NA
ATOM      7  C   UNL     1       4.105   3.993  17.267  0.00  0.00    +0.000 A 
ATOM      8  O   UNL     1       4.375   4.179  18.599  0.00  0.00    +0.000 OA
ATOM      9  C   UNL     1       3.254   3.729  19.233  0.00  0.00    +0.000 A 
ATOM     10  N   UNL     1       3.081   3.717  20.564  0.00  0.00    +0.000 NA
ENDROOT
BRANCH   7  11
ATOM     11  C   UNL     1       5.161   4.352  16.333  0.00  0.00    +0.000 A 
ATOM     12  C   UNL     1       6.164   5.240  16.730  0.00  0.00    +0.000 A 
ATOM     13  N   UNL     1       7.187   5.700  15.963  0.00  0.00    +0.000 NA
ATOM     14  C   UNL     1       7.148   5.214  14.710  0.00  0.00    +0.000 A 
ATOM     15  N   UNL     1       8.042   5.537  13.726  0.00  0.00    +0.000 N 
ATOM     16  C   UNL     1       7.707   4.889  12.564  0.00  0.00    +0.000 A 
ATOM     17  C   UNL     1       6.588   4.122  12.815  0.00  0.00    +0.000 A 
ATOM     18  C   UNL     1       6.224   4.325  14.174  0.00  0.00    +0.000 A 
ATOM     19  C   UNL     1       5.200   3.866  15.019  0.00  0.00    +0.000 A 
ATOM     20  H   UNL     1       8.814   6.174  13.861  0.00  0.00    +0.000 HD
ENDBRANCH   7  11
TORSDOF 1
ENDMDL
MODEL 3
REMARK VINA RESULT:      -8.0      1.135      1.154
REMARK  Name = 
REMARK  1 active torsions:
REMARK  status: ('A' for Active; 'I' for Inactive)
REMARK    1  A    between atoms: C_7  and  C_8
REMARK                            x       y       z     vdW  Elec       q    Type
REMARK                         _______ _______ _______ _____ _____    ______ ____
ROOT
ATOM      1  F   UNL     1      -0.074   2.745  20.131  0.00  0.00    +0.000 F 
ATOM      2  C   UNL     1       1.087   3.327  19.793  0.00  0.00    +0.000 A 
ATOM      3  C   UNL     1       1.707   4.123  20.754  0.00  0.00    +0.000 A 
ATOM      4  C   UNL     1       2.922   4.746  20.455  0.00  0.00    +0.000 A 
ATOM      5  C   UNL     1       3.440   4.519  19.177  0.00  0.00    +0.000 A 
ATOM      6  N   UNL     1       4.581   4.964  18.566  0.00  0.00    +0.000 NA
ATOM      7  C   UNL     1       4.510   4.430  17.359  0.00  0.00    +0.000 A 
ATOM      8  O   UNL     1       3.404   3.648  17.138  0.00  0.00    +0.000 OA
ATOM      9  C   UNL     1       2.714   3.707  18.313  0.00  0.00    +0.000 A 
ATOM     10  N   UNL     1       1.548   3.084  18.546  0.00  0.00    +0.000 NA
ENDROOT
BRANCH   7  11
ATOM     11  C   UNL     1       5.427   4.592  16.241  0.00  0.00    +0.000 A 
ATOM     12  C   UNL     1       6.497   5.485  16.347  0.00  0.00    +0.000 A 
ATOM     13  N   UNL     1       7.406   5.774  15.379  0.00  0.00    +0.000 NA
ATOM     14  C   UNL     1       7.175   5.102  14.238  0.00  0.00    +0.000 A 
ATOM     15  N   UNL     1       7.922   5.229  13.099  0.00  0.00    +0.000 N 
ATOM     16  C   UNL     1       7.407   4.425  12.115  0.00  0.00    +0.000 A 
ATOM     17  C   UNL     1       6.320   3.757  12.639  0.00  0.00    +0.000 A 
ATOM     18  C   UNL     1       6.162   4.184  13.986  0.00  0.00    +0.000 A 
ATOM     19  C   UNL     1       5.262   3.908  15.028  0.00  0.00    +0.000 A 
ATOM     20  H   UNL     1       8.720   5.844  13.021  0.00  0.00    +0.000 HD
ENDBRANCH   7  11
TORSDOF 1
ENDMDL
MODEL 4
REMARK VINA RESULT:      -7.8      1.624      1.979
REMARK  Name = 
REMARK  1 active torsions:
REMARK  status: ('A' for Active; 'I' for Inactive)
REMARK    1  A    between atoms: C_7  and  C_8
REMARK                            x       y       z     vdW  Elec       q    Type
REMARK                         _______ _______ _______ _____ _____    ______ ____
ROOT
ATOM      1  F   UNL     1       1.196   6.949  21.270  0.00  0.00    +0.000 F 
ATOM      2  C   UNL     1       1.862   6.104  20.467  0.00  0.00    +0.000 A 
ATOM      3  C   UNL     1       1.757   4.743  20.744  0.00  0.00    +0.000 A 
ATOM      4  C   UNL     1       2.426   3.821  19.933  0.00  0.00    +0.000 A 
ATOM      5  C   UNL     1       3.171   4.347  18.875  0.00  0.00    +0.000 A 
ATOM      6  N   UNL     1       3.932   3.745  17.910  0.00  0.00    +0.000 NA
ATOM      7  C   UNL     1       4.403   4.763  17.211  0.00  0.00    +0.000 A 
ATOM      8  O   UNL     1       3.990   5.998  17.642  0.00  0.00    +0.000 OA
ATOM      9  C   UNL     1       3.195   5.729  18.717  0.00  0.00    +0.000 A 
ATOM     10  N   UNL     1       2.574   6.658  19.460  0.00  0.00    +0.000 NA
ENDROOT
BRANCH   7  11
ATOM     11  C   UNL     1       5.317   4.740  16.080  0.00  0.00    +0.000 A 
ATOM     12  C   UNL     1       6.467   5.536  16.102  0.00  0.00    +0.000 A 
ATOM     13  N   UNL     1       7.387   5.653  15.110  0.00  0.00    +0.000 NA
ATOM     14  C   UNL     1       7.081   4.909  14.033  0.00  0.00    +0.000 A 
ATOM     15  N   UNL     1       7.823   4.866  12.885  0.00  0.00    +0.000 N 
ATOM     16  C   UNL     1       7.224   4.031  11.977  0.00  0.00    +0.000 A 
ATOM     17  C   UNL     1       6.086   3.516  12.562  0.00  0.00    +0.000 A 
ATOM     18  C   UNL     1       5.985   4.071  13.866  0.00  0.00    +0.000 A 
ATOM     19  C   UNL     1       5.076   3.972  14.932  0.00  0.00    +0.000 A 
ATOM     20  H   UNL     1       8.673   5.395  12.750  0.00  0.00    +0.000 HD
ENDBRANCH   7  11
TORSDOF 1
ENDMDL
MODEL 5
REMARK VINA RESULT:      -7.7      3.179      7.141
REMARK  Name = 
REMARK  1 active torsions:
REMARK  status: ('A' for Active; 'I' for Inactive)
REMARK    1  A    between atoms: C_7  and  C_8
REMARK                            x       y       z     vdW  Elec       q    Type
REMARK                         _______ _______ _______ _____ _____    ______ ____
ROOT
ATOM      1  F   UNL     1       9.010   5.765  12.773  0.00  0.00    +0.000 F 
ATOM      2  C   UNL     1       7.928   5.210  13.343  0.00  0.00    +0.000 A 
ATOM      3  C   UNL     1       7.168   4.344  12.560  0.00  0.00    +0.000 A 
ATOM      4  C   UNL     1       6.035   3.734  13.108  0.00  0.00    +0.000 A 
ATOM      5  C   UNL     1       5.741   4.048  14.438  0.00  0.00    +0.000 A 
ATOM      6  N   UNL     1       4.731   3.640  15.266  0.00  0.00    +0.000 NA
ATOM      7  C   UNL     1       4.973   4.293  16.390  0.00  0.00    +0.000 A 
ATOM      8  O   UNL     1       6.087   5.093  16.362  0.00  0.00    +0.000 OA
ATOM      9  C   UNL     1       6.582   4.934  15.101  0.00  0.00    +0.000 A 
ATOM     10  N   UNL     1       7.679   5.546  14.628  0.00  0.00    +0.000 NA
ENDROOT
BRANCH   7  11
ATOM     11  C   UNL     1       4.200   4.295  17.622  0.00  0.00    +0.000 A 
ATOM     12  C   UNL     1       4.469   5.251  18.606  0.00  0.00    +0.000 A 
ATOM     13  N   UNL     1       3.865   5.353  19.819  0.00  0.00    +0.000 NA
ATOM     14  C   UNL     1       2.941   4.397  20.016  0.00  0.00    +0.000 A 
ATOM     15  N   UNL     1       2.207   4.253  21.161  0.00  0.00    +0.000 N 
ATOM     16  C   UNL     1       1.374   3.170  21.046  0.00  0.00    +0.000 A 
ATOM     17  C   UNL     1       1.566   2.620  19.795  0.00  0.00    +0.000 A 
ATOM     18  C   UNL     1       2.562   3.390  19.136  0.00  0.00    +0.000 A 
ATOM     19  C   UNL     1       3.205   3.344  17.888  0.00  0.00    +0.000 A 
ATOM     20  H   UNL     1       2.299   4.862  21.962  0.00  0.00    +0.000 HD
ENDBRANCH   7  11
TORSDOF 1
ENDMDL
MODEL 6
REMARK VINA RESULT:      -7.5      4.086      7.544
REMARK  Name = 
REMARK  1 active torsions:
REMARK  status: ('A' for Active; 'I' for Inactive)
REMARK    1  A    between atoms: C_7  and  C_8
REMARK                            x       y       z     vdW  Elec       q    Type
REMARK                         _______ _______ _______ _____ _____    ______ ____
ROOT
ATOM      1  F   UNL     1       7.224   5.048  14.410  0.00  0.00    +0.000 F 
ATOM      2  C   UNL     1       6.229   5.099  15.309  0.00  0.00    +0.000 A 
ATOM      3  C   UNL     1       5.735   3.885  15.784  0.00  0.00    +0.000 A 
ATOM      4  C   UNL     1       4.703   3.882  16.727  0.00  0.00    +0.000 A 
ATOM      5  C   UNL     1       4.229   5.132  17.135  0.00  0.00    +0.000 A 
ATOM      6  N   UNL     1       3.249   5.488  18.021  0.00  0.00    +0.000 NA
ATOM      7  C   UNL     1       3.249   6.808  17.965  0.00  0.00    +0.000 A 
ATOM      8  O   UNL     1       4.177   7.349  17.111  0.00  0.00    +0.000 OA
ATOM      9  C   UNL     1       4.809   6.265  16.575  0.00  0.00    +0.000 A 
ATOM     10  N   UNL     1       5.799   6.328  15.671  0.00  0.00    +0.000 NA
ENDROOT
BRANCH   7  11
ATOM     11  C   UNL     1       2.381   7.746  18.660  0.00  0.00    +0.000 A 
ATOM     12  C   UNL     1       1.925   8.889  17.997  0.00  0.00    +0.000 A 
ATOM     13  N   UNL     1       1.148   9.872  18.523  0.00  0.00    +0.000 NA
ATOM     14  C   UNL     1       0.844   9.652  19.814  0.00  0.00    +0.000 A 
ATOM     15  N   UNL     1       0.100  10.498  20.590  0.00  0.00    +0.000 N 
ATOM     16  C   UNL     1      -0.006   9.992  21.859  0.00  0.00    +0.000 A 
ATOM     17  C   UNL     1       0.670   8.789  21.893  0.00  0.00    +0.000 A 
ATOM     18  C   UNL     1       1.216   8.567  20.599  0.00  0.00    +0.000 A 
ATOM     19  C   UNL     1       2.002   7.571  19.998  0.00  0.00    +0.000 A 
ATOM     20  H   UNL     1      -0.289  11.368  20.252  0.00  0.00    +0.000 HD
ENDBRANCH   7  11
TORSDOF 1
ENDMDL
MODEL 7
REMARK VINA RESULT:      -7.4      1.310      1.573
REMARK  Name = 
REMARK  1 active torsions:
REMARK  status: ('A' for Active; 'I' for Inactive)
REMARK    1  A    between atoms: C_7  and  C_8
REMARK                            x       y       z     vdW  Elec       q    Type
REMARK                         _______ _______ _______ _____ _____    ______ ____
ROOT
ATOM      1  F   UNL     1       1.929   5.086  21.876  0.00  0.00    +0.000 F 
ATOM      2  C   UNL     1       2.453   4.497  20.789  0.00  0.00    +0.000 A 
ATOM      3  C   UNL     1       2.171   3.145  20.598  0.00  0.00    +0.000 A 
ATOM      4  C   UNL     1       2.686   2.485  19.478  0.00  0.00    +0.000 A 
ATOM      5  C   UNL     1       3.469   3.251  18.610  0.00  0.00    +0.000 A 
ATOM      6  N   UNL     1       4.115   2.931  17.447  0.00  0.00    +0.000 NA
ATOM      7  C   UNL     1       4.702   4.063  17.100  0.00  0.00    +0.000 A 
ATOM      8  O   UNL     1       4.472   5.115  17.950  0.00  0.00    +0.000 OA
ATOM      9  C   UNL     1       3.676   4.590  18.925  0.00  0.00    +0.000 A 
ATOM     10  N   UNL     1       3.207   5.274  19.980  0.00  0.00    +0.000 NA
ENDROOT
BRANCH   7  11
ATOM     11  C   UNL     1       5.574   4.322  15.965  0.00  0.00    +0.000 A 
ATOM     12  C   UNL     1       6.605   5.259  16.084  0.00  0.00    +0.000 A 
ATOM     13  N   UNL     1       7.469   5.637  15.106  0.00  0.00    +0.000 NA
ATOM     14  C   UNL     1       7.233   5.012  13.940  0.00  0.00    +0.000 A 
ATOM     15  N   UNL     1       7.937   5.229  12.788  0.00  0.00    +0.000 N 
ATOM     16  C   UNL     1       7.429   4.451  11.780  0.00  0.00    +0.000 A 
ATOM     17  C   UNL     1       6.390   3.708  12.301  0.00  0.00    +0.000 A 
ATOM     18  C   UNL     1       6.256   4.060  13.672  0.00  0.00    +0.000 A 
ATOM     19  C   UNL     1       5.403   3.692  14.725  0.00  0.00    +0.000 A 
ATOM     20  H   UNL     1       8.703   5.884  12.717  0.00  0.00    +0.000 HD
ENDBRANCH   7  11
TORSDOF 1
ENDMDL
MODEL 8
REMARK VINA RESULT:      -7.4      4.231      7.455
REMARK  Name = 
REMARK  1 active torsions:
REMARK  status: ('A' for Active; 'I' for Inactive)
REMARK    1  A    between atoms: C_7  and  C_8
REMARK                            x       y       z     vdW  Elec       q    Type
REMARK                         _______ _______ _______ _____ _____    ______ ____
ROOT
ATOM      1  F   UNL     1       7.087   5.112  14.141  0.00  0.00    +0.000 F 
ATOM      2  C   UNL     1       6.147   5.131  15.099  0.00  0.00    +0.000 A 
ATOM      3  C   UNL     1       5.703   3.902  15.583  0.00  0.00    +0.000 A 
ATOM      4  C   UNL     1       4.730   3.866  16.586  0.00  0.00    +0.000 A 
ATOM      5  C   UNL     1       4.260   5.101  17.041  0.00  0.00    +0.000 A 
ATOM      6  N   UNL     1       3.329   5.426  17.990  0.00  0.00    +0.000 NA
ATOM      7  C   UNL     1       3.302   6.747  17.954  0.00  0.00    +0.000 A 
ATOM      8  O   UNL     1       4.168   7.317  17.055  0.00  0.00    +0.000 OA
ATOM      9  C   UNL     1       4.785   6.253  16.465  0.00  0.00    +0.000 A 
ATOM     10  N   UNL     1       5.718   6.347  15.505  0.00  0.00    +0.000 NA
ENDROOT
BRANCH   7  11
ATOM     11  C   UNL     1       2.461   7.658  18.714  0.00  0.00    +0.000 A 
ATOM     12  C   UNL     1       2.157   7.371  20.048  0.00  0.00    +0.000 A 
ATOM     13  N   UNL     1       1.356   8.098  20.869  0.00  0.00    +0.000 NA
ATOM     14  C   UNL     1       0.835   9.176  20.257  0.00  0.00    +0.000 A 
ATOM     15  N   UNL     1      -0.026  10.061  20.846  0.00  0.00    +0.000 N 
ATOM     16  C   UNL     1      -0.384  11.030  19.944  0.00  0.00    +0.000 A 
ATOM     17  C   UNL     1       0.274  10.770  18.760  0.00  0.00    +0.000 A 
ATOM     18  C   UNL     1       1.047   9.592  18.948  0.00  0.00    +0.000 A 
ATOM     19  C   UNL     1       1.901   8.813  18.150  0.00  0.00    +0.000 A 
ATOM     20  H   UNL     1      -0.345   9.978  21.801  0.00  0.00    +0.000 HD
ENDBRANCH   7  11
TORSDOF 1
ENDMDL
MODEL 9
REMARK VINA RESULT:      -7.2      3.208      7.275
REMARK  Name = 
REMARK  1 active torsions:
REMARK  status: ('A' for Active; 'I' for Inactive)
REMARK    1  A    between atoms: C_7  and  C_8
REMARK                            x       y       z     vdW  Elec       q    Type
REMARK                         _______ _______ _______ _____ _____    ______ ____
ROOT
ATOM      1  F   UNL     1       9.173   5.931  12.614  0.00  0.00    +0.000 F 
ATOM      2  C   UNL     1       8.096   5.317  13.129  0.00  0.00    +0.000 A 
ATOM      3  C   UNL     1       7.392   4.454  12.291  0.00  0.00    +0.000 A 
ATOM      4  C   UNL     1       6.267   3.783  12.780  0.00  0.00    +0.000 A 
ATOM      5  C   UNL     1       5.921   4.036  14.110  0.00  0.00    +0.000 A 
ATOM      6  N   UNL     1       4.902   3.561  14.891  0.00  0.00    +0.000 NA
ATOM      7  C   UNL     1       5.086   4.180  16.045  0.00  0.00    +0.000 A 
ATOM      8  O   UNL     1       6.170   5.020  16.082  0.00  0.00    +0.000 OA
ATOM      9  C   UNL     1       6.709   4.927  14.832  0.00  0.00    +0.000 A 
ATOM     10  N   UNL     1       7.796   5.595  14.417  0.00  0.00    +0.000 NA
ENDROOT
BRANCH   7  11
ATOM     11  C   UNL     1       4.277   4.108  17.251  0.00  0.00    +0.000 A 
ATOM     12  C   UNL     1       3.913   2.861  17.767  0.00  0.00    +0.000 A 
ATOM     13  N   UNL     1       3.131   2.633  18.855  0.00  0.00    +0.000 NA
ATOM     14  C   UNL     1       2.696   3.771  19.422  0.00  0.00    +0.000 A 
ATOM     15  N   UNL     1       1.871   3.828  20.512  0.00  0.00    +0.000 N 
ATOM     16  C   UNL     1       1.601   5.136  20.823  0.00  0.00    +0.000 A 
ATOM     17  C   UNL     1       2.280   5.933  19.925  0.00  0.00    +0.000 A 
ATOM     18  C   UNL     1       2.975   5.075  19.029  0.00  0.00    +0.000 A 
ATOM     19  C   UNL     1       3.806   5.251  17.911  0.00  0.00    +0.000 A 
ATOM     20  H   UNL     1       1.518   3.009  20.987  0.00  0.00    +0.000 HD
ENDBRANCH   7  11
TORSDOF 1
ENDMDL
