MODEL 1
REMARK VINA RESULT:      -7.3      0.000      0.000
REMARK  Name = 
REMARK  9 active torsions:
REMARK  status: ('A' for Active; 'I' for Inactive)
REMARK    1  A    between atoms: C_1  and  N_2
REMARK    2  A    between atoms: N_2  and  C_3
REMARK    3  A    between atoms: N_2  and  C_20
REMARK    4  A    between atoms: C_3  and  C_4
REMARK    5  A    between atoms: C_4  and  C_5
REMARK    6  A    between atoms: C_5  and  N_6
REMARK    7  A    between atoms: N_6  and  C_7
REMARK    8  A    between atoms: C_7  and  C_8
REMARK    9  A    between atoms: C_11  and  C_12
REMARK                            x       y       z     vdW  Elec       q    Type
REMARK                         _______ _______ _______ _____ _____    ______ ____
ROOT
ATOM      1  N   UNL     1       7.661   7.265  16.856  0.00  0.00    +0.000 NA
ATOM      2  H   UNL     1       8.466   7.377  16.236  0.00  0.00    +0.000 HD
ENDROOT
BRANCH   1   3
ATOM      3  C   UNL     1       7.945   7.895  18.149  0.00  0.00    +0.000 C 
BRANCH   3   4
ATOM      4  C   UNL     1       8.312   9.381  18.051  0.00  0.00    +0.000 C 
BRANCH   4   5
ATOM      5  C   UNL     1       9.397   9.752  19.065  0.00  0.00    +0.000 C 
BRANCH   5   7
ATOM      6  C   UNL     1       9.023  11.459  20.859  0.00  0.00    +0.000 C 
ATOM      7  N   UNL     1       9.302  11.167  19.457  0.00  0.00    +0.000 N 
BRANCH   7   8
ATOM      8  C   UNL     1       9.916  12.134  18.661  0.00  0.00    +0.000 A 
ATOM      9  C   UNL     1       9.434  13.449  18.550  0.00  0.00    +0.000 A 
ATOM     10  C   UNL     1      10.061  14.402  17.735  0.00  0.00    +0.000 A 
ATOM     11  C   UNL     1      11.183  14.055  16.994  0.00  0.00    +0.000 A 
ATOM     12  C   UNL     1      11.680  12.761  17.074  0.00  0.00    +0.000 A 
ATOM     13  C   UNL     1      11.054  11.819  17.899  0.00  0.00    +0.000 A 
ENDBRANCH   7   8
ENDBRANCH   5   7
ENDBRANCH   4   5
ENDBRANCH   3   4
ENDBRANCH   1   3
BRANCH   1  14
ATOM     14  C   UNL     1       7.396   5.832  16.987  0.00  0.00    +0.000 C 
BRANCH  14  15
ATOM     15  C   UNL     1       5.937   5.615  17.152  0.00  0.00    +0.000 A 
ATOM     16  C   UNL     1       4.879   6.137  16.447  0.00  0.00    +0.000 A 
ATOM     17  O   UNL     1       3.727   5.700  17.028  0.00  0.00    +0.000 OA
ATOM     18  C   UNL     1       4.148   4.916  18.075  0.00  0.00    +0.000 A 
ATOM     19  N   UNL     1       5.459   4.818  18.167  0.00  0.00    +0.000 NA
BRANCH  18  20
ATOM     20  C   UNL     1       3.101   4.333  18.914  0.00  0.00    +0.000 A 
ATOM     21  C   UNL     1       2.922   2.936  18.914  0.00  0.00    +0.000 A 
ATOM     22  C   UNL     1       1.964   2.326  19.728  0.00  0.00    +0.000 A 
ATOM     23  C   UNL     1       1.157   3.102  20.551  0.00  0.00    +0.000 A 
ATOM     24  C   UNL     1       1.306   4.487  20.560  0.00  0.00    +0.000 A 
ATOM     25  C   UNL     1       2.272   5.103  19.749  0.00  0.00    +0.000 A 
ATOM     26 BR   UNL     1       2.316   7.008  19.820  0.00  0.00    +0.000 Br
ENDBRANCH  18  20
ENDBRANCH  14  15
ENDBRANCH   1  14
TORSDOF 8
ENDMDL
MODEL 2
REMARK VINA RESULT:      -7.2      1.600      2.303
REMARK  Name = 
REMARK  9 active torsions:
REMARK  status: ('A' for Active; 'I' for Inactive)
REMARK    1  A    between atoms: C_1  and  N_2
REMARK    2  A    between atoms: N_2  and  C_3
REMARK    3  A    between atoms: N_2  and  C_20
REMARK    4  A    between atoms: C_3  and  C_4
REMARK    5  A    between atoms: C_4  and  C_5
REMARK    6  A    between atoms: C_5  and  N_6
REMARK    7  A    between atoms: N_6  and  C_7
REMARK    8  A    between atoms: C_7  and  C_8
REMARK    9  A    between atoms: C_11  and  C_12
REMARK                            x       y       z     vdW  Elec       q    Type
REMARK                         _______ _______ _______ _____ _____    ______ ____
ROOT
ATOM      1  N   UNL     1       7.190   7.998  17.335  0.00  0.00    +0.000 NA
ATOM      2  H   UNL     1       7.137   8.573  16.491  0.00  0.00    +0.000 HD
ENDROOT
BRANCH   1   3
ATOM      3  C   UNL     1       8.365   8.387  18.122  0.00  0.00    +0.000 C 
BRANCH   3   4
ATOM      4  C   UNL     1       8.597   9.902  18.188  0.00  0.00    +0.000 C 
BRANCH   4   5
ATOM      5  C   UNL     1       9.339  10.293  19.468  0.00  0.00    +0.000 C 
BRANCH   5   7
ATOM      6  C   UNL     1      10.715  11.682  17.902  0.00  0.00    +0.000 C 
ATOM      7  N   UNL     1      10.202  11.465  19.250  0.00  0.00    +0.000 N 
BRANCH   7   8
ATOM      8  C   UNL     1      10.125  12.538  20.139  0.00  0.00    +0.000 A 
ATOM      9  C   UNL     1       9.356  12.502  21.313  0.00  0.00    +0.000 A 
ATOM     10  C   UNL     1       9.284  13.596  22.186  0.00  0.00    +0.000 A 
ATOM     11  C   UNL     1       9.973  14.767  21.895  0.00  0.00    +0.000 A 
ATOM     12  C   UNL     1      10.736  14.839  20.738  0.00  0.00    +0.000 A 
ATOM     13  C   UNL     1      10.811  13.737  19.877  0.00  0.00    +0.000 A 
ENDBRANCH   7   8
ENDBRANCH   5   7
ENDBRANCH   4   5
ENDBRANCH   3   4
ENDBRANCH   1   3
BRANCH   1  14
ATOM     14  C   UNL     1       7.245   6.597  16.918  0.00  0.00    +0.000 C 
BRANCH  14  15
ATOM     15  C   UNL     1       6.403   5.780  17.826  0.00  0.00    +0.000 A 
ATOM     16  C   UNL     1       6.713   5.186  19.026  0.00  0.00    +0.000 A 
ATOM     17  O   UNL     1       5.626   4.475  19.440  0.00  0.00    +0.000 OA
ATOM     18  C   UNL     1       4.690   4.678  18.454  0.00  0.00    +0.000 A 
ATOM     19  N   UNL     1       5.105   5.471  17.488  0.00  0.00    +0.000 NA
BRANCH  18  20
ATOM     20  C   UNL     1       3.411   3.989  18.621  0.00  0.00    +0.000 A 
ATOM     21  C   UNL     1       3.269   2.678  18.125  0.00  0.00    +0.000 A 
ATOM     22  C   UNL     1       2.082   1.961  18.295  0.00  0.00    +0.000 A 
ATOM     23  C   UNL     1       1.007   2.544  18.956  0.00  0.00    +0.000 A 
ATOM     24  C   UNL     1       1.119   3.843  19.445  0.00  0.00    +0.000 A 
ATOM     25  C   UNL     1       2.311   4.565  19.282  0.00  0.00    +0.000 A 
ATOM     26 BR   UNL     1       2.294   6.352  19.948  0.00  0.00    +0.000 Br
ENDBRANCH  18  20
ENDBRANCH  14  15
ENDBRANCH   1  14
TORSDOF 8
ENDMDL
MODEL 3
REMARK VINA RESULT:      -7.1      1.721      2.876
REMARK  Name = 
REMARK  9 active torsions:
REMARK  status: ('A' for Active; 'I' for Inactive)
REMARK    1  A    between atoms: C_1  and  N_2
REMARK    2  A    between atoms: N_2  and  C_3
REMARK    3  A    between atoms: N_2  and  C_20
REMARK    4  A    between atoms: C_3  and  C_4
REMARK    5  A    between atoms: C_4  and  C_5
REMARK    6  A    between atoms: C_5  and  N_6
REMARK    7  A    between atoms: N_6  and  C_7
REMARK    8  A    between atoms: C_7  and  C_8
REMARK    9  A    between atoms: C_11  and  C_12
REMARK                            x       y       z     vdW  Elec       q    Type
REMARK                         _______ _______ _______ _____ _____    ______ ____
ROOT
ATOM      1  N   UNL     1       7.655   7.982  17.235  0.00  0.00    +0.000 NA
ATOM      2  H   UNL     1       8.165   8.144  16.364  0.00  0.00    +0.000 HD
ENDROOT
BRANCH   1   3
ATOM      3  C   UNL     1       8.403   8.559  18.357  0.00  0.00    +0.000 C 
BRANCH   3   4
ATOM      4  C   UNL     1       8.674  10.062  18.219  0.00  0.00    +0.000 C 
BRANCH   4   5
ATOM      5  C   UNL     1       9.608  10.561  19.323  0.00  0.00    +0.000 C 
BRANCH   5   7
ATOM      6  C   UNL     1       9.368  12.774  18.175  0.00  0.00    +0.000 C 
ATOM      7  N   UNL     1       9.601  12.030  19.408  0.00  0.00    +0.000 N 
BRANCH   7   8
ATOM      8  C   UNL     1       9.347  12.638  20.638  0.00  0.00    +0.000 A 
ATOM      9  C   UNL     1       9.647  13.985  20.899  0.00  0.00    +0.000 A 
ATOM     10  C   UNL     1       9.393  14.572  22.147  0.00  0.00    +0.000 A 
ATOM     11  C   UNL     1       8.843  13.815  23.174  0.00  0.00    +0.000 A 
ATOM     12  C   UNL     1       8.542  12.479  22.951  0.00  0.00    +0.000 A 
ATOM     13  C   UNL     1       8.789  11.904  21.699  0.00  0.00    +0.000 A 
ENDBRANCH   7   8
ENDBRANCH   5   7
ENDBRANCH   4   5
ENDBRANCH   3   4
ENDBRANCH   1   3
BRANCH   1  14
ATOM     14  C   UNL     1       7.469   6.538  17.381  0.00  0.00    +0.000 C 
BRANCH  14  15
ATOM     15  C   UNL     1       6.018   6.233  17.445  0.00  0.00    +0.000 A 
ATOM     16  C   UNL     1       4.988   6.657  16.640  0.00  0.00    +0.000 A 
ATOM     17  O   UNL     1       3.823   6.170  17.152  0.00  0.00    +0.000 OA
ATOM     18  C   UNL     1       4.209   5.457  18.262  0.00  0.00    +0.000 A 
ATOM     19  N   UNL     1       5.512   5.449  18.457  0.00  0.00    +0.000 NA
BRANCH  18  20
ATOM     20  C   UNL     1       3.138   4.842  19.044  0.00  0.00    +0.000 A 
ATOM     21  C   UNL     1       2.460   5.617  20.006  0.00  0.00    +0.000 A 
ATOM     22  C   UNL     1       1.403   5.089  20.751  0.00  0.00    +0.000 A 
ATOM     23  C   UNL     1       1.006   3.772  20.556  0.00  0.00    +0.000 A 
ATOM     24  C   UNL     1       1.668   2.981  19.620  0.00  0.00    +0.000 A 
ATOM     25  C   UNL     1       2.727   3.509  18.865  0.00  0.00    +0.000 A 
ATOM     26 BR   UNL     1       3.577   2.291  17.669  0.00  0.00    +0.000 Br
ENDBRANCH  18  20
ENDBRANCH  14  15
ENDBRANCH   1  14
TORSDOF 8
ENDMDL
MODEL 4
REMARK VINA RESULT:      -7.1      1.691      2.628
REMARK  Name = 
REMARK  9 active torsions:
REMARK  status: ('A' for Active; 'I' for Inactive)
REMARK    1  A    between atoms: C_1  and  N_2
REMARK    2  A    between atoms: N_2  and  C_3
REMARK    3  A    between atoms: N_2  and  C_20
REMARK    4  A    between atoms: C_3  and  C_4
REMARK    5  A    between atoms: C_4  and  C_5
REMARK    6  A    between atoms: C_5  and  N_6
REMARK    7  A    between atoms: N_6  and  C_7
REMARK    8  A    between atoms: C_7  and  C_8
REMARK    9  A    between atoms: C_11  and  C_12
REMARK                            x       y       z     vdW  Elec       q    Type
REMARK                         _______ _______ _______ _____ _____    ______ ____
ROOT
ATOM      1  N   UNL     1       8.312   8.120  18.317  0.00  0.00    +0.000 NA
ATOM      2  H   UNL     1       7.938   7.887  19.239  0.00  0.00    +0.000 HD
ENDROOT
BRANCH   1   3
ATOM      3  C   UNL     1       8.282   9.573  18.127  0.00  0.00    +0.000 C 
BRANCH   3   4
ATOM      4  C   UNL     1       9.401  10.321  18.861  0.00  0.00    +0.000 C 
BRANCH   4   5
ATOM      5  C   UNL     1      10.112  11.306  17.931  0.00  0.00    +0.000 C 
BRANCH   5   7
ATOM      6  C   UNL     1      11.969  12.976  18.131  0.00  0.00    +0.000 C 
ATOM      7  N   UNL     1      10.755  12.392  18.690  0.00  0.00    +0.000 N 
BRANCH   7   8
ATOM      8  C   UNL     1       9.994  13.124  19.601  0.00  0.00    +0.000 A 
ATOM      9  C   UNL     1      10.279  13.161  20.976  0.00  0.00    +0.000 A 
ATOM     10  C   UNL     1       9.494  13.896  21.876  0.00  0.00    +0.000 A 
ATOM     11  C   UNL     1       8.389  14.603  21.421  0.00  0.00    +0.000 A 
ATOM     12  C   UNL     1       8.075  14.581  20.069  0.00  0.00    +0.000 A 
ATOM     13  C   UNL     1       8.870  13.853  19.176  0.00  0.00    +0.000 A 
ENDBRANCH   7   8
ENDBRANCH   5   7
ENDBRANCH   4   5
ENDBRANCH   3   4
ENDBRANCH   1   3
BRANCH   1  14
ATOM     14  C   UNL     1       7.506   7.416  17.318  0.00  0.00    +0.000 C 
BRANCH  14  15
ATOM     15  C   UNL     1       6.739   6.332  17.980  0.00  0.00    +0.000 A 
ATOM     16  C   UNL     1       7.133   5.424  18.934  0.00  0.00    +0.000 A 
ATOM     17  O   UNL     1       6.092   4.576  19.167  0.00  0.00    +0.000 OA
ATOM     18  C   UNL     1       5.097   5.020  18.330  0.00  0.00    +0.000 A 
ATOM     19  N   UNL     1       5.434   6.080  17.624  0.00  0.00    +0.000 NA
BRANCH  18  20
ATOM     20  C   UNL     1       3.849   4.257  18.342  0.00  0.00    +0.000 A 
ATOM     21  C   UNL     1       3.833   2.960  17.792  0.00  0.00    +0.000 A 
ATOM     22  C   UNL     1       2.678   2.174  17.816  0.00  0.00    +0.000 A 
ATOM     23  C   UNL     1       1.511   2.673  18.383  0.00  0.00    +0.000 A 
ATOM     24  C   UNL     1       1.498   3.957  18.922  0.00  0.00    +0.000 A 
ATOM     25  C   UNL     1       2.657   4.748  18.906  0.00  0.00    +0.000 A 
ATOM     26 BR   UNL     1       2.470   6.504  19.623  0.00  0.00    +0.000 Br
ENDBRANCH  18  20
ENDBRANCH  14  15
ENDBRANCH   1  14
TORSDOF 8
ENDMDL
MODEL 5
REMARK VINA RESULT:      -7.1      1.723      2.525
REMARK  Name = 
REMARK  9 active torsions:
REMARK  status: ('A' for Active; 'I' for Inactive)
REMARK    1  A    between atoms: C_1  and  N_2
REMARK    2  A    between atoms: N_2  and  C_3
REMARK    3  A    between atoms: N_2  and  C_20
REMARK    4  A    between atoms: C_3  and  C_4
REMARK    5  A    between atoms: C_4  and  C_5
REMARK    6  A    between atoms: C_5  and  N_6
REMARK    7  A    between atoms: N_6  and  C_7
REMARK    8  A    between atoms: C_7  and  C_8
REMARK    9  A    between atoms: C_11  and  C_12
REMARK                            x       y       z     vdW  Elec       q    Type
REMARK                         _______ _______ _______ _____ _____    ______ ____
ROOT
ATOM      1  N   UNL     1       7.080   8.030  17.320  0.00  0.00    +0.000 NA
ATOM      2  H   UNL     1       7.154   8.440  16.387  0.00  0.00    +0.000 HD
ENDROOT
BRANCH   1   3
ATOM      3  C   UNL     1       8.280   8.356  18.098  0.00  0.00    +0.000 C 
BRANCH   3   4
ATOM      4  C   UNL     1       8.594   9.855  18.161  0.00  0.00    +0.000 C 
BRANCH   4   5
ATOM      5  C   UNL     1       9.339  10.212  19.449  0.00  0.00    +0.000 C 
BRANCH   5   7
ATOM      6  C   UNL     1      10.670  11.699  17.936  0.00  0.00    +0.000 C 
ATOM      7  N   UNL     1      10.165  11.418  19.274  0.00  0.00    +0.000 N 
BRANCH   7   8
ATOM      8  C   UNL     1      10.055  12.455  20.201  0.00  0.00    +0.000 A 
ATOM      9  C   UNL     1       9.235  12.377  21.339  0.00  0.00    +0.000 A 
ATOM     10  C   UNL     1       9.131  13.436  22.251  0.00  0.00    +0.000 A 
ATOM     11  C   UNL     1       9.838  14.613  22.037  0.00  0.00    +0.000 A 
ATOM     12  C   UNL     1      10.651  14.725  20.918  0.00  0.00    +0.000 A 
ATOM     13  C   UNL     1      10.757  13.658  20.018  0.00  0.00    +0.000 A 
ENDBRANCH   7   8
ENDBRANCH   5   7
ENDBRANCH   4   5
ENDBRANCH   3   4
ENDBRANCH   1   3
BRANCH   1  14
ATOM     14  C   UNL     1       6.901   6.586  17.161  0.00  0.00    +0.000 C 
BRANCH  14  15
ATOM     15  C   UNL     1       5.509   6.220  17.524  0.00  0.00    +0.000 A 
ATOM     16  C   UNL     1       4.319   6.814  17.178  0.00  0.00    +0.000 A 
ATOM     17  O   UNL     1       3.315   6.158  17.825  0.00  0.00    +0.000 OA
ATOM     18  C   UNL     1       3.956   5.177  18.544  0.00  0.00    +0.000 A 
ATOM     19  N   UNL     1       5.262   5.164  18.371  0.00  0.00    +0.000 NA
BRANCH  18  20
ATOM     20  C   UNL     1       3.110   4.325  19.379  0.00  0.00    +0.000 A 
ATOM     21  C   UNL     1       2.807   4.738  20.692  0.00  0.00    +0.000 A 
ATOM     22  C   UNL     1       1.970   3.982  21.516  0.00  0.00    +0.000 A 
ATOM     23  C   UNL     1       1.426   2.791  21.049  0.00  0.00    +0.000 A 
ATOM     24  C   UNL     1       1.721   2.356  19.759  0.00  0.00    +0.000 A 
ATOM     25  C   UNL     1       2.556   3.115  18.925  0.00  0.00    +0.000 A 
ATOM     26 BR   UNL     1       2.919   2.362  17.212  0.00  0.00    +0.000 Br
ENDBRANCH  18  20
ENDBRANCH  14  15
ENDBRANCH   1  14
TORSDOF 8
ENDMDL
MODEL 6
REMARK VINA RESULT:      -7.0      5.503      8.721
REMARK  Name = 
REMARK  9 active torsions:
REMARK  status: ('A' for Active; 'I' for Inactive)
REMARK    1  A    between atoms: C_1  and  N_2
REMARK    2  A    between atoms: N_2  and  C_3
REMARK    3  A    between atoms: N_2  and  C_20
REMARK    4  A    between atoms: C_3  and  C_4
REMARK    5  A    between atoms: C_4  and  C_5
REMARK    6  A    between atoms: C_5  and  N_6
REMARK    7  A    between atoms: N_6  and  C_7
REMARK    8  A    between atoms: C_7  and  C_8
REMARK    9  A    between atoms: C_11  and  C_12
REMARK                            x       y       z     vdW  Elec       q    Type
REMARK                         _______ _______ _______ _____ _____    ______ ____
ROOT
ATOM      1  N   UNL     1       2.165   7.368  20.688  0.00  0.00    +0.000 NA
ATOM      2  H   UNL     1       1.980   7.633  21.658  0.00  0.00    +0.000 HD
ENDROOT
BRANCH   1   3
ATOM      3  C   UNL     1       1.543   8.342  19.785  0.00  0.00    +0.000 C 
BRANCH   3   4
ATOM      4  C   UNL     1       0.755   9.443  20.504  0.00  0.00    +0.000 C 
BRANCH   4   5
ATOM      5  C   UNL     1       0.428  10.599  19.556  0.00  0.00    +0.000 C 
BRANCH   5   7
ATOM      6  C   UNL     1      -1.286  12.003  20.725  0.00  0.00    +0.000 C 
ATOM      7  N   UNL     1      -0.976  11.023  19.690  0.00  0.00    +0.000 N 
BRANCH   7   8
ATOM      8  C   UNL     1      -1.836  10.872  18.603  0.00  0.00    +0.000 A 
ATOM      9  C   UNL     1      -1.551  10.030  17.515  0.00  0.00    +0.000 A 
ATOM     10  C   UNL     1      -2.426   9.903  16.427  0.00  0.00    +0.000 A 
ATOM     11  C   UNL     1      -3.607  10.633  16.393  0.00  0.00    +0.000 A 
ATOM     12  C   UNL     1      -3.915  11.481  17.448  0.00  0.00    +0.000 A 
ATOM     13  C   UNL     1      -3.041  11.593  18.536  0.00  0.00    +0.000 A 
ENDBRANCH   7   8
ENDBRANCH   5   7
ENDBRANCH   4   5
ENDBRANCH   3   4
ENDBRANCH   1   3
BRANCH   1  14
ATOM     14  C   UNL     1       1.640   6.017  20.488  0.00  0.00    +0.000 C 
BRANCH  14  15
ATOM     15  C   UNL     1       2.664   5.188  19.805  0.00  0.00    +0.000 A 
ATOM     16  C   UNL     1       3.200   3.973  20.159  0.00  0.00    +0.000 A 
ATOM     17  O   UNL     1       4.166   3.656  19.252  0.00  0.00    +0.000 OA
ATOM     18  C   UNL     1       4.169   4.712  18.373  0.00  0.00    +0.000 A 
ATOM     19  N   UNL     1       3.270   5.634  18.652  0.00  0.00    +0.000 NA
BRANCH  18  20
ATOM     20  C   UNL     1       5.154   4.656  17.293  0.00  0.00    +0.000 A 
ATOM     21  C   UNL     1       4.750   4.209  16.020  0.00  0.00    +0.000 A 
ATOM     22  C   UNL     1       5.641   4.176  14.944  0.00  0.00    +0.000 A 
ATOM     23  C   UNL     1       6.959   4.581  15.121  0.00  0.00    +0.000 A 
ATOM     24  C   UNL     1       7.385   5.016  16.374  0.00  0.00    +0.000 A 
ATOM     25  C   UNL     1       6.492   5.057  17.456  0.00  0.00    +0.000 A 
ATOM     26 BR   UNL     1       7.235   5.614  19.121  0.00  0.00    +0.000 Br
ENDBRANCH  18  20
ENDBRANCH  14  15
ENDBRANCH   1  14
TORSDOF 8
ENDMDL
MODEL 7
REMARK VINA RESULT:      -7.0      5.433      8.101
REMARK  Name = 
REMARK  9 active torsions:
REMARK  status: ('A' for Active; 'I' for Inactive)
REMARK    1  A    between atoms: C_1  and  N_2
REMARK    2  A    between atoms: N_2  and  C_3
REMARK    3  A    between atoms: N_2  and  C_20
REMARK    4  A    between atoms: C_3  and  C_4
REMARK    5  A    between atoms: C_4  and  C_5
REMARK    6  A    between atoms: C_5  and  N_6
REMARK    7  A    between atoms: N_6  and  C_7
REMARK    8  A    between atoms: C_7  and  C_8
REMARK    9  A    between atoms: C_11  and  C_12
REMARK                            x       y       z     vdW  Elec       q    Type
REMARK                         _______ _______ _______ _____ _____    ______ ____
ROOT
ATOM      1  N   UNL     1       2.173   5.398  21.269  0.00  0.00    +0.000 NA
ATOM      2  H   UNL     1       2.043   5.242  22.271  0.00  0.00    +0.000 HD
ENDROOT
BRANCH   1   3
ATOM      3  C   UNL     1       1.240   6.432  20.808  0.00  0.00    +0.000 C 
BRANCH   3   4
ATOM      4  C   UNL     1       1.923   7.644  20.161  0.00  0.00    +0.000 C 
BRANCH   4   5
ATOM      5  C   UNL     1       1.094   8.915  20.354  0.00  0.00    +0.000 C 
BRANCH   5   7
ATOM      6  C   UNL     1       1.866   9.320  18.006  0.00  0.00    +0.000 C 
ATOM      7  N   UNL     1       0.956   9.662  19.094  0.00  0.00    +0.000 N 
BRANCH   7   8
ATOM      8  C   UNL     1      -0.257  10.289  18.806  0.00  0.00    +0.000 A 
ATOM      9  C   UNL     1      -0.816  11.282  19.628  0.00  0.00    +0.000 A 
ATOM     10  C   UNL     1      -2.041  11.891  19.325  0.00  0.00    +0.000 A 
ATOM     11  C   UNL     1      -2.750  11.506  18.194  0.00  0.00    +0.000 A 
ATOM     12  C   UNL     1      -2.230  10.521  17.365  0.00  0.00    +0.000 A 
ATOM     13  C   UNL     1      -1.000   9.927  17.670  0.00  0.00    +0.000 A 
ENDBRANCH   7   8
ENDBRANCH   5   7
ENDBRANCH   4   5
ENDBRANCH   3   4
ENDBRANCH   1   3
BRANCH   1  14
ATOM     14  C   UNL     1       1.962   4.121  20.587  0.00  0.00    +0.000 C 
BRANCH  14  15
ATOM     15  C   UNL     1       3.176   3.773  19.808  0.00  0.00    +0.000 A 
ATOM     16  C   UNL     1       4.189   2.890  20.096  0.00  0.00    +0.000 A 
ATOM     17  O   UNL     1       5.123   2.981  19.108  0.00  0.00    +0.000 OA
ATOM     18  C   UNL     1       4.621   3.929  18.250  0.00  0.00    +0.000 A 
ATOM     19  N   UNL     1       3.450   4.407  18.618  0.00  0.00    +0.000 NA
BRANCH  18  20
ATOM     20  C   UNL     1       5.451   4.263  17.093  0.00  0.00    +0.000 A 
ATOM     21  C   UNL     1       5.077   3.785  15.821  0.00  0.00    +0.000 A 
ATOM     22  C   UNL     1       5.812   4.109  14.678  0.00  0.00    +0.000 A 
ATOM     23  C   UNL     1       6.942   4.910  14.783  0.00  0.00    +0.000 A 
ATOM     24  C   UNL     1       7.339   5.385  16.031  0.00  0.00    +0.000 A 
ATOM     25  C   UNL     1       6.601   5.067  17.182  0.00  0.00    +0.000 A 
ATOM     26 BR   UNL     1       7.301   5.736  18.824  0.00  0.00    +0.000 Br
ENDBRANCH  18  20
ENDBRANCH  14  15
ENDBRANCH   1  14
TORSDOF 8
ENDMDL
MODEL 8
REMARK VINA RESULT:      -7.0      5.391      8.411
REMARK  Name = 
REMARK  9 active torsions:
REMARK  status: ('A' for Active; 'I' for Inactive)
REMARK    1  A    between atoms: C_1  and  N_2
REMARK    2  A    between atoms: N_2  and  C_3
REMARK    3  A    between atoms: N_2  and  C_20
REMARK    4  A    between atoms: C_3  and  C_4
REMARK    5  A    between atoms: C_4  and  C_5
REMARK    6  A    between atoms: C_5  and  N_6
REMARK    7  A    between atoms: N_6  and  C_7
REMARK    8  A    between atoms: C_7  and  C_8
REMARK    9  A    between atoms: C_11  and  C_12
REMARK                            x       y       z     vdW  Elec       q    Type
REMARK                         _______ _______ _______ _____ _____    ______ ____
ROOT
ATOM      1  N   UNL     1       2.130   7.070  20.583  0.00  0.00    +0.000 NA
ATOM      2  H   UNL     1       2.883   7.377  21.203  0.00  0.00    +0.000 HD
ENDROOT
BRANCH   1   3
ATOM      3  C   UNL     1       0.919   7.848  20.859  0.00  0.00    +0.000 C 
BRANCH   3   4
ATOM      4  C   UNL     1       1.184   9.327  21.165  0.00  0.00    +0.000 C 
BRANCH   4   5
ATOM      5  C   UNL     1      -0.078  10.169  20.964  0.00  0.00    +0.000 C 
BRANCH   5   7
ATOM      6  C   UNL     1       1.282  11.260  19.165  0.00  0.00    +0.000 C 
ATOM      7  N   UNL     1      -0.032  10.908  19.692  0.00  0.00    +0.000 N 
BRANCH   7   8
ATOM      8  C   UNL     1      -1.125  10.839  18.827  0.00  0.00    +0.000 A 
ATOM      9  C   UNL     1      -2.290  11.603  19.008  0.00  0.00    +0.000 A 
ATOM     10  C   UNL     1      -3.381  11.508  18.133  0.00  0.00    +0.000 A 
ATOM     11  C   UNL     1      -3.338  10.629  17.058  0.00  0.00    +0.000 A 
ATOM     12  C   UNL     1      -2.205   9.853  16.856  0.00  0.00    +0.000 A 
ATOM     13  C   UNL     1      -1.116   9.962  17.729  0.00  0.00    +0.000 A 
ENDBRANCH   7   8
ENDBRANCH   5   7
ENDBRANCH   4   5
ENDBRANCH   3   4
ENDBRANCH   1   3
BRANCH   1  14
ATOM     14  C   UNL     1       1.928   5.637  20.803  0.00  0.00    +0.000 C 
BRANCH  14  15
ATOM     15  C   UNL     1       2.838   4.870  19.917  0.00  0.00    +0.000 A 
ATOM     16  C   UNL     1       3.249   3.561  19.989  0.00  0.00    +0.000 A 
ATOM     17  O   UNL     1       4.151   3.345  18.991  0.00  0.00    +0.000 OA
ATOM     18  C   UNL     1       4.244   4.555  18.346  0.00  0.00    +0.000 A 
ATOM     19  N   UNL     1       3.458   5.484  18.851  0.00  0.00    +0.000 NA
BRANCH  18  20
ATOM     20  C   UNL     1       5.189   4.627  17.232  0.00  0.00    +0.000 A 
ATOM     21  C   UNL     1       4.769   4.214  15.952  0.00  0.00    +0.000 A 
ATOM     22  C   UNL     1       5.619   4.302  14.846  0.00  0.00    +0.000 A 
ATOM     23  C   UNL     1       6.909   4.794  14.998  0.00  0.00    +0.000 A 
ATOM     24  C   UNL     1       7.351   5.197  16.257  0.00  0.00    +0.000 A 
ATOM     25  C   UNL     1       6.500   5.117  17.370  0.00  0.00    +0.000 A 
ATOM     26 BR   UNL     1       7.263   5.644  19.035  0.00  0.00    +0.000 Br
ENDBRANCH  18  20
ENDBRANCH  14  15
ENDBRANCH   1  14
TORSDOF 8
ENDMDL
MODEL 9
REMARK VINA RESULT:      -6.9      5.400      8.382
REMARK  Name = 
REMARK  9 active torsions:
REMARK  status: ('A' for Active; 'I' for Inactive)
REMARK    1  A    between atoms: C_1  and  N_2
REMARK    2  A    between atoms: N_2  and  C_3
REMARK    3  A    between atoms: N_2  and  C_20
REMARK    4  A    between atoms: C_3  and  C_4
REMARK    5  A    between atoms: C_4  and  C_5
REMARK    6  A    between atoms: C_5  and  N_6
REMARK    7  A    between atoms: N_6  and  C_7
REMARK    8  A    between atoms: C_7  and  C_8
REMARK    9  A    between atoms: C_11  and  C_12
REMARK                            x       y       z     vdW  Elec       q    Type
REMARK                         _______ _______ _______ _____ _____    ______ ____
ROOT
ATOM      1  N   UNL     1       2.046   6.357  20.712  0.00  0.00    +0.000 NA
ATOM      2  H   UNL     1       2.781   6.463  21.414  0.00  0.00    +0.000 HD
ENDROOT
BRANCH   1   3
ATOM      3  C   UNL     1       1.494   5.000  20.778  0.00  0.00    +0.000 C 
BRANCH   3   4
ATOM      4  C   UNL     1       1.925   4.095  19.618  0.00  0.00    +0.000 C 
BRANCH   4   5
ATOM      5  C   UNL     1       3.136   3.241  20.001  0.00  0.00    +0.000 C 
BRANCH   5   7
ATOM      6  C   UNL     1       3.551   1.649  18.112  0.00  0.00    +0.000 C 
ATOM      7  N   UNL     1       3.927   2.870  18.817  0.00  0.00    +0.000 N 
BRANCH   7   8
ATOM      8  C   UNL     1       4.648   3.858  18.146  0.00  0.00    +0.000 A 
ATOM      9  C   UNL     1       4.476   4.132  16.779  0.00  0.00    +0.000 A 
ATOM     10  C   UNL     1       5.220   5.122  16.122  0.00  0.00    +0.000 A 
ATOM     11  C   UNL     1       6.171   5.857  16.819  0.00  0.00    +0.000 A 
ATOM     12  C   UNL     1       6.371   5.605  18.170  0.00  0.00    +0.000 A 
ATOM     13  C   UNL     1       5.616   4.622  18.820  0.00  0.00    +0.000 A 
ENDBRANCH   7   8
ENDBRANCH   5   7
ENDBRANCH   4   5
ENDBRANCH   3   4
ENDBRANCH   1   3
BRANCH   1  14
ATOM     14  C   UNL     1       2.632   6.652  19.404  0.00  0.00    +0.000 C 
BRANCH  14  15
ATOM     15  C   UNL     1       2.122   7.959  18.920  0.00  0.00    +0.000 A 
ATOM     16  C   UNL     1       2.347   8.612  17.732  0.00  0.00    +0.000 A 
ATOM     17  O   UNL     1       1.723   9.822  17.789  0.00  0.00    +0.000 OA
ATOM     18  C   UNL     1       1.135   9.844  19.031  0.00  0.00    +0.000 A 
ATOM     19  N   UNL     1       1.327   8.742  19.726  0.00  0.00    +0.000 NA
BRANCH  18  20
ATOM     20  C   UNL     1       0.412  11.065  19.386  0.00  0.00    +0.000 A 
ATOM     21  C   UNL     1       0.996  11.966  20.298  0.00  0.00    +0.000 A 
ATOM     22  C   UNL     1       0.366  13.166  20.639  0.00  0.00    +0.000 A 
ATOM     23  C   UNL     1      -0.866  13.486  20.082  0.00  0.00    +0.000 A 
ATOM     24  C   UNL     1      -1.470  12.605  19.187  0.00  0.00    +0.000 A 
ATOM     25  C   UNL     1      -0.838  11.402  18.837  0.00  0.00    +0.000 A 
ATOM     26 BR   UNL     1      -1.813  10.271  17.651  0.00  0.00    +0.000 Br
ENDBRANCH  18  20
ENDBRANCH  14  15
ENDBRANCH   1  14
TORSDOF 8
ENDMDL
