MODEL 1
REMARK VINA RESULT:      -7.5      0.000      0.000
REMARK  Name = 
REMARK  12 active torsions:
REMARK  status: ('A' for Active; 'I' for Inactive)
REMARK    1  A    between atoms: C_1  and  O_2
REMARK    2  A    between atoms: O_2  and  C_3
REMARK    3  A    between atoms: C_3  and  C_5
REMARK    4  A    between atoms: C_5  and  C_6
REMARK    5  A    between atoms: C_5  and  N_13
REMARK    6  A    between atoms: C_6  and  C_7
REMARK    7  A    between atoms: N_13  and  C_14
REMARK    8  A    between atoms: C_14  and  C_15
REMARK    9  A    between atoms: C_14  and  C_17
REMARK   10  A    between atoms: C_17  and  N_18
REMARK   11  A    between atoms: C_17  and  C_19
REMARK   12  A    between atoms: C_19  and  C_20
REMARK                            x       y       z     vdW  Elec       q    Type
REMARK                         _______ _______ _______ _____ _____    ______ ____
ROOT
ATOM      1  N   UNL     1       5.977   5.791  19.031  0.00  0.00    +0.000 NA
ATOM      2  H   UNL     1       6.517   4.991  19.360  0.00  0.00    +0.000 HD
ENDROOT
BRANCH   1   3
ATOM      3  C   UNL     1       4.521   5.450  19.190  0.00  0.00    +0.000 C 
BRANCH   3   4
ATOM      4  C   UNL     1       4.322   3.911  19.219  0.00  0.00    +0.000 C 
ATOM      5  O   UNL     1       5.160   3.095  19.582  0.00  0.00    +0.000 OA
BRANCH   4   7
ATOM      6  C   UNL     1       2.248   2.769  19.594  0.00  0.00    +0.000 C 
ATOM      7  O   UNL     1       3.077   3.586  18.750  0.00  0.00    +0.000 OA
ENDBRANCH   4   7
ENDBRANCH   3   4
BRANCH   3   8
ATOM      8  C   UNL     1       3.557   6.078  18.147  0.00  0.00    +0.000 C 
BRANCH   8   9
ATOM      9  C   UNL     1       2.663   7.224  18.582  0.00  0.00    +0.000 A 
ATOM     10  C   UNL     1       2.274   8.274  17.739  0.00  0.00    +0.000 A 
ATOM     11  C   UNL     1       1.533   9.351  18.236  0.00  0.00    +0.000 A 
ATOM     12  C   UNL     1       1.123   9.365  19.565  0.00  0.00    +0.000 A 
ATOM     13  C   UNL     1       1.411   8.281  20.386  0.00  0.00    +0.000 A 
ATOM     14  C   UNL     1       2.166   7.215  19.896  0.00  0.00    +0.000 A 
ENDBRANCH   8   9
ENDBRANCH   3   8
ENDBRANCH   1   3
BRANCH   1  15
ATOM     15  C   UNL     1       6.412   6.180  17.650  0.00  0.00    +0.000 C 
BRANCH  15  16
ATOM     16  C   UNL     1       7.278   7.429  17.683  0.00  0.00    +0.000 C 
ATOM     17  N   UNL     1       7.996   8.465  17.709  0.00  0.00    +0.000 NA
ENDBRANCH  15  16
BRANCH  15  18
ATOM     18  C   UNL     1       7.116   5.018  16.882  0.00  0.00    +0.000 C 
BRANCH  18  19
ATOM     19  N   UNL     1       7.727   4.032  17.793  0.00  0.00    +0.000 NA
ATOM     20  H   UNL     1       8.483   4.476  18.318  0.00  0.00    +0.000 HD
ATOM     21  H   UNL     1       8.171   3.285  17.257  0.00  0.00    +0.000 HD
ENDBRANCH  18  19
BRANCH  18  22
ATOM     22  C   UNL     1       6.086   4.341  15.934  0.00  0.00    +0.000 C 
BRANCH  22  23
ATOM     23  C   UNL     1       6.453   4.345  14.471  0.00  0.00    +0.000 A 
ATOM     24  C   UNL     1       5.785   3.480  13.585  0.00  0.00    +0.000 A 
ATOM     25  C   UNL     1       6.134   3.431  12.237  0.00  0.00    +0.000 A 
ATOM     26  C   UNL     1       7.147   4.263  11.764  0.00  0.00    +0.000 A 
ATOM     27  C   UNL     1       7.793   5.152  12.622  0.00  0.00    +0.000 A 
ATOM     28  C   UNL     1       7.447   5.189  13.971  0.00  0.00    +0.000 A 
ENDBRANCH  22  23
ENDBRANCH  18  22
ENDBRANCH  15  18
ENDBRANCH   1  15
TORSDOF 11
ENDMDL
MODEL 2
REMARK VINA RESULT:      -7.2      0.433      1.055
REMARK  Name = 
REMARK  12 active torsions:
REMARK  status: ('A' for Active; 'I' for Inactive)
REMARK    1  A    between atoms: C_1  and  O_2
REMARK    2  A    between atoms: O_2  and  C_3
REMARK    3  A    between atoms: C_3  and  C_5
REMARK    4  A    between atoms: C_5  and  C_6
REMARK    5  A    between atoms: C_5  and  N_13
REMARK    6  A    between atoms: C_6  and  C_7
REMARK    7  A    between atoms: N_13  and  C_14
REMARK    8  A    between atoms: C_14  and  C_15
REMARK    9  A    between atoms: C_14  and  C_17
REMARK   10  A    between atoms: C_17  and  N_18
REMARK   11  A    between atoms: C_17  and  C_19
REMARK   12  A    between atoms: C_19  and  C_20
REMARK                            x       y       z     vdW  Elec       q    Type
REMARK                         _______ _______ _______ _____ _____    ______ ____
ROOT
ATOM      1  N   UNL     1       6.161   5.641  18.881  0.00  0.00    +0.000 NA
ATOM      2  H   UNL     1       6.666   4.758  18.958  0.00  0.00    +0.000 HD
ENDROOT
BRANCH   1   3
ATOM      3  C   UNL     1       4.703   5.350  19.102  0.00  0.00    +0.000 C 
BRANCH   3   4
ATOM      4  C   UNL     1       4.447   3.819  19.097  0.00  0.00    +0.000 C 
ATOM      5  O   UNL     1       5.046   2.998  19.781  0.00  0.00    +0.000 OA
BRANCH   4   7
ATOM      6  C   UNL     1       2.522   2.491  18.569  0.00  0.00    +0.000 C 
ATOM      7  O   UNL     1       3.468   3.505  18.193  0.00  0.00    +0.000 OA
ENDBRANCH   4   7
ENDBRANCH   3   4
BRANCH   3   8
ATOM      8  C   UNL     1       3.715   6.043  18.125  0.00  0.00    +0.000 C 
BRANCH   8   9
ATOM      9  C   UNL     1       2.773   7.099  18.673  0.00  0.00    +0.000 A 
ATOM     10  C   UNL     1       2.343   8.216  17.944  0.00  0.00    +0.000 A 
ATOM     11  C   UNL     1       1.557   9.203  18.547  0.00  0.00    +0.000 A 
ATOM     12  C   UNL     1       1.145   9.059  19.867  0.00  0.00    +0.000 A 
ATOM     13  C   UNL     1       1.475   7.907  20.571  0.00  0.00    +0.000 A 
ATOM     14  C   UNL     1       2.274   6.930  19.976  0.00  0.00    +0.000 A 
ENDBRANCH   8   9
ENDBRANCH   3   8
ENDBRANCH   1   3
BRANCH   1  15
ATOM     15  C   UNL     1       6.506   6.326  17.593  0.00  0.00    +0.000 C 
BRANCH  15  16
ATOM     16  C   UNL     1       7.428   7.510  17.833  0.00  0.00    +0.000 C 
ATOM     17  N   UNL     1       8.194   8.492  18.033  0.00  0.00    +0.000 NA
ENDBRANCH  15  16
BRANCH  15  18
ATOM     18  C   UNL     1       7.093   5.353  16.522  0.00  0.00    +0.000 C 
BRANCH  18  19
ATOM     19  N   UNL     1       7.876   4.259  17.128  0.00  0.00    +0.000 NA
ATOM     20  H   UNL     1       8.788   4.613  17.420  0.00  0.00    +0.000 HD
ATOM     21  H   UNL     1       8.074   3.541  16.430  0.00  0.00    +0.000 HD
ENDBRANCH  18  19
BRANCH  18  22
ATOM     22  C   UNL     1       5.930   4.796  15.652  0.00  0.00    +0.000 C 
BRANCH  22  23
ATOM     23  C   UNL     1       6.292   4.459  14.228  0.00  0.00    +0.000 A 
ATOM     24  C   UNL     1       7.393   5.092  13.623  0.00  0.00    +0.000 A 
ATOM     25  C   UNL     1       7.724   4.833  12.294  0.00  0.00    +0.000 A 
ATOM     26  C   UNL     1       6.961   3.923  11.567  0.00  0.00    +0.000 A 
ATOM     27  C   UNL     1       5.890   3.259  12.163  0.00  0.00    +0.000 A 
ATOM     28  C   UNL     1       5.557   3.530  13.488  0.00  0.00    +0.000 A 
ENDBRANCH  22  23
ENDBRANCH  18  22
ENDBRANCH  15  18
ENDBRANCH   1  15
TORSDOF 11
ENDMDL
MODEL 3
REMARK VINA RESULT:      -6.9      1.320      1.768
REMARK  Name = 
REMARK  12 active torsions:
REMARK  status: ('A' for Active; 'I' for Inactive)
REMARK    1  A    between atoms: C_1  and  O_2
REMARK    2  A    between atoms: O_2  and  C_3
REMARK    3  A    between atoms: C_3  and  C_5
REMARK    4  A    between atoms: C_5  and  C_6
REMARK    5  A    between atoms: C_5  and  N_13
REMARK    6  A    between atoms: C_6  and  C_7
REMARK    7  A    between atoms: N_13  and  C_14
REMARK    8  A    between atoms: C_14  and  C_15
REMARK    9  A    between atoms: C_14  and  C_17
REMARK   10  A    between atoms: C_17  and  N_18
REMARK   11  A    between atoms: C_17  and  C_19
REMARK   12  A    between atoms: C_19  and  C_20
REMARK                            x       y       z     vdW  Elec       q    Type
REMARK                         _______ _______ _______ _____ _____    ______ ____
ROOT
ATOM      1  N   UNL     1       4.840   4.631  19.379  0.00  0.00    +0.000 NA
ATOM      2  H   UNL     1       4.699   3.636  19.203  0.00  0.00    +0.000 HD
ENDROOT
BRANCH   1   3
ATOM      3  C   UNL     1       3.494   5.233  19.676  0.00  0.00    +0.000 C 
BRANCH   3   4
ATOM      4  C   UNL     1       2.494   4.134  20.125  0.00  0.00    +0.000 C 
ATOM      5  O   UNL     1       1.837   4.154  21.159  0.00  0.00    +0.000 OA
BRANCH   4   7
ATOM      6  C   UNL     1       1.183   2.563  18.877  0.00  0.00    +0.000 C 
ATOM      7  O   UNL     1       2.467   3.116  19.211  0.00  0.00    +0.000 OA
ENDBRANCH   4   7
ENDBRANCH   3   4
BRANCH   3   8
ATOM      8  C   UNL     1       2.859   6.077  18.538  0.00  0.00    +0.000 C 
BRANCH   8   9
ATOM      9  C   UNL     1       2.236   7.415  18.888  0.00  0.00    +0.000 A 
ATOM     10  C   UNL     1       1.732   7.734  20.156  0.00  0.00    +0.000 A 
ATOM     11  C   UNL     1       1.077   8.948  20.380  0.00  0.00    +0.000 A 
ATOM     12  C   UNL     1       0.967   9.883  19.356  0.00  0.00    +0.000 A 
ATOM     13  C   UNL     1       1.554   9.626  18.122  0.00  0.00    +0.000 A 
ATOM     14  C   UNL     1       2.191   8.406  17.893  0.00  0.00    +0.000 A 
ENDBRANCH   8   9
ENDBRANCH   3   8
ENDBRANCH   1   3
BRANCH   1  15
ATOM     15  C   UNL     1       5.602   5.256  18.250  0.00  0.00    +0.000 C 
BRANCH  15  16
ATOM     16  C   UNL     1       6.970   5.731  18.712  0.00  0.00    +0.000 C 
ATOM     17  N   UNL     1       8.105   6.125  19.095  0.00  0.00    +0.000 NA
ENDBRANCH  15  16
BRANCH  15  18
ATOM     18  C   UNL     1       5.713   4.328  17.000  0.00  0.00    +0.000 C 
BRANCH  18  19
ATOM     19  N   UNL     1       4.956   3.072  17.165  0.00  0.00    +0.000 NA
ATOM     20  H   UNL     1       4.414   2.887  16.319  0.00  0.00    +0.000 HD
ATOM     21  H   UNL     1       4.267   3.173  17.911  0.00  0.00    +0.000 HD
ENDBRANCH  18  19
BRANCH  18  22
ATOM     22  C   UNL     1       5.234   5.110  15.744  0.00  0.00    +0.000 C 
BRANCH  22  23
ATOM     23  C   UNL     1       5.894   4.716  14.446  0.00  0.00    +0.000 A 
ATOM     24  C   UNL     1       5.248   3.810  13.585  0.00  0.00    +0.000 A 
ATOM     25  C   UNL     1       5.853   3.394  12.402  0.00  0.00    +0.000 A 
ATOM     26  C   UNL     1       7.108   3.898  12.064  0.00  0.00    +0.000 A 
ATOM     27  C   UNL     1       7.745   4.825  12.887  0.00  0.00    +0.000 A 
ATOM     28  C   UNL     1       7.140   5.229  14.076  0.00  0.00    +0.000 A 
ENDBRANCH  22  23
ENDBRANCH  18  22
ENDBRANCH  15  18
ENDBRANCH   1  15
TORSDOF 11
ENDMDL
MODEL 4
REMARK VINA RESULT:      -6.9      2.164      7.270
REMARK  Name = 
REMARK  12 active torsions:
REMARK  status: ('A' for Active; 'I' for Inactive)
REMARK    1  A    between atoms: C_1  and  O_2
REMARK    2  A    between atoms: O_2  and  C_3
REMARK    3  A    between atoms: C_3  and  C_5
REMARK    4  A    between atoms: C_5  and  C_6
REMARK    5  A    between atoms: C_5  and  N_13
REMARK    6  A    between atoms: C_6  and  C_7
REMARK    7  A    between atoms: N_13  and  C_14
REMARK    8  A    between atoms: C_14  and  C_15
REMARK    9  A    between atoms: C_14  and  C_17
REMARK   10  A    between atoms: C_17  and  N_18
REMARK   11  A    between atoms: C_17  and  C_19
REMARK   12  A    between atoms: C_19  and  C_20
REMARK                            x       y       z     vdW  Elec       q    Type
REMARK                         _______ _______ _______ _____ _____    ______ ____
ROOT
ATOM      1  N   UNL     1       5.262   3.898  17.778  0.00  0.00    +0.000 NA
ATOM      2  H   UNL     1       5.282   4.617  18.502  0.00  0.00    +0.000 HD
ENDROOT
BRANCH   1   3
ATOM      3  C   UNL     1       6.161   4.354  16.663  0.00  0.00    +0.000 C 
BRANCH   3   4
ATOM      4  C   UNL     1       7.210   5.369  17.189  0.00  0.00    +0.000 C 
ATOM      5  O   UNL     1       7.495   6.435  16.654  0.00  0.00    +0.000 OA
BRANCH   4   7
ATOM      6  C   UNL     1       7.839   5.772  19.467  0.00  0.00    +0.000 C 
ATOM      7  O   UNL     1       7.799   4.894  18.329  0.00  0.00    +0.000 OA
ENDBRANCH   4   7
ENDBRANCH   3   4
BRANCH   3   8
ATOM      8  C   UNL     1       5.451   4.943  15.414  0.00  0.00    +0.000 C 
BRANCH   8   9
ATOM      9  C   UNL     1       5.854   4.435  14.042  0.00  0.00    +0.000 A 
ATOM     10  C   UNL     1       5.064   3.578  13.263  0.00  0.00    +0.000 A 
ATOM     11  C   UNL     1       5.545   3.068  12.054  0.00  0.00    +0.000 A 
ATOM     12  C   UNL     1       6.795   3.450  11.579  0.00  0.00    +0.000 A 
ATOM     13  C   UNL     1       7.546   4.380  12.288  0.00  0.00    +0.000 A 
ATOM     14  C   UNL     1       7.075   4.876  13.505  0.00  0.00    +0.000 A 
ENDBRANCH   8   9
ENDBRANCH   3   8
ENDBRANCH   1   3
BRANCH   1  15
ATOM     15  C   UNL     1       3.847   3.585  17.395  0.00  0.00    +0.000 C 
BRANCH  15  16
ATOM     16  C   UNL     1       3.325   2.384  18.167  0.00  0.00    +0.000 C 
ATOM     17  N   UNL     1       2.892   1.388  18.808  0.00  0.00    +0.000 NA
ENDBRANCH  15  16
BRANCH  15  18
ATOM     18  C   UNL     1       2.892   4.811  17.532  0.00  0.00    +0.000 C 
BRANCH  18  19
ATOM     19  N   UNL     1       1.479   4.409  17.665  0.00  0.00    +0.000 NA
ATOM     20  H   UNL     1       1.416   3.390  17.705  0.00  0.00    +0.000 HD
ATOM     21  H   UNL     1       0.956   4.681  16.832  0.00  0.00    +0.000 HD
ENDBRANCH  18  19
BRANCH  18  22
ATOM     22  C   UNL     1       3.346   5.674  18.744  0.00  0.00    +0.000 C 
BRANCH  22  23
ATOM     23  C   UNL     1       2.577   6.955  18.951  0.00  0.00    +0.000 A 
ATOM     24  C   UNL     1       2.017   7.234  20.210  0.00  0.00    +0.000 A 
ATOM     25  C   UNL     1       1.265   8.388  20.417  0.00  0.00    +0.000 A 
ATOM     26  C   UNL     1       1.082   9.281  19.363  0.00  0.00    +0.000 A 
ATOM     27  C   UNL     1       1.662   9.037  18.119  0.00  0.00    +0.000 A 
ATOM     28  C   UNL     1       2.404   7.876  17.915  0.00  0.00    +0.000 A 
ENDBRANCH  22  23
ENDBRANCH  18  22
ENDBRANCH  15  18
ENDBRANCH   1  15
TORSDOF 11
ENDMDL
MODEL 5
REMARK VINA RESULT:      -6.9      2.111      7.057
REMARK  Name = 
REMARK  12 active torsions:
REMARK  status: ('A' for Active; 'I' for Inactive)
REMARK    1  A    between atoms: C_1  and  O_2
REMARK    2  A    between atoms: O_2  and  C_3
REMARK    3  A    between atoms: C_3  and  C_5
REMARK    4  A    between atoms: C_5  and  C_6
REMARK    5  A    between atoms: C_5  and  N_13
REMARK    6  A    between atoms: C_6  and  C_7
REMARK    7  A    between atoms: N_13  and  C_14
REMARK    8  A    between atoms: C_14  and  C_15
REMARK    9  A    between atoms: C_14  and  C_17
REMARK   10  A    between atoms: C_17  and  N_18
REMARK   11  A    between atoms: C_17  and  C_19
REMARK   12  A    between atoms: C_19  and  C_20
REMARK                            x       y       z     vdW  Elec       q    Type
REMARK                         _______ _______ _______ _____ _____    ______ ____
ROOT
ATOM      1  N   UNL     1       4.820   4.323  18.072  0.00  0.00    +0.000 NA
ATOM      2  H   UNL     1       4.206   5.120  17.909  0.00  0.00    +0.000 HD
ENDROOT
BRANCH   1   3
ATOM      3  C   UNL     1       5.811   4.277  16.942  0.00  0.00    +0.000 C 
BRANCH   3   4
ATOM      4  C   UNL     1       7.211   4.739  17.426  0.00  0.00    +0.000 C 
ATOM      5  O   UNL     1       8.259   4.128  17.252  0.00  0.00    +0.000 OA
BRANCH   4   7
ATOM      6  C   UNL     1       8.014   6.132  19.204  0.00  0.00    +0.000 C 
ATOM      7  O   UNL     1       7.110   5.923  18.107  0.00  0.00    +0.000 OA
ENDBRANCH   4   7
ENDBRANCH   3   4
BRANCH   3   8
ATOM      8  C   UNL     1       5.420   5.065  15.662  0.00  0.00    +0.000 C 
BRANCH   8   9
ATOM      9  C   UNL     1       6.048   4.662  14.341  0.00  0.00    +0.000 A 
ATOM     10  C   UNL     1       7.247   5.199  13.851  0.00  0.00    +0.000 A 
ATOM     11  C   UNL     1       7.714   4.857  12.579  0.00  0.00    +0.000 A 
ATOM     12  C   UNL     1       7.022   3.934  11.803  0.00  0.00    +0.000 A 
ATOM     13  C   UNL     1       5.889   3.314  12.317  0.00  0.00    +0.000 A 
ATOM     14  C   UNL     1       5.412   3.668  13.580  0.00  0.00    +0.000 A 
ENDBRANCH   8   9
ENDBRANCH   3   8
ENDBRANCH   1   3
BRANCH   1  15
ATOM     15  C   UNL     1       4.012   3.079  18.287  0.00  0.00    +0.000 C 
BRANCH  15  16
ATOM     16  C   UNL     1       4.433   2.367  19.562  0.00  0.00    +0.000 C 
ATOM     17  N   UNL     1       4.782   1.778  20.621  0.00  0.00    +0.000 NA
ENDBRANCH  15  16
BRANCH  15  18
ATOM     18  C   UNL     1       2.473   3.338  18.259  0.00  0.00    +0.000 C 
BRANCH  18  19
ATOM     19  N   UNL     1       1.698   2.097  18.072  0.00  0.00    +0.000 NA
ATOM     20  H   UNL     1       1.783   1.513  18.905  0.00  0.00    +0.000 HD
ATOM     21  H   UNL     1       2.097   1.545  17.311  0.00  0.00    +0.000 HD
ENDBRANCH  18  19
BRANCH  18  22
ATOM     22  C   UNL     1       2.058   4.064  19.571  0.00  0.00    +0.000 C 
BRANCH  22  23
ATOM     23  C   UNL     1       1.991   5.569  19.483  0.00  0.00    +0.000 A 
ATOM     24  C   UNL     1       2.236   6.205  18.253  0.00  0.00    +0.000 A 
ATOM     25  C   UNL     1       2.225   7.594  18.153  0.00  0.00    +0.000 A 
ATOM     26  C   UNL     1       1.950   8.357  19.286  0.00  0.00    +0.000 A 
ATOM     27  C   UNL     1       1.667   7.741  20.504  0.00  0.00    +0.000 A 
ATOM     28  C   UNL     1       1.691   6.351  20.601  0.00  0.00    +0.000 A 
ENDBRANCH  22  23
ENDBRANCH  18  22
ENDBRANCH  15  18
ENDBRANCH   1  15
TORSDOF 11
ENDMDL
MODEL 6
REMARK VINA RESULT:      -6.8      1.956      7.401
REMARK  Name = 
REMARK  12 active torsions:
REMARK  status: ('A' for Active; 'I' for Inactive)
REMARK    1  A    between atoms: C_1  and  O_2
REMARK    2  A    between atoms: O_2  and  C_3
REMARK    3  A    between atoms: C_3  and  C_5
REMARK    4  A    between atoms: C_5  and  C_6
REMARK    5  A    between atoms: C_5  and  N_13
REMARK    6  A    between atoms: C_6  and  C_7
REMARK    7  A    between atoms: N_13  and  C_14
REMARK    8  A    between atoms: C_14  and  C_15
REMARK    9  A    between atoms: C_14  and  C_17
REMARK   10  A    between atoms: C_17  and  N_18
REMARK   11  A    between atoms: C_17  and  C_19
REMARK   12  A    between atoms: C_19  and  C_20
REMARK                            x       y       z     vdW  Elec       q    Type
REMARK                         _______ _______ _______ _____ _____    ______ ____
ROOT
ATOM      1  N   UNL     1       4.877   4.288  18.164  0.00  0.00    +0.000 NA
ATOM      2  H   UNL     1       5.237   4.922  18.878  0.00  0.00    +0.000 HD
ENDROOT
BRANCH   1   3
ATOM      3  C   UNL     1       5.854   4.290  17.021  0.00  0.00    +0.000 C 
BRANCH   3   4
ATOM      4  C   UNL     1       7.260   4.731  17.509  0.00  0.00    +0.000 C 
ATOM      5  O   UNL     1       8.316   4.183  17.215  0.00  0.00    +0.000 OA
BRANCH   4   7
ATOM      6  C   UNL     1       7.686   7.062  17.873  0.00  0.00    +0.000 C 
ATOM      7  O   UNL     1       7.155   5.812  18.343  0.00  0.00    +0.000 OA
ENDBRANCH   4   7
ENDBRANCH   3   4
BRANCH   3   8
ATOM      8  C   UNL     1       5.448   5.132  15.781  0.00  0.00    +0.000 C 
BRANCH   8   9
ATOM      9  C   UNL     1       5.956   4.705  14.416  0.00  0.00    +0.000 A 
ATOM     10  C   UNL     1       5.281   3.805  13.579  0.00  0.00    +0.000 A 
ATOM     11  C   UNL     1       5.858   3.377  12.380  0.00  0.00    +0.000 A 
ATOM     12  C   UNL     1       7.089   3.882  11.975  0.00  0.00    +0.000 A 
ATOM     13  C   UNL     1       7.721   4.853  12.742  0.00  0.00    +0.000 A 
ATOM     14  C   UNL     1       7.155   5.268  13.949  0.00  0.00    +0.000 A 
ENDBRANCH   8   9
ENDBRANCH   3   8
ENDBRANCH   1   3
BRANCH   1  15
ATOM     15  C   UNL     1       3.462   4.644  17.818  0.00  0.00    +0.000 C 
BRANCH  15  16
ATOM     16  C   UNL     1       2.598   3.399  17.705  0.00  0.00    +0.000 C 
ATOM     17  N   UNL     1       1.881   2.366  17.610  0.00  0.00    +0.000 NA
ENDBRANCH  15  16
BRANCH  15  18
ATOM     18  C   UNL     1       2.838   5.685  18.799  0.00  0.00    +0.000 C 
BRANCH  18  19
ATOM     19  N   UNL     1       3.434   5.615  20.146  0.00  0.00    +0.000 NA
ATOM     20  H   UNL     1       3.115   4.767  20.617  0.00  0.00    +0.000 HD
ATOM     21  H   UNL     1       3.097   6.388  20.721  0.00  0.00    +0.000 HD
ENDBRANCH  18  19
BRANCH  18  22
ATOM     22  C   UNL     1       2.991   7.109  18.192  0.00  0.00    +0.000 C 
BRANCH  22  23
ATOM     23  C   UNL     1       2.038   8.147  18.729  0.00  0.00    +0.000 A 
ATOM     24  C   UNL     1       1.531   9.137  17.867  0.00  0.00    +0.000 A 
ATOM     25  C   UNL     1       0.684  10.134  18.345  0.00  0.00    +0.000 A 
ATOM     26  C   UNL     1       0.325  10.136  19.691  0.00  0.00    +0.000 A 
ATOM     27  C   UNL     1       0.789   9.141  20.550  0.00  0.00    +0.000 A 
ATOM     28  C   UNL     1       1.644   8.152  20.069  0.00  0.00    +0.000 A 
ENDBRANCH  22  23
ENDBRANCH  18  22
ENDBRANCH  15  18
ENDBRANCH   1  15
TORSDOF 11
ENDMDL
MODEL 7
REMARK VINA RESULT:      -6.8      2.056      7.238
REMARK  Name = 
REMARK  12 active torsions:
REMARK  status: ('A' for Active; 'I' for Inactive)
REMARK    1  A    between atoms: C_1  and  O_2
REMARK    2  A    between atoms: O_2  and  C_3
REMARK    3  A    between atoms: C_3  and  C_5
REMARK    4  A    between atoms: C_5  and  C_6
REMARK    5  A    between atoms: C_5  and  N_13
REMARK    6  A    between atoms: C_6  and  C_7
REMARK    7  A    between atoms: N_13  and  C_14
REMARK    8  A    between atoms: C_14  and  C_15
REMARK    9  A    between atoms: C_14  and  C_17
REMARK   10  A    between atoms: C_17  and  N_18
REMARK   11  A    between atoms: C_17  and  C_19
REMARK   12  A    between atoms: C_19  and  C_20
REMARK                            x       y       z     vdW  Elec       q    Type
REMARK                         _______ _______ _______ _____ _____    ______ ____
ROOT
ATOM      1  N   UNL     1       4.963   4.250  18.069  0.00  0.00    +0.000 NA
ATOM      2  H   UNL     1       4.922   5.188  18.467  0.00  0.00    +0.000 HD
ENDROOT
BRANCH   1   3
ATOM      3  C   UNL     1       6.046   4.247  17.026  0.00  0.00    +0.000 C 
BRANCH   3   4
ATOM      4  C   UNL     1       7.430   4.506  17.679  0.00  0.00    +0.000 C 
ATOM      5  O   UNL     1       8.506   4.119  17.238  0.00  0.00    +0.000 OA
BRANCH   4   7
ATOM      6  C   UNL     1       7.966   6.470  18.945  0.00  0.00    +0.000 C 
ATOM      7  O   UNL     1       7.280   5.211  18.843  0.00  0.00    +0.000 OA
ENDBRANCH   4   7
ENDBRANCH   3   4
BRANCH   3   8
ATOM      8  C   UNL     1       5.846   5.222  15.834  0.00  0.00    +0.000 C 
BRANCH   8   9
ATOM      9  C   UNL     1       6.325   4.795  14.459  0.00  0.00    +0.000 A 
ATOM     10  C   UNL     1       7.467   5.315  13.834  0.00  0.00    +0.000 A 
ATOM     11  C   UNL     1       7.791   4.951  12.524  0.00  0.00    +0.000 A 
ATOM     12  C   UNL     1       7.012   4.023  11.841  0.00  0.00    +0.000 A 
ATOM     13  C   UNL     1       5.938   3.420  12.484  0.00  0.00    +0.000 A 
ATOM     14  C   UNL     1       5.602   3.796  13.786  0.00  0.00    +0.000 A 
ENDBRANCH   8   9
ENDBRANCH   3   8
ENDBRANCH   1   3
BRANCH   1  15
ATOM     15  C   UNL     1       3.603   3.824  17.602  0.00  0.00    +0.000 C 
BRANCH  15  16
ATOM     16  C   UNL     1       3.150   2.564  18.321  0.00  0.00    +0.000 C 
ATOM     17  N   UNL     1       2.774   1.518  18.918  0.00  0.00    +0.000 NA
ENDBRANCH  15  16
BRANCH  15  18
ATOM     18  C   UNL     1       2.536   4.958  17.712  0.00  0.00    +0.000 C 
BRANCH  18  19
ATOM     19  N   UNL     1       1.158   4.447  17.585  0.00  0.00    +0.000 NA
ATOM     20  H   UNL     1       1.049   3.982  16.681  0.00  0.00    +0.000 HD
ATOM     21  H   UNL     1       0.495   5.222  17.573  0.00  0.00    +0.000 HD
ENDBRANCH  18  19
BRANCH  18  22
ATOM     22  C   UNL     1       2.733   5.709  19.060  0.00  0.00    +0.000 C 
BRANCH  22  23
ATOM     23  C   UNL     1       2.213   7.124  19.094  0.00  0.00    +0.000 A 
ATOM     24  C   UNL     1       1.682   7.642  20.289  0.00  0.00    +0.000 A 
ATOM     25  C   UNL     1       1.155   8.930  20.337  0.00  0.00    +0.000 A 
ATOM     26  C   UNL     1       1.172   9.717  19.188  0.00  0.00    +0.000 A 
ATOM     27  C   UNL     1       1.729   9.233  18.005  0.00  0.00    +0.000 A 
ATOM     28  C   UNL     1       2.245   7.939  17.959  0.00  0.00    +0.000 A 
ENDBRANCH  22  23
ENDBRANCH  18  22
ENDBRANCH  15  18
ENDBRANCH   1  15
TORSDOF 11
ENDMDL
MODEL 8
REMARK VINA RESULT:      -6.7      2.119      7.326
REMARK  Name = 
REMARK  12 active torsions:
REMARK  status: ('A' for Active; 'I' for Inactive)
REMARK    1  A    between atoms: C_1  and  O_2
REMARK    2  A    between atoms: O_2  and  C_3
REMARK    3  A    between atoms: C_3  and  C_5
REMARK    4  A    between atoms: C_5  and  C_6
REMARK    5  A    between atoms: C_5  and  N_13
REMARK    6  A    between atoms: C_6  and  C_7
REMARK    7  A    between atoms: N_13  and  C_14
REMARK    8  A    between atoms: C_14  and  C_15
REMARK    9  A    between atoms: C_14  and  C_17
REMARK   10  A    between atoms: C_17  and  N_18
REMARK   11  A    between atoms: C_17  and  C_19
REMARK   12  A    between atoms: C_19  and  C_20
REMARK                            x       y       z     vdW  Elec       q    Type
REMARK                         _______ _______ _______ _____ _____    ______ ____
ROOT
ATOM      1  N   UNL     1       5.069   4.468  18.114  0.00  0.00    +0.000 NA
ATOM      2  H   UNL     1       5.053   5.281  18.730  0.00  0.00    +0.000 HD
ENDROOT
BRANCH   1   3
ATOM      3  C   UNL     1       5.800   4.864  16.860  0.00  0.00    +0.000 C 
BRANCH   3   4
ATOM      4  C   UNL     1       6.132   6.380  16.881  0.00  0.00    +0.000 C 
ATOM      5  O   UNL     1       5.470   7.258  16.341  0.00  0.00    +0.000 OA
BRANCH   4   7
ATOM      6  C   UNL     1       7.797   7.946  17.602  0.00  0.00    +0.000 C 
ATOM      7  O   UNL     1       7.295   6.600  17.569  0.00  0.00    +0.000 OA
ENDBRANCH   4   7
ENDBRANCH   3   4
BRANCH   3   8
ATOM      8  C   UNL     1       5.099   4.505  15.522  0.00  0.00    +0.000 C 
BRANCH   8   9
ATOM      9  C   UNL     1       5.945   4.383  14.269  0.00  0.00    +0.000 A 
ATOM     10  C   UNL     1       7.143   5.082  14.066  0.00  0.00    +0.000 A 
ATOM     11  C   UNL     1       7.818   5.001  12.844  0.00  0.00    +0.000 A 
ATOM     12  C   UNL     1       7.337   4.177  11.832  0.00  0.00    +0.000 A 
ATOM     13  C   UNL     1       6.209   3.397  12.056  0.00  0.00    +0.000 A 
ATOM     14  C   UNL     1       5.524   3.492  13.268  0.00  0.00    +0.000 A 
ENDBRANCH   8   9
ENDBRANCH   3   8
ENDBRANCH   1   3
BRANCH   1  15
ATOM     15  C   UNL     1       3.681   3.933  17.923  0.00  0.00    +0.000 C 
BRANCH  15  16
ATOM     16  C   UNL     1       3.612   2.457  18.277  0.00  0.00    +0.000 C 
ATOM     17  N   UNL     1       3.554   1.232  18.570  0.00  0.00    +0.000 NA
ENDBRANCH  15  16
BRANCH  15  18
ATOM     18  C   UNL     1       2.599   4.755  18.691  0.00  0.00    +0.000 C 
BRANCH  18  19
ATOM     19  N   UNL     1       1.903   3.950  19.712  0.00  0.00    +0.000 NA
ATOM     20  H   UNL     1       2.353   3.036  19.791  0.00  0.00    +0.000 HD
ATOM     21  H   UNL     1       0.946   3.756  19.413  0.00  0.00    +0.000 HD
ENDBRANCH  18  19
BRANCH  18  22
ATOM     22  C   UNL     1       3.271   6.006  19.327  0.00  0.00    +0.000 C 
BRANCH  22  23
ATOM     23  C   UNL     1       2.492   7.292  19.202  0.00  0.00    +0.000 A 
ATOM     24  C   UNL     1       1.777   7.781  20.310  0.00  0.00    +0.000 A 
ATOM     25  C   UNL     1       1.013   8.942  20.210  0.00  0.00    +0.000 A 
ATOM     26  C   UNL     1       0.975   9.631  19.000  0.00  0.00    +0.000 A 
ATOM     27  C   UNL     1       1.708   9.180  17.904  0.00  0.00    +0.000 A 
ATOM     28  C   UNL     1       2.461   8.012  18.006  0.00  0.00    +0.000 A 
ENDBRANCH  22  23
ENDBRANCH  18  22
ENDBRANCH  15  18
ENDBRANCH   1  15
TORSDOF 11
ENDMDL
MODEL 9
REMARK VINA RESULT:      -6.7      0.882      1.641
REMARK  Name = 
REMARK  12 active torsions:
REMARK  status: ('A' for Active; 'I' for Inactive)
REMARK    1  A    between atoms: C_1  and  O_2
REMARK    2  A    between atoms: O_2  and  C_3
REMARK    3  A    between atoms: C_3  and  C_5
REMARK    4  A    between atoms: C_5  and  C_6
REMARK    5  A    between atoms: C_5  and  N_13
REMARK    6  A    between atoms: C_6  and  C_7
REMARK    7  A    between atoms: N_13  and  C_14
REMARK    8  A    between atoms: C_14  and  C_15
REMARK    9  A    between atoms: C_14  and  C_17
REMARK   10  A    between atoms: C_17  and  N_18
REMARK   11  A    between atoms: C_17  and  C_19
REMARK   12  A    between atoms: C_19  and  C_20
REMARK                            x       y       z     vdW  Elec       q    Type
REMARK                         _______ _______ _______ _____ _____    ______ ____
ROOT
ATOM      1  N   UNL     1       5.578   5.710  18.891  0.00  0.00    +0.000 NA
ATOM      2  H   UNL     1       5.854   4.731  18.963  0.00  0.00    +0.000 HD
ENDROOT
BRANCH   1   3
ATOM      3  C   UNL     1       4.116   5.795  19.228  0.00  0.00    +0.000 C 
BRANCH   3   4
ATOM      4  C   UNL     1       3.536   4.381  19.497  0.00  0.00    +0.000 C 
ATOM      5  O   UNL     1       3.785   3.376  18.841  0.00  0.00    +0.000 OA
BRANCH   4   7
ATOM      6  C   UNL     1       1.397   3.782  20.398  0.00  0.00    +0.000 C 
ATOM      7  O   UNL     1       2.676   4.416  20.562  0.00  0.00    +0.000 OA
ENDBRANCH   4   7
ENDBRANCH   3   4
BRANCH   3   8
ATOM      8  C   UNL     1       3.221   6.534  18.196  0.00  0.00    +0.000 C 
BRANCH   8   9
ATOM      9  C   UNL     1       2.366   7.693  18.675  0.00  0.00    +0.000 A 
ATOM     10  C   UNL     1       1.902   7.829  19.991  0.00  0.00    +0.000 A 
ATOM     11  C   UNL     1       1.033   8.867  20.337  0.00  0.00    +0.000 A 
ATOM     12  C   UNL     1       0.659   9.814  19.389  0.00  0.00    +0.000 A 
ATOM     13  C   UNL     1       1.194   9.753  18.107  0.00  0.00    +0.000 A 
ATOM     14  C   UNL     1       2.047   8.706  17.756  0.00  0.00    +0.000 A 
ENDBRANCH   8   9
ENDBRANCH   3   8
ENDBRANCH   1   3
BRANCH   1  15
ATOM     15  C   UNL     1       5.977   6.265  17.557  0.00  0.00    +0.000 C 
BRANCH  15  16
ATOM     16  C   UNL     1       7.099   7.280  17.701  0.00  0.00    +0.000 C 
ATOM     17  N   UNL     1       8.030   8.123  17.820  0.00  0.00    +0.000 NA
ENDBRANCH  15  16
BRANCH  15  18
ATOM     18  C   UNL     1       6.341   5.157  16.518  0.00  0.00    +0.000 C 
BRANCH  18  19
ATOM     19  N   UNL     1       6.231   3.800  17.086  0.00  0.00    +0.000 NA
ATOM     20  H   UNL     1       5.861   3.856  18.036  0.00  0.00    +0.000 HD
ATOM     21  H   UNL     1       7.158   3.382  17.179  0.00  0.00    +0.000 HD
ENDBRANCH  18  19
BRANCH  18  22
ATOM     22  C   UNL     1       5.430   5.317  15.268  0.00  0.00    +0.000 C 
BRANCH  22  23
ATOM     23  C   UNL     1       5.949   4.679  14.004  0.00  0.00    +0.000 A 
ATOM     24  C   UNL     1       7.205   5.060  13.499  0.00  0.00    +0.000 A 
ATOM     25  C   UNL     1       7.690   4.519  12.310  0.00  0.00    +0.000 A 
ATOM     26  C   UNL     1       6.924   3.578  11.626  0.00  0.00    +0.000 A 
ATOM     27  C   UNL     1       5.694   3.161  12.133  0.00  0.00    +0.000 A 
ATOM     28  C   UNL     1       5.208   3.714  13.317  0.00  0.00    +0.000 A 
ENDBRANCH  22  23
ENDBRANCH  18  22
ENDBRANCH  15  18
ENDBRANCH   1  15
TORSDOF 11
ENDMDL
