MODEL 1
REMARK VINA RESULT:      -6.4      0.000      0.000
REMARK  Name = 
REMARK  4 active torsions:
REMARK  status: ('A' for Active; 'I' for Inactive)
REMARK    1  A    between atoms: C_1  and  S_2
REMARK    2  A    between atoms: S_2  and  C_3
REMARK    3  A    between atoms: C_6  and  N_7
REMARK    4  A    between atoms: C_9  and  C_10
REMARK                            x       y       z     vdW  Elec       q    Type
REMARK                         _______ _______ _______ _____ _____    ______ ____
ROOT
ATOM      1  C   UNL     1       6.052   4.584  16.131  0.00  0.00    +0.000 A 
ATOM      2  C   UNL     1       4.743   4.111  16.063  0.00  0.00    +0.000 A 
ATOM      3  C   UNL     1       4.048   3.776  17.234  0.00  0.00    +0.000 A 
ATOM      4  C   UNL     1       4.645   3.935  18.485  0.00  0.00    +0.000 A 
ATOM      5  C   UNL     1       5.952   4.434  18.547  0.00  0.00    +0.000 A 
ATOM      6  C   UNL     1       6.659   4.730  17.380  0.00  0.00    +0.000 A 
ENDROOT
BRANCH   4   7
ATOM      7  N   UNL     1       3.942   3.608  19.663  0.00  0.00    +0.000 N 
ATOM      8  C   UNL     1       2.913   4.433  20.211  0.00  0.00    +0.000 C 
ATOM      9  C   UNL     1       2.270   3.523  21.239  0.00  0.00    +0.000 C 
ATOM     10  O   UNL     1       3.279   2.539  21.522  0.00  0.00    +0.000 OA
ATOM     11  C   UNL     1       4.162   2.509  20.474  0.00  0.00    +0.000 C 
ATOM     12  O   UNL     1       4.997   1.631  20.361  0.00  0.00    +0.000 OA
BRANCH   9  13
ATOM     13  C   UNL     1       1.021   2.794  20.748  0.00  0.00    +0.000 C 
ATOM     14 CL   UNL     1       0.894   2.794  18.975  0.00  0.00    +0.000 Cl
ENDBRANCH   9  13
ENDBRANCH   4   7
BRANCH   1  16
ATOM     15  C   UNL     1       6.148   3.683  13.520  0.00  0.00    +0.000 C 
ATOM     16  S   UNL     1       6.928   4.902  14.611  0.00  0.00    +0.000 S 
ENDBRANCH   1  16
TORSDOF 3
ENDMDL
MODEL 2
REMARK VINA RESULT:      -6.4      0.100      1.204
REMARK  Name = 
REMARK  4 active torsions:
REMARK  status: ('A' for Active; 'I' for Inactive)
REMARK    1  A    between atoms: C_1  and  S_2
REMARK    2  A    between atoms: S_2  and  C_3
REMARK    3  A    between atoms: C_6  and  N_7
REMARK    4  A    between atoms: C_9  and  C_10
REMARK                            x       y       z     vdW  Elec       q    Type
REMARK                         _______ _______ _______ _____ _____    ______ ____
ROOT
ATOM      1  C   UNL     1       6.069   4.463  16.102  0.00  0.00    +0.000 A 
ATOM      2  C   UNL     1       6.639   4.731  17.345  0.00  0.00    +0.000 A 
ATOM      3  C   UNL     1       5.934   4.448  18.524  0.00  0.00    +0.000 A 
ATOM      4  C   UNL     1       4.665   3.870  18.472  0.00  0.00    +0.000 A 
ATOM      5  C   UNL     1       4.110   3.581  17.221  0.00  0.00    +0.000 A 
ATOM      6  C   UNL     1       4.793   3.898  16.045  0.00  0.00    +0.000 A 
ENDROOT
BRANCH   4   7
ATOM      7  N   UNL     1       3.962   3.576  19.659  0.00  0.00    +0.000 N 
ATOM      8  C   UNL     1       2.930   4.413  20.182  0.00  0.00    +0.000 C 
ATOM      9  C   UNL     1       2.290   3.531  21.237  0.00  0.00    +0.000 C 
ATOM     10  O   UNL     1       3.303   2.559  21.549  0.00  0.00    +0.000 OA
ATOM     11  C   UNL     1       4.186   2.502  20.502  0.00  0.00    +0.000 C 
ATOM     12  O   UNL     1       5.025   1.624  20.415  0.00  0.00    +0.000 OA
BRANCH   9  13
ATOM     13  C   UNL     1       1.044   2.784  20.767  0.00  0.00    +0.000 C 
ATOM     14 CL   UNL     1       0.855   2.830  19.001  0.00  0.00    +0.000 Cl
ENDBRANCH   9  13
ENDBRANCH   4   7
BRANCH   1  16
ATOM     15  C   UNL     1       6.212   3.810  13.419  0.00  0.00    +0.000 C 
ATOM     16  S   UNL     1       6.962   4.931  14.631  0.00  0.00    +0.000 S 
ENDBRANCH   1  16
TORSDOF 3
ENDMDL
MODEL 3
REMARK VINA RESULT:      -6.3      4.338      6.452
REMARK  Name = 
REMARK  4 active torsions:
REMARK  status: ('A' for Active; 'I' for Inactive)
REMARK    1  A    between atoms: C_1  and  S_2
REMARK    2  A    between atoms: S_2  and  C_3
REMARK    3  A    between atoms: C_6  and  N_7
REMARK    4  A    between atoms: C_9  and  C_10
REMARK                            x       y       z     vdW  Elec       q    Type
REMARK                         _______ _______ _______ _____ _____    ______ ____
ROOT
ATOM      1  C   UNL     1       2.322   4.211  19.224  0.00  0.00    +0.000 A 
ATOM      2  C   UNL     1       3.480   4.957  19.436  0.00  0.00    +0.000 A 
ATOM      3  C   UNL     1       4.431   5.096  18.415  0.00  0.00    +0.000 A 
ATOM      4  C   UNL     1       4.221   4.513  17.165  0.00  0.00    +0.000 A 
ATOM      5  C   UNL     1       3.044   3.787  16.951  0.00  0.00    +0.000 A 
ATOM      6  C   UNL     1       2.114   3.614  17.980  0.00  0.00    +0.000 A 
ENDROOT
BRANCH   4   7
ATOM      7  N   UNL     1       5.173   4.663  16.135  0.00  0.00    +0.000 N 
ATOM      8  C   UNL     1       5.986   3.589  15.662  0.00  0.00    +0.000 C 
ATOM      9  C   UNL     1       6.575   4.155  14.385  0.00  0.00    +0.000 C 
ATOM     10  O   UNL     1       6.466   5.580  14.545  0.00  0.00    +0.000 OA
ATOM     11  C   UNL     1       5.498   5.838  15.481  0.00  0.00    +0.000 C 
ATOM     12  O   UNL     1       5.064   6.960  15.664  0.00  0.00    +0.000 OA
BRANCH   9  13
ATOM     13  C   UNL     1       5.826   3.763  13.113  0.00  0.00    +0.000 C 
ATOM     14 CL   UNL     1       6.912   3.123  11.860  0.00  0.00    +0.000 Cl
ENDBRANCH   9  13
ENDBRANCH   4   7
BRANCH   1  16
ATOM     15  C   UNL     1       2.181   2.911  21.660  0.00  0.00    +0.000 C 
ATOM     16  S   UNL     1       1.190   3.981  20.584  0.00  0.00    +0.000 S 
ENDBRANCH   1  16
TORSDOF 3
ENDMDL
MODEL 4
REMARK VINA RESULT:      -6.2      4.356      6.349
REMARK  Name = 
REMARK  4 active torsions:
REMARK  status: ('A' for Active; 'I' for Inactive)
REMARK    1  A    between atoms: C_1  and  S_2
REMARK    2  A    between atoms: S_2  and  C_3
REMARK    3  A    between atoms: C_6  and  N_7
REMARK    4  A    between atoms: C_9  and  C_10
REMARK                            x       y       z     vdW  Elec       q    Type
REMARK                         _______ _______ _______ _____ _____    ______ ____
ROOT
ATOM      1  C   UNL     1       2.428   4.409  19.355  0.00  0.00    +0.000 A 
ATOM      2  C   UNL     1       2.465   3.447  18.348  0.00  0.00    +0.000 A 
ATOM      3  C   UNL     1       3.379   3.562  17.290  0.00  0.00    +0.000 A 
ATOM      4  C   UNL     1       4.282   4.626  17.244  0.00  0.00    +0.000 A 
ATOM      5  C   UNL     1       4.256   5.574  18.273  0.00  0.00    +0.000 A 
ATOM      6  C   UNL     1       3.320   5.482  19.306  0.00  0.00    +0.000 A 
ENDROOT
BRANCH   4   7
ATOM      7  N   UNL     1       5.208   4.734  16.187  0.00  0.00    +0.000 N 
ATOM      8  C   UNL     1       6.000   3.639  15.727  0.00  0.00    +0.000 C 
ATOM      9  C   UNL     1       6.561   4.159  14.418  0.00  0.00    +0.000 C 
ATOM     10  O   UNL     1       6.469   5.589  14.537  0.00  0.00    +0.000 OA
ATOM     11  C   UNL     1       5.526   5.885  15.488  0.00  0.00    +0.000 C 
ATOM     12  O   UNL     1       5.106   7.017  15.646  0.00  0.00    +0.000 OA
BRANCH   9  13
ATOM     13  C   UNL     1       5.777   3.734  13.179  0.00  0.00    +0.000 C 
ATOM     14 CL   UNL     1       6.834   3.122  11.888  0.00  0.00    +0.000 Cl
ENDBRANCH   9  13
ENDBRANCH   4   7
BRANCH   1  16
ATOM     15  C   UNL     1       1.804   2.838  21.542  0.00  0.00    +0.000 C 
ATOM     16  S   UNL     1       1.183   4.272  20.625  0.00  0.00    +0.000 S 
ENDBRANCH   1  16
TORSDOF 3
ENDMDL
MODEL 5
REMARK VINA RESULT:      -6.1      4.175      6.054
REMARK  Name = 
REMARK  4 active torsions:
REMARK  status: ('A' for Active; 'I' for Inactive)
REMARK    1  A    between atoms: C_1  and  S_2
REMARK    2  A    between atoms: S_2  and  C_3
REMARK    3  A    between atoms: C_6  and  N_7
REMARK    4  A    between atoms: C_9  and  C_10
REMARK                            x       y       z     vdW  Elec       q    Type
REMARK                         _______ _______ _______ _____ _____    ______ ____
ROOT
ATOM      1  C   UNL     1       2.648   3.662  18.748  0.00  0.00    +0.000 A 
ATOM      2  C   UNL     1       3.064   4.607  19.684  0.00  0.00    +0.000 A 
ATOM      3  C   UNL     1       4.269   5.301  19.504  0.00  0.00    +0.000 A 
ATOM      4  C   UNL     1       5.056   5.077  18.373  0.00  0.00    +0.000 A 
ATOM      5  C   UNL     1       4.619   4.145  17.425  0.00  0.00    +0.000 A 
ATOM      6  C   UNL     1       3.439   3.423  17.622  0.00  0.00    +0.000 A 
ENDROOT
BRANCH   4   7
ATOM      7  N   UNL     1       6.262   5.784  18.187  0.00  0.00    +0.000 N 
ATOM      8  C   UNL     1       6.582   6.476  16.980  0.00  0.00    +0.000 C 
ATOM      9  C   UNL     1       7.779   7.314  17.384  0.00  0.00    +0.000 C 
ATOM     10  O   UNL     1       8.304   6.646  18.545  0.00  0.00    +0.000 OA
ATOM     11  C   UNL     1       7.310   5.873  19.086  0.00  0.00    +0.000 C 
ATOM     12  O   UNL     1       7.422   5.357  20.183  0.00  0.00    +0.000 OA
BRANCH   9  13
ATOM     13  C   UNL     1       7.443   8.751  17.776  0.00  0.00    +0.000 C 
ATOM     14 CL   UNL     1       8.805   9.569  18.574  0.00  0.00    +0.000 Cl
ENDBRANCH   9  13
ENDBRANCH   4   7
BRANCH   1  16
ATOM     15  C   UNL     1       1.035   2.925  20.869  0.00  0.00    +0.000 C 
ATOM     16  S   UNL     1       1.160   2.734  19.071  0.00  0.00    +0.000 S 
ENDBRANCH   1  16
TORSDOF 3
ENDMDL
MODEL 6
REMARK VINA RESULT:      -6.0      3.883      6.047
REMARK  Name = 
REMARK  4 active torsions:
REMARK  status: ('A' for Active; 'I' for Inactive)
REMARK    1  A    between atoms: C_1  and  S_2
REMARK    2  A    between atoms: S_2  and  C_3
REMARK    3  A    between atoms: C_6  and  N_7
REMARK    4  A    between atoms: C_9  and  C_10
REMARK                            x       y       z     vdW  Elec       q    Type
REMARK                         _______ _______ _______ _____ _____    ______ ____
ROOT
ATOM      1  C   UNL     1       2.355   3.862  19.238  0.00  0.00    +0.000 A 
ATOM      2  C   UNL     1       2.475   3.470  17.906  0.00  0.00    +0.000 A 
ATOM      3  C   UNL     1       3.596   3.849  17.153  0.00  0.00    +0.000 A 
ATOM      4  C   UNL     1       4.620   4.600  17.732  0.00  0.00    +0.000 A 
ATOM      5  C   UNL     1       4.504   4.968  19.077  0.00  0.00    +0.000 A 
ATOM      6  C   UNL     1       3.370   4.626  19.817  0.00  0.00    +0.000 A 
ENDROOT
BRANCH   4   7
ATOM      7  N   UNL     1       5.752   4.971  16.978  0.00  0.00    +0.000 N 
ATOM      8  C   UNL     1       6.614   4.023  16.347  0.00  0.00    +0.000 C 
ATOM      9  C   UNL     1       7.446   4.892  15.425  0.00  0.00    +0.000 C 
ATOM     10  O   UNL     1       7.344   6.210  15.992  0.00  0.00    +0.000 OA
ATOM     11  C   UNL     1       6.222   6.257  16.779  0.00  0.00    +0.000 C 
ATOM     12  O   UNL     1       5.789   7.306  17.219  0.00  0.00    +0.000 OA
BRANCH   9  13
ATOM     13  C   UNL     1       6.942   4.955  13.985  0.00  0.00    +0.000 C 
ATOM     14 CL   UNL     1       5.509   3.936  13.728  0.00  0.00    +0.000 Cl
ENDBRANCH   9  13
ENDBRANCH   4   7
BRANCH   1  16
ATOM     15  C   UNL     1       1.572   2.757  21.648  0.00  0.00    +0.000 C 
ATOM     16  S   UNL     1       0.866   3.440  20.124  0.00  0.00    +0.000 S 
ENDBRANCH   1  16
TORSDOF 3
ENDMDL
MODEL 7
REMARK VINA RESULT:      -6.0      3.851      6.127
REMARK  Name = 
REMARK  4 active torsions:
REMARK  status: ('A' for Active; 'I' for Inactive)
REMARK    1  A    between atoms: C_1  and  S_2
REMARK    2  A    between atoms: S_2  and  C_3
REMARK    3  A    between atoms: C_6  and  N_7
REMARK    4  A    between atoms: C_9  and  C_10
REMARK                            x       y       z     vdW  Elec       q    Type
REMARK                         _______ _______ _______ _____ _____    ______ ____
ROOT
ATOM      1  C   UNL     1       2.247   3.744  19.154  0.00  0.00    +0.000 A 
ATOM      2  C   UNL     1       3.382   4.207  19.818  0.00  0.00    +0.000 A 
ATOM      3  C   UNL     1       4.526   4.577  19.096  0.00  0.00    +0.000 A 
ATOM      4  C   UNL     1       4.536   4.513  17.701  0.00  0.00    +0.000 A 
ATOM      5  C   UNL     1       3.384   4.073  17.040  0.00  0.00    +0.000 A 
ATOM      6  C   UNL     1       2.259   3.666  17.760  0.00  0.00    +0.000 A 
ENDROOT
BRANCH   4   7
ATOM      7  N   UNL     1       5.682   4.897  16.975  0.00  0.00    +0.000 N 
ATOM      8  C   UNL     1       6.555   3.960  16.343  0.00  0.00    +0.000 C 
ATOM      9  C   UNL     1       7.406   4.845  15.453  0.00  0.00    +0.000 C 
ATOM     10  O   UNL     1       7.294   6.152  16.043  0.00  0.00    +0.000 OA
ATOM     11  C   UNL     1       6.158   6.185  16.810  0.00  0.00    +0.000 C 
ATOM     12  O   UNL     1       5.718   7.227  17.262  0.00  0.00    +0.000 OA
BRANCH   9  13
ATOM     13  C   UNL     1       6.928   4.936  14.006  0.00  0.00    +0.000 C 
ATOM     14 CL   UNL     1       5.431   4.019  13.730  0.00  0.00    +0.000 Cl
ENDBRANCH   9  13
ENDBRANCH   4   7
BRANCH   1  16
ATOM     15  C   UNL     1       1.684   2.743  21.669  0.00  0.00    +0.000 C 
ATOM     16  S   UNL     1       0.854   3.192  20.121  0.00  0.00    +0.000 S 
ENDBRANCH   1  16
TORSDOF 3
ENDMDL
MODEL 8
REMARK VINA RESULT:      -6.0      4.363      6.071
REMARK  Name = 
REMARK  4 active torsions:
REMARK  status: ('A' for Active; 'I' for Inactive)
REMARK    1  A    between atoms: C_1  and  S_2
REMARK    2  A    between atoms: S_2  and  C_3
REMARK    3  A    between atoms: C_6  and  N_7
REMARK    4  A    between atoms: C_9  and  C_10
REMARK                            x       y       z     vdW  Elec       q    Type
REMARK                         _______ _______ _______ _____ _____    ______ ____
ROOT
ATOM      1  C   UNL     1       3.166   3.080  18.617  0.00  0.00    +0.000 A 
ATOM      2  C   UNL     1       3.128   3.578  17.315  0.00  0.00    +0.000 A 
ATOM      3  C   UNL     1       4.079   4.515  16.887  0.00  0.00    +0.000 A 
ATOM      4  C   UNL     1       5.093   4.942  17.746  0.00  0.00    +0.000 A 
ATOM      5  C   UNL     1       5.139   4.418  19.042  0.00  0.00    +0.000 A 
ATOM      6  C   UNL     1       4.169   3.516  19.484  0.00  0.00    +0.000 A 
ENDROOT
BRANCH   4   7
ATOM      7  N   UNL     1       6.056   5.875  17.310  0.00  0.00    +0.000 N 
ATOM      8  C   UNL     1       5.943   7.280  17.544  0.00  0.00    +0.000 C 
ATOM      9  C   UNL     1       7.328   7.788  17.193  0.00  0.00    +0.000 C 
ATOM     10  O   UNL     1       7.875   6.766  16.340  0.00  0.00    +0.000 OA
ATOM     11  C   UNL     1       7.191   5.600  16.568  0.00  0.00    +0.000 C 
ATOM     12  O   UNL     1       7.576   4.532  16.128  0.00  0.00    +0.000 OA
BRANCH   9  13
ATOM     13  C   UNL     1       8.263   7.958  18.388  0.00  0.00    +0.000 C 
ATOM     14 CL   UNL     1       8.792   9.641  18.596  0.00  0.00    +0.000 Cl
ENDBRANCH   9  13
ENDBRANCH   4   7
BRANCH   1  16
ATOM     15  C   UNL     1       0.827   3.103  20.090  0.00  0.00    +0.000 C 
ATOM     16  S   UNL     1       1.877   1.967  19.146  0.00  0.00    +0.000 S 
ENDBRANCH   1  16
TORSDOF 3
ENDMDL
MODEL 9
REMARK VINA RESULT:      -5.9      4.237      6.043
REMARK  Name = 
REMARK  4 active torsions:
REMARK  status: ('A' for Active; 'I' for Inactive)
REMARK    1  A    between atoms: C_1  and  S_2
REMARK    2  A    between atoms: S_2  and  C_3
REMARK    3  A    between atoms: C_6  and  N_7
REMARK    4  A    between atoms: C_9  and  C_10
REMARK                            x       y       z     vdW  Elec       q    Type
REMARK                         _______ _______ _______ _____ _____    ______ ____
ROOT
ATOM      1  C   UNL     1       2.654   3.754  18.654  0.00  0.00    +0.000 A 
ATOM      2  C   UNL     1       3.873   3.081  18.725  0.00  0.00    +0.000 A 
ATOM      3  C   UNL     1       5.079   3.778  18.561  0.00  0.00    +0.000 A 
ATOM      4  C   UNL     1       5.079   5.158  18.350  0.00  0.00    +0.000 A 
ATOM      5  C   UNL     1       3.852   5.831  18.305  0.00  0.00    +0.000 A 
ATOM      6  C   UNL     1       2.649   5.132  18.429  0.00  0.00    +0.000 A 
ENDROOT
BRANCH   4   7
ATOM      7  N   UNL     1       6.292   5.859  18.197  0.00  0.00    +0.000 N 
ATOM      8  C   UNL     1       6.645   6.556  17.001  0.00  0.00    +0.000 C 
ATOM      9  C   UNL     1       7.836   7.386  17.438  0.00  0.00    +0.000 C 
ATOM     10  O   UNL     1       8.330   6.709  18.607  0.00  0.00    +0.000 OA
ATOM     11  C   UNL     1       7.319   5.938  19.121  0.00  0.00    +0.000 C 
ATOM     12  O   UNL     1       7.402   5.416  20.218  0.00  0.00    +0.000 OA
BRANCH   9  13
ATOM     13  C   UNL     1       7.499   8.822  17.830  0.00  0.00    +0.000 C 
ATOM     14 CL   UNL     1       8.883   9.666  18.558  0.00  0.00    +0.000 Cl
ENDBRANCH   9  13
ENDBRANCH   4   7
BRANCH   1  16
ATOM     15  C   UNL     1       0.824   2.921  20.550  0.00  0.00    +0.000 C 
ATOM     16  S   UNL     1       1.146   2.810  18.770  0.00  0.00    +0.000 S 
ENDBRANCH   1  16
TORSDOF 3
ENDMDL
