MODEL 1
REMARK VINA RESULT:      -8.2      0.000      0.000
REMARK  Name = 
REMARK  7 active torsions:
REMARK  status: ('A' for Active; 'I' for Inactive)
REMARK    1  A    between atoms: C_1  and  C_2
REMARK    2  A    between atoms: C_2  and  C_3
REMARK    3  A    between atoms: C_7  and  C_8
REMARK    4  A    between atoms: N_12  and  C_13
REMARK    5  A    between atoms: C_16  and  N_17
REMARK    6  A    between atoms: C_22  and  C_23
REMARK    7  A    between atoms: C_22  and  C_24
REMARK                            x       y       z     vdW  Elec       q    Type
REMARK                         _______ _______ _______ _____ _____    ______ ____
ROOT
ATOM      1  C   UNL     1       5.088   4.794  18.242  0.00  0.00    +0.000 A 
ATOM      2  C   UNL     1       5.454   5.169  19.531  0.00  0.00    +0.000 A 
ATOM      3  C   UNL     1       6.814   5.513  19.533  0.00  0.00    +0.000 A 
ATOM      4  C   UNL     1       7.267   5.344  18.251  0.00  0.00    +0.000 A 
ATOM      5  N   UNL     1       6.234   4.911  17.434  0.00  0.00    +0.000 N 
ENDROOT
BRANCH   1  12
ATOM      6  C   UNL     1       1.106   2.314  19.663  0.00  0.00    +0.000 C 
ATOM      7  C   UNL     1       2.422   3.042  19.983  0.00  0.00    +0.000 C 
ATOM      8  C   UNL     1       2.740   2.823  21.475  0.00  0.00    +0.000 C 
ATOM      9  C   UNL     1       3.497   2.398  19.135  0.00  0.00    +0.000 C 
ATOM     10  O   UNL     1       4.044   1.341  19.433  0.00  0.00    +0.000 OA
ATOM     11  O   UNL     1       3.679   2.942  17.905  0.00  0.00    +0.000 OA
ATOM     12  C   UNL     1       3.726   4.372  17.740  0.00  0.00    +0.000 C 
ATOM     13  C   UNL     1       2.477   5.054  18.304  0.00  0.00    +0.000 C 
ATOM     14  C   UNL     1       1.233   4.682  17.466  0.00  0.00    +0.000 C 
ATOM     15  C   UNL     1       2.583   6.592  18.253  0.00  0.00    +0.000 C 
ATOM     16  C   UNL     1       2.277   4.540  19.724  0.00  0.00    +0.000 C 
ATOM     17  O   UNL     1       1.951   5.314  20.629  0.00  0.00    +0.000 OA
ENDBRANCH   1  12
BRANCH   5  18
ATOM     18  C   UNL     1       6.393   4.685  16.021  0.00  0.00    +0.000 A 
ATOM     19  C   UNL     1       7.454   5.237  15.294  0.00  0.00    +0.000 A 
ATOM     20  C   UNL     1       7.634   4.939  13.940  0.00  0.00    +0.000 A 
ATOM     21  C   UNL     1       6.714   4.118  13.285  0.00  0.00    +0.000 A 
ATOM     22  C   UNL     1       5.617   3.599  13.976  0.00  0.00    +0.000 A 
ATOM     23  C   UNL     1       5.460   3.884  15.340  0.00  0.00    +0.000 A 
BRANCH  21  24
ATOM     24  N   UNL     1       6.905   3.809  11.861  0.00  0.00    +0.000 N 
ATOM     25  O   UNL     1       6.713   2.644  11.495  0.00  0.00    +0.000 OA
ATOM     26  O   UNL     1       7.243   4.740  11.116  0.00  0.00    +0.000 OA
ENDBRANCH  21  24
ENDBRANCH   5  18
TORSDOF 3
ENDMDL
MODEL 2
REMARK VINA RESULT:      -7.1      3.508      6.770
REMARK  Name = 
REMARK  7 active torsions:
REMARK  status: ('A' for Active; 'I' for Inactive)
REMARK    1  A    between atoms: C_1  and  C_2
REMARK    2  A    between atoms: C_2  and  C_3
REMARK    3  A    between atoms: C_7  and  C_8
REMARK    4  A    between atoms: N_12  and  C_13
REMARK    5  A    between atoms: C_16  and  N_17
REMARK    6  A    between atoms: C_22  and  C_23
REMARK    7  A    between atoms: C_22  and  C_24
REMARK                            x       y       z     vdW  Elec       q    Type
REMARK                         _______ _______ _______ _____ _____    ______ ____
ROOT
ATOM      1  C   UNL     1       2.996   5.867  18.131  0.00  0.00    +0.000 A 
ATOM      2  C   UNL     1       4.204   5.403  17.621  0.00  0.00    +0.000 A 
ATOM      3  C   UNL     1       5.013   6.505  17.303  0.00  0.00    +0.000 A 
ATOM      4  C   UNL     1       4.294   7.628  17.619  0.00  0.00    +0.000 A 
ATOM      5  N   UNL     1       3.057   7.273  18.134  0.00  0.00    +0.000 N 
ENDROOT
BRANCH   1  12
ATOM      6  C   UNL     1       1.544   1.225  18.736  0.00  0.00    +0.000 C 
ATOM      7  C   UNL     1       2.647   2.267  18.490  0.00  0.00    +0.000 C 
ATOM      8  C   UNL     1       3.953   1.516  18.169  0.00  0.00    +0.000 C 
ATOM      9  C   UNL     1       2.220   3.081  17.289  0.00  0.00    +0.000 C 
ATOM     10  O   UNL     1       2.366   2.699  16.133  0.00  0.00    +0.000 OA
ATOM     11  O   UNL     1       1.465   4.176  17.558  0.00  0.00    +0.000 OA
ATOM     12  C   UNL     1       1.822   5.060  18.638  0.00  0.00    +0.000 C 
ATOM     13  C   UNL     1       1.947   4.314  19.970  0.00  0.00    +0.000 C 
ATOM     14  C   UNL     1       0.566   3.798  20.431  0.00  0.00    +0.000 C 
ATOM     15  C   UNL     1       2.462   5.229  21.100  0.00  0.00    +0.000 C 
ATOM     16  C   UNL     1       2.862   3.118  19.740  0.00  0.00    +0.000 C 
ATOM     17  O   UNL     1       3.718   2.816  20.577  0.00  0.00    +0.000 OA
ENDBRANCH   1  12
BRANCH   5  18
ATOM     18  C   UNL     1       2.092   8.237  18.596  0.00  0.00    +0.000 A 
ATOM     19  C   UNL     1       1.420   9.094  17.718  0.00  0.00    +0.000 A 
ATOM     20  C   UNL     1       0.428   9.967  18.179  0.00  0.00    +0.000 A 
ATOM     21  C   UNL     1       0.136  10.022  19.544  0.00  0.00    +0.000 A 
ATOM     22  C   UNL     1       0.832   9.213  20.446  0.00  0.00    +0.000 A 
ATOM     23  C   UNL     1       1.807   8.324  19.969  0.00  0.00    +0.000 A 
BRANCH  21  24
ATOM     24  N   UNL     1      -0.904  10.940  20.025  0.00  0.00    +0.000 N 
ATOM     25  O   UNL     1      -1.730  11.355  19.204  0.00  0.00    +0.000 OA
ATOM     26  O   UNL     1      -0.888  11.240  21.227  0.00  0.00    +0.000 OA
ENDBRANCH  21  24
ENDBRANCH   5  18
TORSDOF 3
ENDMDL
MODEL 3
REMARK VINA RESULT:      -7.0      3.512      6.776
REMARK  Name = 
REMARK  7 active torsions:
REMARK  status: ('A' for Active; 'I' for Inactive)
REMARK    1  A    between atoms: C_1  and  C_2
REMARK    2  A    between atoms: C_2  and  C_3
REMARK    3  A    between atoms: C_7  and  C_8
REMARK    4  A    between atoms: N_12  and  C_13
REMARK    5  A    between atoms: C_16  and  N_17
REMARK    6  A    between atoms: C_22  and  C_23
REMARK    7  A    between atoms: C_22  and  C_24
REMARK                            x       y       z     vdW  Elec       q    Type
REMARK                         _______ _______ _______ _____ _____    ______ ____
ROOT
ATOM      1  C   UNL     1       2.988   5.839  18.146  0.00  0.00    +0.000 A 
ATOM      2  C   UNL     1       4.191   5.382  17.619  0.00  0.00    +0.000 A 
ATOM      3  C   UNL     1       4.996   6.488  17.303  0.00  0.00    +0.000 A 
ATOM      4  C   UNL     1       4.278   7.607  17.637  0.00  0.00    +0.000 A 
ATOM      5  N   UNL     1       3.047   7.245  18.162  0.00  0.00    +0.000 N 
ENDROOT
BRANCH   1  12
ATOM      6  C   UNL     1       1.561   1.189  18.752  0.00  0.00    +0.000 C 
ATOM      7  C   UNL     1       2.658   2.237  18.502  0.00  0.00    +0.000 C 
ATOM      8  C   UNL     1       3.966   1.492  18.173  0.00  0.00    +0.000 C 
ATOM      9  C   UNL     1       2.221   3.051  17.304  0.00  0.00    +0.000 C 
ATOM     10  O   UNL     1       2.363   2.671  16.146  0.00  0.00    +0.000 OA
ATOM     11  O   UNL     1       1.462   4.142  17.579  0.00  0.00    +0.000 OA
ATOM     12  C   UNL     1       1.821   5.025  18.659  0.00  0.00    +0.000 C 
ATOM     13  C   UNL     1       1.957   4.279  19.988  0.00  0.00    +0.000 C 
ATOM     14  C   UNL     1       0.580   3.755  20.456  0.00  0.00    +0.000 C 
ATOM     15  C   UNL     1       2.472   5.194  21.117  0.00  0.00    +0.000 C 
ATOM     16  C   UNL     1       2.876   3.087  19.752  0.00  0.00    +0.000 C 
ATOM     17  O   UNL     1       3.738   2.788  20.583  0.00  0.00    +0.000 OA
ENDBRANCH   1  12
BRANCH   5  18
ATOM     18  C   UNL     1       2.086   8.203  18.643  0.00  0.00    +0.000 A 
ATOM     19  C   UNL     1       1.730   8.283  19.994  0.00  0.00    +0.000 A 
ATOM     20  C   UNL     1       0.855   9.274  20.452  0.00  0.00    +0.000 A 
ATOM     21  C   UNL     1       0.288  10.169  19.543  0.00  0.00    +0.000 A 
ATOM     22  C   UNL     1       0.587  10.075  18.182  0.00  0.00    +0.000 A 
ATOM     23  C   UNL     1       1.485   9.093  17.737  0.00  0.00    +0.000 A 
BRANCH  21  24
ATOM     24  N   UNL     1      -0.632  11.207  20.027  0.00  0.00    +0.000 N 
ATOM     25  O   UNL     1      -0.259  11.913  20.970  0.00  0.00    +0.000 OA
ATOM     26  O   UNL     1      -1.727  11.310  19.455  0.00  0.00    +0.000 OA
ENDBRANCH  21  24
ENDBRANCH   5  18
TORSDOF 3
ENDMDL
MODEL 4
REMARK VINA RESULT:      -6.5      9.968     12.601
REMARK  Name = 
REMARK  7 active torsions:
REMARK  status: ('A' for Active; 'I' for Inactive)
REMARK    1  A    between atoms: C_1  and  C_2
REMARK    2  A    between atoms: C_2  and  C_3
REMARK    3  A    between atoms: C_7  and  C_8
REMARK    4  A    between atoms: N_12  and  C_13
REMARK    5  A    between atoms: C_16  and  N_17
REMARK    6  A    between atoms: C_22  and  C_23
REMARK    7  A    between atoms: C_22  and  C_24
REMARK                            x       y       z     vdW  Elec       q    Type
REMARK                         _______ _______ _______ _____ _____    ______ ____
ROOT
ATOM      1  C   UNL     1       8.505  14.097  20.834  0.00  0.00    +0.000 A 
ATOM      2  C   UNL     1       9.444  14.139  21.860  0.00  0.00    +0.000 A 
ATOM      3  C   UNL     1       9.023  15.070  22.822  0.00  0.00    +0.000 A 
ATOM      4  C   UNL     1       7.835  15.588  22.377  0.00  0.00    +0.000 A 
ATOM      5  N   UNL     1       7.486  15.010  21.166  0.00  0.00    +0.000 N 
ENDROOT
BRANCH   1  12
ATOM      6  C   UNL     1      11.202  13.142  16.855  0.00  0.00    +0.000 C 
ATOM      7  C   UNL     1      11.050  13.736  18.265  0.00  0.00    +0.000 C 
ATOM      8  C   UNL     1      12.333  14.520  18.596  0.00  0.00    +0.000 C 
ATOM      9  C   UNL     1       9.872  14.685  18.216  0.00  0.00    +0.000 C 
ATOM     10  O   UNL     1       9.949  15.827  17.776  0.00  0.00    +0.000 OA
ATOM     11  O   UNL     1       8.662  14.134  18.489  0.00  0.00    +0.000 OA
ATOM     12  C   UNL     1       8.507  13.228  19.597  0.00  0.00    +0.000 C 
ATOM     13  C   UNL     1       9.479  12.049  19.514  0.00  0.00    +0.000 C 
ATOM     14  C   UNL     1       9.124  11.141  18.315  0.00  0.00    +0.000 C 
ATOM     15  C   UNL     1       9.410  11.151  20.766  0.00  0.00    +0.000 C 
ATOM     16  C   UNL     1      10.874  12.621  19.295  0.00  0.00    +0.000 C 
ATOM     17  O   UNL     1      11.843  12.152  19.897  0.00  0.00    +0.000 OA
ENDBRANCH   1  12
BRANCH   5  18
ATOM     18  C   UNL     1       6.266  15.323  20.469  0.00  0.00    +0.000 A 
ATOM     19  C   UNL     1       5.049  14.711  20.791  0.00  0.00    +0.000 A 
ATOM     20  C   UNL     1       3.861  15.089  20.156  0.00  0.00    +0.000 A 
ATOM     21  C   UNL     1       3.893  16.055  19.149  0.00  0.00    +0.000 A 
ATOM     22  C   UNL     1       5.104  16.642  18.774  0.00  0.00    +0.000 A 
ATOM     23  C   UNL     1       6.285  16.274  19.435  0.00  0.00    +0.000 A 
BRANCH  21  24
ATOM     24  N   UNL     1       2.644  16.448  18.482  0.00  0.00    +0.000 N 
ATOM     25  O   UNL     1       1.707  15.642  18.496  0.00  0.00    +0.000 OA
ATOM     26  O   UNL     1       2.610  17.567  17.950  0.00  0.00    +0.000 OA
ENDBRANCH  21  24
ENDBRANCH   5  18
TORSDOF 3
ENDMDL
MODEL 5
REMARK VINA RESULT:      -6.5     10.008     12.943
REMARK  Name = 
REMARK  7 active torsions:
REMARK  status: ('A' for Active; 'I' for Inactive)
REMARK    1  A    between atoms: C_1  and  C_2
REMARK    2  A    between atoms: C_2  and  C_3
REMARK    3  A    between atoms: C_7  and  C_8
REMARK    4  A    between atoms: N_12  and  C_13
REMARK    5  A    between atoms: C_16  and  N_17
REMARK    6  A    between atoms: C_22  and  C_23
REMARK    7  A    between atoms: C_22  and  C_24
REMARK                            x       y       z     vdW  Elec       q    Type
REMARK                         _______ _______ _______ _____ _____    ______ ____
ROOT
ATOM      1  C   UNL     1      -3.810  13.826  20.957  0.00  0.00    +0.000 A 
ATOM      2  C   UNL     1      -4.075  15.192  20.952  0.00  0.00    +0.000 A 
ATOM      3  C   UNL     1      -2.863  15.888  20.829  0.00  0.00    +0.000 A 
ATOM      4  C   UNL     1      -1.871  14.945  20.761  0.00  0.00    +0.000 A 
ATOM      5  N   UNL     1      -2.417  13.673  20.830  0.00  0.00    +0.000 N 
ENDROOT
BRANCH   1  12
ATOM      6  C   UNL     1      -7.748  12.363  23.481  0.00  0.00    +0.000 C 
ATOM      7  C   UNL     1      -6.763  13.459  23.044  0.00  0.00    +0.000 C 
ATOM      8  C   UNL     1      -7.067  14.730  23.859  0.00  0.00    +0.000 C 
ATOM      9  C   UNL     1      -5.375  12.959  23.380  0.00  0.00    +0.000 C 
ATOM     10  O   UNL     1      -4.895  13.019  24.507  0.00  0.00    +0.000 OA
ATOM     11  O   UNL     1      -4.758  12.238  22.409  0.00  0.00    +0.000 OA
ATOM     12  C   UNL     1      -4.794  12.682  21.039  0.00  0.00    +0.000 C 
ATOM     13  C   UNL     1      -6.227  12.890  20.542  0.00  0.00    +0.000 C 
ATOM     14  C   UNL     1      -6.969  11.538  20.453  0.00  0.00    +0.000 C 
ATOM     15  C   UNL     1      -6.266  13.493  19.123  0.00  0.00    +0.000 C 
ATOM     16  C   UNL     1      -6.940  13.771  21.559  0.00  0.00    +0.000 C 
ATOM     17  O   UNL     1      -7.686  14.680  21.184  0.00  0.00    +0.000 OA
ENDBRANCH   1  12
BRANCH   5  18
ATOM     18  C   UNL     1      -1.626  12.473  20.742  0.00  0.00    +0.000 A 
ATOM     19  C   UNL     1      -1.492  11.757  19.547  0.00  0.00    +0.000 A 
ATOM     20  C   UNL     1      -0.654  10.640  19.465  0.00  0.00    +0.000 A 
ATOM     21  C   UNL     1       0.023  10.198  20.604  0.00  0.00    +0.000 A 
ATOM     22  C   UNL     1      -0.137  10.865  21.821  0.00  0.00    +0.000 A 
ATOM     23  C   UNL     1      -0.960  11.999  21.886  0.00  0.00    +0.000 A 
BRANCH  21  24
ATOM     24  N   UNL     1       0.900   9.024  20.515  0.00  0.00    +0.000 N 
ATOM     25  O   UNL     1       1.477   8.816  19.442  0.00  0.00    +0.000 OA
ATOM     26  O   UNL     1       1.007   8.314  21.526  0.00  0.00    +0.000 OA
ENDBRANCH  21  24
ENDBRANCH   5  18
TORSDOF 3
ENDMDL
MODEL 6
REMARK VINA RESULT:      -6.5      8.684     11.077
REMARK  Name = 
REMARK  7 active torsions:
REMARK  status: ('A' for Active; 'I' for Inactive)
REMARK    1  A    between atoms: C_1  and  C_2
REMARK    2  A    between atoms: C_2  and  C_3
REMARK    3  A    between atoms: C_7  and  C_8
REMARK    4  A    between atoms: N_12  and  C_13
REMARK    5  A    between atoms: C_16  and  N_17
REMARK    6  A    between atoms: C_22  and  C_23
REMARK    7  A    between atoms: C_22  and  C_24
REMARK                            x       y       z     vdW  Elec       q    Type
REMARK                         _______ _______ _______ _____ _____    ______ ____
ROOT
ATOM      1  C   UNL     1      -2.152  12.156  19.247  0.00  0.00    +0.000 A 
ATOM      2  C   UNL     1      -2.599  12.581  20.494  0.00  0.00    +0.000 A 
ATOM      3  C   UNL     1      -3.998  12.475  20.533  0.00  0.00    +0.000 A 
ATOM      4  C   UNL     1      -4.392  11.989  19.314  0.00  0.00    +0.000 A 
ATOM      5  N   UNL     1      -3.286  11.777  18.505  0.00  0.00    +0.000 N 
ENDROOT
BRANCH   1  12
ATOM      6  C   UNL     1       2.342  13.873  20.186  0.00  0.00    +0.000 C 
ATOM      7  C   UNL     1       0.884  13.622  20.605  0.00  0.00    +0.000 C 
ATOM      8  C   UNL     1       0.640  14.342  21.945  0.00  0.00    +0.000 C 
ATOM      9  C   UNL     1       0.009  14.234  19.532  0.00  0.00    +0.000 C 
ATOM     10  O   UNL     1      -0.245  15.433  19.477  0.00  0.00    +0.000 OA
ATOM     11  O   UNL     1      -0.313  13.416  18.499  0.00  0.00    +0.000 OA
ATOM     12  C   UNL     1      -0.729  12.059  18.746  0.00  0.00    +0.000 C 
ATOM     13  C   UNL     1       0.303  11.285  19.570  0.00  0.00    +0.000 C 
ATOM     14  C   UNL     1       1.597  11.073  18.752  0.00  0.00    +0.000 C 
ATOM     15  C   UNL     1      -0.198   9.877  19.952  0.00  0.00    +0.000 C 
ATOM     16  C   UNL     1       0.635  12.127  20.795  0.00  0.00    +0.000 C 
ATOM     17  O   UNL     1       0.753  11.598  21.904  0.00  0.00    +0.000 OA
ENDBRANCH   1  12
BRANCH   5  18
ATOM     18  C   UNL     1      -3.378  11.230  17.177  0.00  0.00    +0.000 A 
ATOM     19  C   UNL     1      -4.426  11.558  16.308  0.00  0.00    +0.000 A 
ATOM     20  C   UNL     1      -4.452  11.079  14.995  0.00  0.00    +0.000 A 
ATOM     21  C   UNL     1      -3.445  10.218  14.553  0.00  0.00    +0.000 A 
ATOM     22  C   UNL     1      -2.418   9.834  15.418  0.00  0.00    +0.000 A 
ATOM     23  C   UNL     1      -2.388  10.340  16.726  0.00  0.00    +0.000 A 
BRANCH  21  24
ATOM     24  N   UNL     1      -3.477   9.714  13.174  0.00  0.00    +0.000 N 
ATOM     25  O   UNL     1      -2.414   9.323  12.679  0.00  0.00    +0.000 OA
ATOM     26  O   UNL     1      -4.572   9.712  12.593  0.00  0.00    +0.000 OA
ENDBRANCH  21  24
ENDBRANCH   5  18
TORSDOF 3
ENDMDL
MODEL 7
REMARK VINA RESULT:      -6.4      9.999     12.929
REMARK  Name = 
REMARK  7 active torsions:
REMARK  status: ('A' for Active; 'I' for Inactive)
REMARK    1  A    between atoms: C_1  and  C_2
REMARK    2  A    between atoms: C_2  and  C_3
REMARK    3  A    between atoms: C_7  and  C_8
REMARK    4  A    between atoms: N_12  and  C_13
REMARK    5  A    between atoms: C_16  and  N_17
REMARK    6  A    between atoms: C_22  and  C_23
REMARK    7  A    between atoms: C_22  and  C_24
REMARK                            x       y       z     vdW  Elec       q    Type
REMARK                         _______ _______ _______ _____ _____    ______ ____
ROOT
ATOM      1  C   UNL     1      -3.769  13.903  20.971  0.00  0.00    +0.000 A 
ATOM      2  C   UNL     1      -4.101  15.254  20.958  0.00  0.00    +0.000 A 
ATOM      3  C   UNL     1      -2.922  16.009  20.856  0.00  0.00    +0.000 A 
ATOM      4  C   UNL     1      -1.884  15.117  20.810  0.00  0.00    +0.000 A 
ATOM      5  N   UNL     1      -2.367  13.819  20.872  0.00  0.00    +0.000 N 
ENDROOT
BRANCH   1  12
ATOM      6  C   UNL     1      -7.643  12.224  23.460  0.00  0.00    +0.000 C 
ATOM      7  C   UNL     1      -6.710  13.371  23.039  0.00  0.00    +0.000 C 
ATOM      8  C   UNL     1      -7.079  14.617  23.866  0.00  0.00    +0.000 C 
ATOM      9  C   UNL     1      -5.300  12.936  23.377  0.00  0.00    +0.000 C 
ATOM     10  O   UNL     1      -4.829  13.008  24.507  0.00  0.00    +0.000 OA
ATOM     11  O   UNL     1      -4.645  12.256  22.402  0.00  0.00    +0.000 OA
ATOM     12  C   UNL     1      -4.696  12.711  21.036  0.00  0.00    +0.000 C 
ATOM     13  C   UNL     1      -6.135  12.855  20.534  0.00  0.00    +0.000 C 
ATOM     14  C   UNL     1      -6.811  11.469  20.428  0.00  0.00    +0.000 C 
ATOM     15  C   UNL     1      -6.197  13.470  19.121  0.00  0.00    +0.000 C 
ATOM     16  C   UNL     1      -6.895  13.690  21.556  0.00  0.00    +0.000 C 
ATOM     17  O   UNL     1      -7.683  14.565  21.187  0.00  0.00    +0.000 OA
ENDBRANCH   1  12
BRANCH   5  18
ATOM     18  C   UNL     1      -1.516  12.660  20.803  0.00  0.00    +0.000 A 
ATOM     19  C   UNL     1      -1.018  12.034  21.951  0.00  0.00    +0.000 A 
ATOM     20  C   UNL     1      -0.260  10.862  21.863  0.00  0.00    +0.000 A 
ATOM     21  C   UNL     1       0.050  10.331  20.610  0.00  0.00    +0.000 A 
ATOM     22  C   UNL     1      -0.392  10.968  19.448  0.00  0.00    +0.000 A 
ATOM     23  C   UNL     1      -1.172  12.129  19.548  0.00  0.00    +0.000 A 
BRANCH  21  24
ATOM     24  N   UNL     1       0.848   9.102  20.521  0.00  0.00    +0.000 N 
ATOM     25  O   UNL     1       0.890   8.369  21.516  0.00  0.00    +0.000 OA
ATOM     26  O   UNL     1       1.429   8.875  19.449  0.00  0.00    +0.000 OA
ENDBRANCH  21  24
ENDBRANCH   5  18
TORSDOF 3
ENDMDL
MODEL 8
REMARK VINA RESULT:      -6.4      9.391     11.602
REMARK  Name = 
REMARK  7 active torsions:
REMARK  status: ('A' for Active; 'I' for Inactive)
REMARK    1  A    between atoms: C_1  and  C_2
REMARK    2  A    between atoms: C_2  and  C_3
REMARK    3  A    between atoms: C_7  and  C_8
REMARK    4  A    between atoms: N_12  and  C_13
REMARK    5  A    between atoms: C_16  and  N_17
REMARK    6  A    between atoms: C_22  and  C_23
REMARK    7  A    between atoms: C_22  and  C_24
REMARK                            x       y       z     vdW  Elec       q    Type
REMARK                         _______ _______ _______ _____ _____    ______ ____
ROOT
ATOM      1  C   UNL     1      -1.632  12.700  19.695  0.00  0.00    +0.000 A 
ATOM      2  C   UNL     1      -1.925  13.085  20.999  0.00  0.00    +0.000 A 
ATOM      3  C   UNL     1      -3.259  12.750  21.280  0.00  0.00    +0.000 A 
ATOM      4  C   UNL     1      -3.767  12.166  20.149  0.00  0.00    +0.000 A 
ATOM      5  N   UNL     1      -2.795  12.114  19.162  0.00  0.00    +0.000 N 
ENDROOT
BRANCH   1  12
ATOM      6  C   UNL     1       2.237  15.680  19.275  0.00  0.00    +0.000 C 
ATOM      7  C   UNL     1       0.983  15.202  20.026  0.00  0.00    +0.000 C 
ATOM      8  C   UNL     1       0.710  16.187  21.179  0.00  0.00    +0.000 C 
ATOM      9  C   UNL     1      -0.162  15.245  19.038  0.00  0.00    +0.000 C 
ATOM     10  O   UNL     1      -0.763  16.276  18.753  0.00  0.00    +0.000 OA
ATOM     11  O   UNL     1      -0.358  14.114  18.314  0.00  0.00    +0.000 OA
ATOM     12  C   UNL     1      -0.319  12.824  18.954  0.00  0.00    +0.000 C 
ATOM     13  C   UNL     1       0.992  12.600  19.713  0.00  0.00    +0.000 C 
ATOM     14  C   UNL     1       2.175  12.495  18.725  0.00  0.00    +0.000 C 
ATOM     15  C   UNL     1       0.981  11.280  20.510  0.00  0.00    +0.000 C 
ATOM     16  C   UNL     1       1.213  13.810  20.611  0.00  0.00    +0.000 C 
ATOM     17  O   UNL     1       1.622  13.664  21.766  0.00  0.00    +0.000 OA
ENDBRANCH   1  12
BRANCH   5  18
ATOM     18  C   UNL     1      -3.019  11.517  17.871  0.00  0.00    +0.000 A 
ATOM     19  C   UNL     1      -4.163  11.791  17.113  0.00  0.00    +0.000 A 
ATOM     20  C   UNL     1      -4.321  11.263  15.828  0.00  0.00    +0.000 A 
ATOM     21  C   UNL     1      -3.347  10.409  15.307  0.00  0.00    +0.000 A 
ATOM     22  C   UNL     1      -2.222  10.078  16.065  0.00  0.00    +0.000 A 
ATOM     23  C   UNL     1      -2.062  10.633  17.344  0.00  0.00    +0.000 A 
BRANCH  21  24
ATOM     24  N   UNL     1      -3.518   9.855  13.957  0.00  0.00    +0.000 N 
ATOM     25  O   UNL     1      -2.502   9.676  13.276  0.00  0.00    +0.000 OA
ATOM     26  O   UNL     1      -4.673   9.597  13.588  0.00  0.00    +0.000 OA
ENDBRANCH  21  24
ENDBRANCH   5  18
TORSDOF 3
ENDMDL
MODEL 9
REMARK VINA RESULT:      -6.4      9.955     12.492
REMARK  Name = 
REMARK  7 active torsions:
REMARK  status: ('A' for Active; 'I' for Inactive)
REMARK    1  A    between atoms: C_1  and  C_2
REMARK    2  A    between atoms: C_2  and  C_3
REMARK    3  A    between atoms: C_7  and  C_8
REMARK    4  A    between atoms: N_12  and  C_13
REMARK    5  A    between atoms: C_16  and  N_17
REMARK    6  A    between atoms: C_22  and  C_23
REMARK    7  A    between atoms: C_22  and  C_24
REMARK                            x       y       z     vdW  Elec       q    Type
REMARK                         _______ _______ _______ _____ _____    ______ ____
ROOT
ATOM      1  C   UNL     1       8.564  14.186  20.748  0.00  0.00    +0.000 A 
ATOM      2  C   UNL     1       9.562  14.336  21.705  0.00  0.00    +0.000 A 
ATOM      3  C   UNL     1       9.118  15.237  22.685  0.00  0.00    +0.000 A 
ATOM      4  C   UNL     1       7.857  15.630  22.319  0.00  0.00    +0.000 A 
ATOM      5  N   UNL     1       7.485  15.001  21.141  0.00  0.00    +0.000 N 
ENDROOT
BRANCH   1  12
ATOM      6  C   UNL     1      11.208  13.259  16.727  0.00  0.00    +0.000 C 
ATOM      7  C   UNL     1      11.067  13.866  18.132  0.00  0.00    +0.000 C 
ATOM      8  C   UNL     1      12.332  14.693  18.427  0.00  0.00    +0.000 C 
ATOM      9  C   UNL     1       9.860  14.779  18.095  0.00  0.00    +0.000 C 
ATOM     10  O   UNL     1       9.894  15.917  17.639  0.00  0.00    +0.000 OA
ATOM     11  O   UNL     1       8.673  14.197  18.399  0.00  0.00    +0.000 OA
ATOM     12  C   UNL     1       8.567  13.301  19.522  0.00  0.00    +0.000 C 
ATOM     13  C   UNL     1       9.573  12.150  19.434  0.00  0.00    +0.000 C 
ATOM     14  C   UNL     1       9.221  11.216  18.254  0.00  0.00    +0.000 C 
ATOM     15  C   UNL     1       9.556  11.268  20.698  0.00  0.00    +0.000 C 
ATOM     16  C   UNL     1      10.945  12.761  19.179  0.00  0.00    +0.000 C 
ATOM     17  O   UNL     1      11.940  12.329  19.768  0.00  0.00    +0.000 OA
ENDBRANCH   1  12
BRANCH   5  18
ATOM     18  C   UNL     1       6.195  15.181  20.527  0.00  0.00    +0.000 A 
ATOM     19  C   UNL     1       6.028  15.928  19.355  0.00  0.00    +0.000 A 
ATOM     20  C   UNL     1       4.780  16.023  18.731  0.00  0.00    +0.000 A 
ATOM     21  C   UNL     1       3.669  15.406  19.311  0.00  0.00    +0.000 A 
ATOM     22  C   UNL     1       3.801  14.701  20.509  0.00  0.00    +0.000 A 
ATOM     23  C   UNL     1       5.063  14.590  21.112  0.00  0.00    +0.000 A 
BRANCH  21  24
ATOM     24  N   UNL     1       2.359  15.510  18.655  0.00  0.00    +0.000 N 
ATOM     25  O   UNL     1       1.671  14.487  18.579  0.00  0.00    +0.000 OA
ATOM     26  O   UNL     1       2.026  16.623  18.221  0.00  0.00    +0.000 OA
ENDBRANCH  21  24
ENDBRANCH   5  18
TORSDOF 3
ENDMDL
