MODEL 1
REMARK VINA RESULT:      -8.1      0.000      0.000
REMARK  Name = 
REMARK  8 active torsions:
REMARK  status: ('A' for Active; 'I' for Inactive)
REMARK    1  A    between atoms: C_2  and  C_27
REMARK    2  A    between atoms: N_3  and  C_4
REMARK    3  A    between atoms: C_4  and  C_5
REMARK    4  A    between atoms: C_5  and  N_6
REMARK    5  A    between atoms: C_8  and  S_9
REMARK    6  A    between atoms: S_9  and  C_10
REMARK    7  A    between atoms: C_10  and  C_11
REMARK    8  A    between atoms: C_14  and  C_15
REMARK                            x       y       z     vdW  Elec       q    Type
REMARK                         _______ _______ _______ _____ _____    ______ ____
ROOT
ATOM      1  N   UNL     1       4.893   4.871  19.031  0.00  0.00    +0.000 N 
ATOM      2  C   UNL     1       4.432   6.159  19.145  0.00  0.00    +0.000 A 
ATOM      3  C   UNL     1       3.058   6.140  19.027  0.00  0.00    +0.000 A 
ATOM      4  C   UNL     1       2.677   4.799  18.728  0.00  0.00    +0.000 A 
ATOM      5  C   UNL     1       1.460   4.149  18.396  0.00  0.00    +0.000 A 
ATOM      6  C   UNL     1       1.435   2.756  18.203  0.00  0.00    +0.000 A 
ATOM      7  C   UNL     1       2.588   1.997  18.373  0.00  0.00    +0.000 A 
ATOM      8  C   UNL     1       3.801   2.610  18.681  0.00  0.00    +0.000 A 
ATOM      9  C   UNL     1       3.830   4.015  18.817  0.00  0.00    +0.000 A 
ENDROOT
BRANCH   1  10
ATOM     10  C   UNL     1       6.274   4.412  19.121  0.00  0.00    +0.000 C 
BRANCH  10  11
ATOM     11  C   UNL     1       7.243   4.968  18.088  0.00  0.00    +0.000 C 
BRANCH  11  14
ATOM     12  O   UNL     1       6.334   6.379  15.755  0.00  0.00    +0.000 OA
ATOM     13  C   UNL     1       6.718   5.222  15.665  0.00  0.00    +0.000 C 
ATOM     14  N   UNL     1       7.118   4.455  16.744  0.00  0.00    +0.000 N 
ATOM     15  H   UNL     1       7.502   3.542  16.578  0.00  0.00    +0.000 HD
BRANCH  13  16
ATOM     16  C   UNL     1       6.743   4.515  14.422  0.00  0.00    +0.000 A 
ATOM     17  C   UNL     1       5.938   3.492  13.978  0.00  0.00    +0.000 A 
ATOM     18  C   UNL     1       6.021   3.390  12.575  0.00  0.00    +0.000 A 
ATOM     19  C   UNL     1       6.897   4.298  12.027  0.00  0.00    +0.000 A 
ATOM     20  S   UNL     1       7.853   5.029  13.223  0.00  0.00    +0.000 S 
ENDBRANCH  13  16
ENDBRANCH  11  14
ENDBRANCH  10  11
ENDBRANCH   1  10
BRANCH   3  21
ATOM     21  S   UNL     1       2.060   7.581  19.070  0.00  0.00    +0.000 S 
BRANCH  21  22
ATOM     22  C   UNL     1       1.443   7.707  20.775  0.00  0.00    +0.000 C 
BRANCH  22  23
ATOM     23  C   UNL     1       0.643   8.932  21.224  0.00  0.00    +0.000 A 
ATOM     24  C   UNL     1       0.240   9.977  20.384  0.00  0.00    +0.000 A 
ATOM     25  C   UNL     1      -0.552  11.046  20.867  0.00  0.00    +0.000 A 
ATOM     26  C   UNL     1      -0.967  11.105  22.209  0.00  0.00    +0.000 A 
ATOM     27  C   UNL     1      -0.543  10.071  23.053  0.00  0.00    +0.000 A 
ATOM     28  C   UNL     1       0.224   9.001  22.567  0.00  0.00    +0.000 A 
BRANCH  26  29
ATOM     29  C   UNL     1      -1.780  12.242  22.812  0.00  0.00    +0.000 C 
ATOM     30  F   UNL     1      -2.467  12.992  21.900  0.00  0.00    +0.000 F 
ATOM     31  F   UNL     1      -2.717  11.822  23.703  0.00  0.00    +0.000 F 
ATOM     32  F   UNL     1      -1.014  13.129  23.517  0.00  0.00    +0.000 F 
ENDBRANCH  26  29
ENDBRANCH  22  23
ENDBRANCH  21  22
ENDBRANCH   3  21
TORSDOF 8
ENDMDL
MODEL 2
REMARK VINA RESULT:      -8.0      4.141      5.929
REMARK  Name = 
REMARK  8 active torsions:
REMARK  status: ('A' for Active; 'I' for Inactive)
REMARK    1  A    between atoms: C_2  and  C_27
REMARK    2  A    between atoms: N_3  and  C_4
REMARK    3  A    between atoms: C_4  and  C_5
REMARK    4  A    between atoms: C_5  and  N_6
REMARK    5  A    between atoms: C_8  and  S_9
REMARK    6  A    between atoms: S_9  and  C_10
REMARK    7  A    between atoms: C_10  and  C_11
REMARK    8  A    between atoms: C_14  and  C_15
REMARK                            x       y       z     vdW  Elec       q    Type
REMARK                         _______ _______ _______ _____ _____    ______ ____
ROOT
ATOM      1  N   UNL     1       6.625   6.053  17.667  0.00  0.00    +0.000 N 
ATOM      2  C   UNL     1       5.502   5.885  18.436  0.00  0.00    +0.000 A 
ATOM      3  C   UNL     1       4.621   5.078  17.747  0.00  0.00    +0.000 A 
ATOM      4  C   UNL     1       5.191   4.827  16.464  0.00  0.00    +0.000 A 
ATOM      5  C   UNL     1       4.759   4.174  15.281  0.00  0.00    +0.000 A 
ATOM      6  C   UNL     1       5.625   4.067  14.178  0.00  0.00    +0.000 A 
ATOM      7  C   UNL     1       6.923   4.563  14.247  0.00  0.00    +0.000 A 
ATOM      8  C   UNL     1       7.369   5.225  15.389  0.00  0.00    +0.000 A 
ATOM      9  C   UNL     1       6.475   5.379  16.471  0.00  0.00    +0.000 A 
ENDROOT
BRANCH   1  10
ATOM     10  C   UNL     1       7.827   6.807  18.005  0.00  0.00    +0.000 C 
BRANCH  10  11
ATOM     11  C   UNL     1       7.764   8.314  17.801  0.00  0.00    +0.000 C 
BRANCH  11  14
ATOM     12  O   UNL     1       8.321  11.117  17.504  0.00  0.00    +0.000 OA
ATOM     13  C   UNL     1       8.874  10.468  18.380  0.00  0.00    +0.000 C 
ATOM     14  N   UNL     1       8.705   9.107  18.555  0.00  0.00    +0.000 N 
ATOM     15  H   UNL     1       9.125   8.662  19.350  0.00  0.00    +0.000 HD
BRANCH  13  16
ATOM     16  C   UNL     1       9.808  11.051  19.293  0.00  0.00    +0.000 A 
ATOM     17  C   UNL     1      11.080  11.522  19.065  0.00  0.00    +0.000 A 
ATOM     18  C   UNL     1      11.467  12.383  20.112  0.00  0.00    +0.000 A 
ATOM     19  C   UNL     1      10.506  12.495  21.090  0.00  0.00    +0.000 A 
ATOM     20  S   UNL     1       9.301  11.315  20.907  0.00  0.00    +0.000 S 
ENDBRANCH  13  16
ENDBRANCH  11  14
ENDBRANCH  10  11
ENDBRANCH   1  10
BRANCH   3  21
ATOM     21  S   UNL     1       3.033   4.639  18.346  0.00  0.00    +0.000 S 
BRANCH  21  22
ATOM     22  C   UNL     1       2.722   5.723  19.772  0.00  0.00    +0.000 C 
BRANCH  22  23
ATOM     23  C   UNL     1       2.203   7.148  19.568  0.00  0.00    +0.000 A 
ATOM     24  C   UNL     1       2.284   7.865  18.368  0.00  0.00    +0.000 A 
ATOM     25  C   UNL     1       1.724   9.158  18.245  0.00  0.00    +0.000 A 
ATOM     26  C   UNL     1       1.062   9.778  19.319  0.00  0.00    +0.000 A 
ATOM     27  C   UNL     1       1.002   9.068  20.526  0.00  0.00    +0.000 A 
ATOM     28  C   UNL     1       1.541   7.778  20.639  0.00  0.00    +0.000 A 
BRANCH  26  29
ATOM     29  C   UNL     1       0.474  11.181  19.278  0.00  0.00    +0.000 C 
ATOM     30  F   UNL     1      -0.317  11.493  20.347  0.00  0.00    +0.000 F 
ATOM     31  F   UNL     1       1.415  12.161  19.237  0.00  0.00    +0.000 F 
ATOM     32  F   UNL     1      -0.298  11.403  18.171  0.00  0.00    +0.000 F 
ENDBRANCH  26  29
ENDBRANCH  22  23
ENDBRANCH  21  22
ENDBRANCH   3  21
TORSDOF 8
ENDMDL
MODEL 3
REMARK VINA RESULT:      -8.0      5.721      9.796
REMARK  Name = 
REMARK  8 active torsions:
REMARK  status: ('A' for Active; 'I' for Inactive)
REMARK    1  A    between atoms: C_2  and  C_27
REMARK    2  A    between atoms: N_3  and  C_4
REMARK    3  A    between atoms: C_4  and  C_5
REMARK    4  A    between atoms: C_5  and  N_6
REMARK    5  A    between atoms: C_8  and  S_9
REMARK    6  A    between atoms: S_9  and  C_10
REMARK    7  A    between atoms: C_10  and  C_11
REMARK    8  A    between atoms: C_14  and  C_15
REMARK                            x       y       z     vdW  Elec       q    Type
REMARK                         _______ _______ _______ _____ _____    ______ ____
ROOT
ATOM      1  N   UNL     1       2.398   5.708  19.928  0.00  0.00    +0.000 N 
ATOM      2  C   UNL     1       3.713   6.086  19.821  0.00  0.00    +0.000 A 
ATOM      3  C   UNL     1       4.422   5.039  19.270  0.00  0.00    +0.000 A 
ATOM      4  C   UNL     1       3.519   3.944  19.129  0.00  0.00    +0.000 A 
ATOM      5  C   UNL     1       3.638   2.587  18.734  0.00  0.00    +0.000 A 
ATOM      6  C   UNL     1       2.495   1.771  18.662  0.00  0.00    +0.000 A 
ATOM      7  C   UNL     1       1.236   2.292  18.938  0.00  0.00    +0.000 A 
ATOM      8  C   UNL     1       1.090   3.616  19.345  0.00  0.00    +0.000 A 
ATOM      9  C   UNL     1       2.248   4.413  19.471  0.00  0.00    +0.000 A 
ENDROOT
BRANCH   1  10
ATOM     10  C   UNL     1       1.284   6.504  20.431  0.00  0.00    +0.000 C 
BRANCH  10  11
ATOM     11  C   UNL     1       1.619   7.903  20.928  0.00  0.00    +0.000 C 
BRANCH  11  14
ATOM     12  O   UNL     1       1.611   9.180  18.354  0.00  0.00    +0.000 OA
ATOM     13  C   UNL     1       0.786   9.494  19.200  0.00  0.00    +0.000 C 
ATOM     14  N   UNL     1       0.756   8.970  20.479  0.00  0.00    +0.000 N 
ATOM     15  H   UNL     1      -0.004   9.213  21.088  0.00  0.00    +0.000 HD
BRANCH  13  16
ATOM     16  C   UNL     1      -0.213  10.490  18.966  0.00  0.00    +0.000 A 
ATOM     17  C   UNL     1      -1.156  10.571  17.968  0.00  0.00    +0.000 A 
ATOM     18  C   UNL     1      -2.186  11.452  18.351  0.00  0.00    +0.000 A 
ATOM     19  C   UNL     1      -1.968  12.021  19.585  0.00  0.00    +0.000 A 
ATOM     20  S   UNL     1      -0.378  11.751  20.113  0.00  0.00    +0.000 S 
ENDBRANCH  13  16
ENDBRANCH  11  14
ENDBRANCH  10  11
ENDBRANCH   1  10
BRANCH   3  21
ATOM     21  S   UNL     1       6.153   5.077  18.994  0.00  0.00    +0.000 S 
BRANCH  21  22
ATOM     22  C   UNL     1       6.385   5.924  17.403  0.00  0.00    +0.000 C 
BRANCH  22  23
ATOM     23  C   UNL     1       6.244   5.159  16.085  0.00  0.00    +0.000 A 
ATOM     24  C   UNL     1       5.232   4.233  15.802  0.00  0.00    +0.000 A 
ATOM     25  C   UNL     1       5.138   3.613  14.534  0.00  0.00    +0.000 A 
ATOM     26  C   UNL     1       6.053   3.897  13.506  0.00  0.00    +0.000 A 
ATOM     27  C   UNL     1       7.079   4.805  13.800  0.00  0.00    +0.000 A 
ATOM     28  C   UNL     1       7.158   5.435  15.051  0.00  0.00    +0.000 A 
BRANCH  26  29
ATOM     29  C   UNL     1       6.045   3.238  12.134  0.00  0.00    +0.000 C 
ATOM     30  F   UNL     1       5.595   1.948  12.129  0.00  0.00    +0.000 F 
ATOM     31  F   UNL     1       5.267   3.887  11.228  0.00  0.00    +0.000 F 
ATOM     32  F   UNL     1       7.283   3.199  11.554  0.00  0.00    +0.000 F 
ENDBRANCH  26  29
ENDBRANCH  22  23
ENDBRANCH  21  22
ENDBRANCH   3  21
TORSDOF 8
ENDMDL
MODEL 4
REMARK VINA RESULT:      -8.0      6.059     10.939
REMARK  Name = 
REMARK  8 active torsions:
REMARK  status: ('A' for Active; 'I' for Inactive)
REMARK    1  A    between atoms: C_2  and  C_27
REMARK    2  A    between atoms: N_3  and  C_4
REMARK    3  A    between atoms: C_4  and  C_5
REMARK    4  A    between atoms: C_5  and  N_6
REMARK    5  A    between atoms: C_8  and  S_9
REMARK    6  A    between atoms: S_9  and  C_10
REMARK    7  A    between atoms: C_10  and  C_11
REMARK    8  A    between atoms: C_14  and  C_15
REMARK                            x       y       z     vdW  Elec       q    Type
REMARK                         _______ _______ _______ _____ _____    ______ ____
ROOT
ATOM      1  N   UNL     1      -0.483  11.371  19.437  0.00  0.00    +0.000 N 
ATOM      2  C   UNL     1       0.303  10.247  19.465  0.00  0.00    +0.000 A 
ATOM      3  C   UNL     1       0.261   9.719  20.739  0.00  0.00    +0.000 A 
ATOM      4  C   UNL     1      -0.501  10.616  21.544  0.00  0.00    +0.000 A 
ATOM      5  C   UNL     1      -0.823  10.704  22.922  0.00  0.00    +0.000 A 
ATOM      6  C   UNL     1      -1.669  11.728  23.384  0.00  0.00    +0.000 A 
ATOM      7  C   UNL     1      -2.228  12.640  22.495  0.00  0.00    +0.000 A 
ATOM      8  C   UNL     1      -1.916  12.589  21.138  0.00  0.00    +0.000 A 
ATOM      9  C   UNL     1      -1.021  11.593  20.690  0.00  0.00    +0.000 A 
ENDROOT
BRANCH   1  10
ATOM     10  C   UNL     1      -0.756  12.234  18.294  0.00  0.00    +0.000 C 
BRANCH  10  11
ATOM     11  C   UNL     1      -1.972  11.880  17.450  0.00  0.00    +0.000 C 
BRANCH  11  14
ATOM     12  O   UNL     1      -4.499  10.930  16.467  0.00  0.00    +0.000 OA
ATOM     13  C   UNL     1      -4.420  11.435  17.577  0.00  0.00    +0.000 C 
ATOM     14  N   UNL     1      -3.257  11.967  18.102  0.00  0.00    +0.000 N 
ATOM     15  H   UNL     1      -3.253  12.285  19.054  0.00  0.00    +0.000 HD
BRANCH  13  16
ATOM     16  C   UNL     1      -5.554  11.578  18.438  0.00  0.00    +0.000 A 
ATOM     17  C   UNL     1      -6.756  10.910  18.424  0.00  0.00    +0.000 A 
ATOM     18  C   UNL     1      -7.396  11.047  19.672  0.00  0.00    +0.000 A 
ATOM     19  C   UNL     1      -6.682  11.829  20.552  0.00  0.00    +0.000 A 
ATOM     20  S   UNL     1      -5.431  12.657  19.761  0.00  0.00    +0.000 S 
ENDBRANCH  13  16
ENDBRANCH  11  14
ENDBRANCH  10  11
ENDBRANCH   1  10
BRANCH   3  21
ATOM     21  S   UNL     1       1.162   8.298  21.231  0.00  0.00    +0.000 S 
BRANCH  21  22
ATOM     22  C   UNL     1       2.155   7.813  19.788  0.00  0.00    +0.000 C 
BRANCH  22  23
ATOM     23  C   UNL     1       2.274   6.342  19.383  0.00  0.00    +0.000 A 
ATOM     24  C   UNL     1       2.738   5.889  18.142  0.00  0.00    +0.000 A 
ATOM     25  C   UNL     1       2.875   4.508  17.869  0.00  0.00    +0.000 A 
ATOM     26  C   UNL     1       2.553   3.532  18.829  0.00  0.00    +0.000 A 
ATOM     27  C   UNL     1       2.066   3.988  20.061  0.00  0.00    +0.000 A 
ATOM     28  C   UNL     1       1.951   5.358  20.337  0.00  0.00    +0.000 A 
BRANCH  26  29
ATOM     29  C   UNL     1       2.631   2.030  18.595  0.00  0.00    +0.000 C 
ATOM     30  F   UNL     1       2.383   1.646  17.308  0.00  0.00    +0.000 F 
ATOM     31  F   UNL     1       3.845   1.499  18.896  0.00  0.00    +0.000 F 
ATOM     32  F   UNL     1       1.749   1.325  19.366  0.00  0.00    +0.000 F 
ENDBRANCH  26  29
ENDBRANCH  22  23
ENDBRANCH  21  22
ENDBRANCH   3  21
TORSDOF 8
ENDMDL
MODEL 5
REMARK VINA RESULT:      -7.9      5.797      9.985
REMARK  Name = 
REMARK  8 active torsions:
REMARK  status: ('A' for Active; 'I' for Inactive)
REMARK    1  A    between atoms: C_2  and  C_27
REMARK    2  A    between atoms: N_3  and  C_4
REMARK    3  A    between atoms: C_4  and  C_5
REMARK    4  A    between atoms: C_5  and  N_6
REMARK    5  A    between atoms: C_8  and  S_9
REMARK    6  A    between atoms: S_9  and  C_10
REMARK    7  A    between atoms: C_10  and  C_11
REMARK    8  A    between atoms: C_14  and  C_15
REMARK                            x       y       z     vdW  Elec       q    Type
REMARK                         _______ _______ _______ _____ _____    ______ ____
ROOT
ATOM      1  N   UNL     1       2.390   5.691  19.929  0.00  0.00    +0.000 N 
ATOM      2  C   UNL     1       3.702   6.083  19.837  0.00  0.00    +0.000 A 
ATOM      3  C   UNL     1       4.423   5.054  19.268  0.00  0.00    +0.000 A 
ATOM      4  C   UNL     1       3.531   3.954  19.099  0.00  0.00    +0.000 A 
ATOM      5  C   UNL     1       3.664   2.607  18.676  0.00  0.00    +0.000 A 
ATOM      6  C   UNL     1       2.529   1.783  18.580  0.00  0.00    +0.000 A 
ATOM      7  C   UNL     1       1.263   2.287  18.860  0.00  0.00    +0.000 A 
ATOM      8  C   UNL     1       1.103   3.601  19.294  0.00  0.00    +0.000 A 
ATOM      9  C   UNL     1       2.254   4.405  19.444  0.00  0.00    +0.000 A 
ENDROOT
BRANCH   1  10
ATOM     10  C   UNL     1       1.267   6.466  20.442  0.00  0.00    +0.000 C 
BRANCH  10  11
ATOM     11  C   UNL     1       1.573   7.885  20.899  0.00  0.00    +0.000 C 
BRANCH  11  14
ATOM     12  O   UNL     1      -0.434   9.490  22.184  0.00  0.00    +0.000 OA
ATOM     13  C   UNL     1      -0.133   9.698  21.018  0.00  0.00    +0.000 C 
ATOM     14  N   UNL     1       0.779   8.937  20.309  0.00  0.00    +0.000 N 
ATOM     15  H   UNL     1       1.037   9.224  19.383  0.00  0.00    +0.000 HD
BRANCH  13  16
ATOM     16  C   UNL     1      -0.744  10.730  20.239  0.00  0.00    +0.000 A 
ATOM     17  C   UNL     1      -1.371  11.884  20.649  0.00  0.00    +0.000 A 
ATOM     18  C   UNL     1      -1.437  12.800  19.580  0.00  0.00    +0.000 A 
ATOM     19  C   UNL     1      -0.901  12.298  18.416  0.00  0.00    +0.000 A 
ATOM     20  S   UNL     1      -0.635  10.626  18.534  0.00  0.00    +0.000 S 
ENDBRANCH  13  16
ENDBRANCH  11  14
ENDBRANCH  10  11
ENDBRANCH   1  10
BRANCH   3  21
ATOM     21  S   UNL     1       6.155   5.113  19.003  0.00  0.00    +0.000 S 
BRANCH  21  22
ATOM     22  C   UNL     1       6.387   5.968  17.415  0.00  0.00    +0.000 C 
BRANCH  22  23
ATOM     23  C   UNL     1       6.223   5.214  16.094  0.00  0.00    +0.000 A 
ATOM     24  C   UNL     1       5.105   4.446  15.743  0.00  0.00    +0.000 A 
ATOM     25  C   UNL     1       5.006   3.829  14.474  0.00  0.00    +0.000 A 
ATOM     26  C   UNL     1       6.022   3.959  13.511  0.00  0.00    +0.000 A 
ATOM     27  C   UNL     1       7.150   4.708  13.873  0.00  0.00    +0.000 A 
ATOM     28  C   UNL     1       7.237   5.336  15.124  0.00  0.00    +0.000 A 
BRANCH  26  29
ATOM     29  C   UNL     1       6.008   3.290  12.144  0.00  0.00    +0.000 C 
ATOM     30  F   UNL     1       7.164   3.437  11.432  0.00  0.00    +0.000 F 
ATOM     31  F   UNL     1       5.794   1.949  12.201  0.00  0.00    +0.000 F 
ATOM     32  F   UNL     1       5.013   3.760  11.332  0.00  0.00    +0.000 F 
ENDBRANCH  26  29
ENDBRANCH  22  23
ENDBRANCH  21  22
ENDBRANCH   3  21
TORSDOF 8
ENDMDL
MODEL 6
REMARK VINA RESULT:      -7.9      1.388      1.869
REMARK  Name = 
REMARK  8 active torsions:
REMARK  status: ('A' for Active; 'I' for Inactive)
REMARK    1  A    between atoms: C_2  and  C_27
REMARK    2  A    between atoms: N_3  and  C_4
REMARK    3  A    between atoms: C_4  and  C_5
REMARK    4  A    between atoms: C_5  and  N_6
REMARK    5  A    between atoms: C_8  and  S_9
REMARK    6  A    between atoms: S_9  and  C_10
REMARK    7  A    between atoms: C_10  and  C_11
REMARK    8  A    between atoms: C_14  and  C_15
REMARK                            x       y       z     vdW  Elec       q    Type
REMARK                         _______ _______ _______ _____ _____    ______ ____
ROOT
ATOM      1  N   UNL     1       5.018   4.972  17.444  0.00  0.00    +0.000 N 
ATOM      2  C   UNL     1       4.639   6.270  17.679  0.00  0.00    +0.000 A 
ATOM      3  C   UNL     1       3.334   6.267  18.125  0.00  0.00    +0.000 A 
ATOM      4  C   UNL     1       2.868   4.920  18.062  0.00  0.00    +0.000 A 
ATOM      5  C   UNL     1       1.623   4.276  18.277  0.00  0.00    +0.000 A 
ATOM      6  C   UNL     1       1.525   2.877  18.171  0.00  0.00    +0.000 A 
ATOM      7  C   UNL     1       2.651   2.109  17.893  0.00  0.00    +0.000 A 
ATOM      8  C   UNL     1       3.883   2.715  17.660  0.00  0.00    +0.000 A 
ATOM      9  C   UNL     1       3.961   4.124  17.712  0.00  0.00    +0.000 A 
ENDROOT
BRANCH   1  10
ATOM     10  C   UNL     1       6.319   4.496  16.988  0.00  0.00    +0.000 C 
BRANCH  10  11
ATOM     11  C   UNL     1       6.905   5.187  15.766  0.00  0.00    +0.000 C 
BRANCH  11  14
ATOM     12  O   UNL     1       4.715   4.523  14.029  0.00  0.00    +0.000 OA
ATOM     13  C   UNL     1       5.854   4.183  13.742  0.00  0.00    +0.000 C 
ATOM     14  N   UNL     1       6.954   4.413  14.549  0.00  0.00    +0.000 N 
ATOM     15  H   UNL     1       7.868   4.181  14.204  0.00  0.00    +0.000 HD
BRANCH  13  16
ATOM     16  C   UNL     1       6.161   3.454  12.551  0.00  0.00    +0.000 A 
ATOM     17  C   UNL     1       7.381   3.196  11.969  0.00  0.00    +0.000 A 
ATOM     18  C   UNL     1       7.269   2.110  11.079  0.00  0.00    +0.000 A 
ATOM     19  C   UNL     1       5.985   1.622  10.995  0.00  0.00    +0.000 A 
ATOM     20  S   UNL     1       4.877   2.681  11.724  0.00  0.00    +0.000 S 
ENDBRANCH  13  16
ENDBRANCH  11  14
ENDBRANCH  10  11
ENDBRANCH   1  10
BRANCH   3  21
ATOM     21  S   UNL     1       2.435   7.723  18.505  0.00  0.00    +0.000 S 
BRANCH  21  22
ATOM     22  C   UNL     1       1.947   7.565  20.249  0.00  0.00    +0.000 C 
BRANCH  22  23
ATOM     23  C   UNL     1       1.047   8.616  20.903  0.00  0.00    +0.000 A 
ATOM     24  C   UNL     1       0.768   8.689  22.274  0.00  0.00    +0.000 A 
ATOM     25  C   UNL     1      -0.027   9.730  22.807  0.00  0.00    +0.000 A 
ATOM     26  C   UNL     1      -0.572  10.734  21.988  0.00  0.00    +0.000 A 
ATOM     27  C   UNL     1      -0.312  10.645  20.614  0.00  0.00    +0.000 A 
ATOM     28  C   UNL     1       0.495   9.624  20.089  0.00  0.00    +0.000 A 
BRANCH  26  29
ATOM     29  C   UNL     1      -1.472  11.858  22.480  0.00  0.00    +0.000 C 
ATOM     30  F   UNL     1      -2.366  12.313  21.553  0.00  0.00    +0.000 F 
ATOM     31  F   UNL     1      -2.225  11.514  23.558  0.00  0.00    +0.000 F 
ATOM     32  F   UNL     1      -0.773  12.959  22.890  0.00  0.00    +0.000 F 
ENDBRANCH  26  29
ENDBRANCH  22  23
ENDBRANCH  21  22
ENDBRANCH   3  21
TORSDOF 8
ENDMDL
MODEL 7
REMARK VINA RESULT:      -7.9      5.546      8.260
REMARK  Name = 
REMARK  8 active torsions:
REMARK  status: ('A' for Active; 'I' for Inactive)
REMARK    1  A    between atoms: C_2  and  C_27
REMARK    2  A    between atoms: N_3  and  C_4
REMARK    3  A    between atoms: C_4  and  C_5
REMARK    4  A    between atoms: C_5  and  N_6
REMARK    5  A    between atoms: C_8  and  S_9
REMARK    6  A    between atoms: S_9  and  C_10
REMARK    7  A    between atoms: C_10  and  C_11
REMARK    8  A    between atoms: C_14  and  C_15
REMARK                            x       y       z     vdW  Elec       q    Type
REMARK                         _______ _______ _______ _____ _____    ______ ____
ROOT
ATOM      1  N   UNL     1       5.494   4.385  18.497  0.00  0.00    +0.000 N 
ATOM      2  C   UNL     1       6.318   5.230  19.196  0.00  0.00    +0.000 A 
ATOM      3  C   UNL     1       7.110   5.909  18.294  0.00  0.00    +0.000 A 
ATOM      4  C   UNL     1       6.825   5.381  17.000  0.00  0.00    +0.000 A 
ATOM      5  C   UNL     1       7.355   5.570  15.698  0.00  0.00    +0.000 A 
ATOM      6  C   UNL     1       6.785   4.900  14.601  0.00  0.00    +0.000 A 
ATOM      7  C   UNL     1       5.675   4.079  14.772  0.00  0.00    +0.000 A 
ATOM      8  C   UNL     1       5.144   3.861  16.041  0.00  0.00    +0.000 A 
ATOM      9  C   UNL     1       5.758   4.492  17.145  0.00  0.00    +0.000 A 
ENDROOT
BRANCH   1  10
ATOM     10  C   UNL     1       4.473   3.494  19.037  0.00  0.00    +0.000 C 
BRANCH  10  11
ATOM     11  C   UNL     1       3.270   4.157  19.690  0.00  0.00    +0.000 C 
BRANCH  11  14
ATOM     12  O   UNL     1       1.372   5.967  20.866  0.00  0.00    +0.000 OA
ATOM     13  C   UNL     1       2.085   6.335  19.944  0.00  0.00    +0.000 C 
ATOM     14  N   UNL     1       2.982   5.513  19.286  0.00  0.00    +0.000 N 
ATOM     15  H   UNL     1       3.594   5.912  18.598  0.00  0.00    +0.000 HD
BRANCH  13  16
ATOM     16  C   UNL     1       2.023   7.659  19.407  0.00  0.00    +0.000 A 
ATOM     17  C   UNL     1       2.441   8.131  18.184  0.00  0.00    +0.000 A 
ATOM     18  C   UNL     1       1.814   9.362  17.905  0.00  0.00    +0.000 A 
ATOM     19  C   UNL     1       0.993   9.783  18.926  0.00  0.00    +0.000 A 
ATOM     20  S   UNL     1       1.244   8.870  20.334  0.00  0.00    +0.000 S 
ENDBRANCH  13  16
ENDBRANCH  11  14
ENDBRANCH  10  11
ENDBRANCH   1  10
BRANCH   3  21
ATOM     21  S   UNL     1       8.343   7.065  18.760  0.00  0.00    +0.000 S 
BRANCH  21  22
ATOM     22  C   UNL     1       7.963   8.592  17.852  0.00  0.00    +0.000 C 
BRANCH  22  23
ATOM     23  C   UNL     1       8.552   9.932  18.300  0.00  0.00    +0.000 A 
ATOM     24  C   UNL     1       9.385  10.108  19.412  0.00  0.00    +0.000 A 
ATOM     25  C   UNL     1       9.938  11.372  19.723  0.00  0.00    +0.000 A 
ATOM     26  C   UNL     1       9.675  12.505  18.933  0.00  0.00    +0.000 A 
ATOM     27  C   UNL     1       8.822  12.331  17.835  0.00  0.00    +0.000 A 
ATOM     28  C   UNL     1       8.292  11.072  17.516  0.00  0.00    +0.000 A 
BRANCH  26  29
ATOM     29  C   UNL     1      10.195  13.904  19.228  0.00  0.00    +0.000 C 
ATOM     30  F   UNL     1      11.551  13.984  19.372  0.00  0.00    +0.000 F 
ATOM     31  F   UNL     1       9.888  14.810  18.262  0.00  0.00    +0.000 F 
ATOM     32  F   UNL     1       9.671  14.437  20.373  0.00  0.00    +0.000 F 
ENDBRANCH  26  29
ENDBRANCH  22  23
ENDBRANCH  21  22
ENDBRANCH   3  21
TORSDOF 8
ENDMDL
MODEL 8
REMARK VINA RESULT:      -7.8      5.613      9.901
REMARK  Name = 
REMARK  8 active torsions:
REMARK  status: ('A' for Active; 'I' for Inactive)
REMARK    1  A    between atoms: C_2  and  C_27
REMARK    2  A    between atoms: N_3  and  C_4
REMARK    3  A    between atoms: C_4  and  C_5
REMARK    4  A    between atoms: C_5  and  N_6
REMARK    5  A    between atoms: C_8  and  S_9
REMARK    6  A    between atoms: S_9  and  C_10
REMARK    7  A    between atoms: C_10  and  C_11
REMARK    8  A    between atoms: C_14  and  C_15
REMARK                            x       y       z     vdW  Elec       q    Type
REMARK                         _______ _______ _______ _____ _____    ______ ____
ROOT
ATOM      1  N   UNL     1       2.794   6.156  18.438  0.00  0.00    +0.000 N 
ATOM      2  C   UNL     1       4.125   6.411  18.647  0.00  0.00    +0.000 A 
ATOM      3  C   UNL     1       4.780   5.206  18.795  0.00  0.00    +0.000 A 
ATOM      4  C   UNL     1       3.789   4.180  18.774  0.00  0.00    +0.000 A 
ATOM      5  C   UNL     1       3.791   2.776  18.973  0.00  0.00    +0.000 A 
ATOM      6  C   UNL     1       2.601   2.041  18.827  0.00  0.00    +0.000 A 
ATOM      7  C   UNL     1       1.421   2.674  18.450  0.00  0.00    +0.000 A 
ATOM      8  C   UNL     1       1.385   4.055  18.265  0.00  0.00    +0.000 A 
ATOM      9  C   UNL     1       2.571   4.792  18.470  0.00  0.00    +0.000 A 
ENDROOT
BRANCH   1  10
ATOM     10  C   UNL     1       1.730   7.126  18.205  0.00  0.00    +0.000 C 
BRANCH  10  11
ATOM     11  C   UNL     1       2.166   8.555  17.918  0.00  0.00    +0.000 C 
BRANCH  11  14
ATOM     12  O   UNL     1      -0.430   9.724  17.532  0.00  0.00    +0.000 OA
ATOM     13  C   UNL     1       0.263  10.061  18.481  0.00  0.00    +0.000 C 
ATOM     14  N   UNL     1       1.543   9.590  18.708  0.00  0.00    +0.000 N 
ATOM     15  H   UNL     1       2.014   9.848  19.556  0.00  0.00    +0.000 HD
BRANCH  13  16
ATOM     16  C   UNL     1      -0.167  11.033  19.439  0.00  0.00    +0.000 A 
ATOM     17  C   UNL     1      -1.439  11.437  19.769  0.00  0.00    +0.000 A 
ATOM     18  C   UNL     1      -1.430  12.074  21.026  0.00  0.00    +0.000 A 
ATOM     19  C   UNL     1      -0.169  12.157  21.570  0.00  0.00    +0.000 A 
ATOM     20  S   UNL     1       1.022  11.776  20.422  0.00  0.00    +0.000 S 
ENDBRANCH  13  16
ENDBRANCH  11  14
ENDBRANCH  10  11
ENDBRANCH   1  10
BRANCH   3  21
ATOM     21  S   UNL     1       6.497   5.067  19.124  0.00  0.00    +0.000 S 
BRANCH  21  22
ATOM     22  C   UNL     1       7.338   5.518  17.577  0.00  0.00    +0.000 C 
BRANCH  22  23
ATOM     23  C   UNL     1       6.903   4.902  16.245  0.00  0.00    +0.000 A 
ATOM     24  C   UNL     1       5.850   3.991  16.091  0.00  0.00    +0.000 A 
ATOM     25  C   UNL     1       5.473   3.514  14.814  0.00  0.00    +0.000 A 
ATOM     26  C   UNL     1       6.135   3.932  13.647  0.00  0.00    +0.000 A 
ATOM     27  C   UNL     1       7.203   4.825  13.806  0.00  0.00    +0.000 A 
ATOM     28  C   UNL     1       7.563   5.313  15.071  0.00  0.00    +0.000 A 
BRANCH  26  29
ATOM     29  C   UNL     1       5.816   3.431  12.245  0.00  0.00    +0.000 C 
ATOM     30  F   UNL     1       6.011   2.091  12.067  0.00  0.00    +0.000 F 
ATOM     31  F   UNL     1       4.529   3.655  11.871  0.00  0.00    +0.000 F 
ATOM     32  F   UNL     1       6.564   4.044  11.278  0.00  0.00    +0.000 F 
ENDBRANCH  26  29
ENDBRANCH  22  23
ENDBRANCH  21  22
ENDBRANCH   3  21
TORSDOF 8
ENDMDL
MODEL 9
REMARK VINA RESULT:      -7.8      4.636      6.257
REMARK  Name = 
REMARK  8 active torsions:
REMARK  status: ('A' for Active; 'I' for Inactive)
REMARK    1  A    between atoms: C_2  and  C_27
REMARK    2  A    between atoms: N_3  and  C_4
REMARK    3  A    between atoms: C_4  and  C_5
REMARK    4  A    between atoms: C_5  and  N_6
REMARK    5  A    between atoms: C_8  and  S_9
REMARK    6  A    between atoms: S_9  and  C_10
REMARK    7  A    between atoms: C_10  and  C_11
REMARK    8  A    between atoms: C_14  and  C_15
REMARK                            x       y       z     vdW  Elec       q    Type
REMARK                         _______ _______ _______ _____ _____    ______ ____
ROOT
ATOM      1  N   UNL     1       7.000   6.379  17.349  0.00  0.00    +0.000 N 
ATOM      2  C   UNL     1       6.418   6.015  18.537  0.00  0.00    +0.000 A 
ATOM      3  C   UNL     1       5.699   4.855  18.330  0.00  0.00    +0.000 A 
ATOM      4  C   UNL     1       5.766   4.558  16.937  0.00  0.00    +0.000 A 
ATOM      5  C   UNL     1       5.175   3.591  16.085  0.00  0.00    +0.000 A 
ATOM      6  C   UNL     1       5.509   3.554  14.720  0.00  0.00    +0.000 A 
ATOM      7  C   UNL     1       6.449   4.437  14.198  0.00  0.00    +0.000 A 
ATOM      8  C   UNL     1       7.033   5.410  15.007  0.00  0.00    +0.000 A 
ATOM      9  C   UNL     1       6.649   5.477  16.364  0.00  0.00    +0.000 A 
ENDROOT
BRANCH   1  10
ATOM     10  C   UNL     1       7.871   7.522  17.102  0.00  0.00    +0.000 C 
BRANCH  10  11
ATOM     11  C   UNL     1       8.151   8.432  18.290  0.00  0.00    +0.000 C 
BRANCH  11  14
ATOM     12  O   UNL     1       9.392  10.323  20.062  0.00  0.00    +0.000 OA
ATOM     13  C   UNL     1       9.202  10.610  18.889  0.00  0.00    +0.000 C 
ATOM     14  N   UNL     1       8.562   9.782  17.986  0.00  0.00    +0.000 N 
ATOM     15  H   UNL     1       8.521  10.053  17.020  0.00  0.00    +0.000 HD
BRANCH  13  16
ATOM     16  C   UNL     1       9.578  11.875  18.337  0.00  0.00    +0.000 A 
ATOM     17  C   UNL     1       8.831  13.018  18.171  0.00  0.00    +0.000 A 
ATOM     18  C   UNL     1       9.683  14.128  18.000  0.00  0.00    +0.000 A 
ATOM     19  C   UNL     1      11.014  13.781  18.006  0.00  0.00    +0.000 A 
ATOM     20  S   UNL     1      11.213  12.101  17.880  0.00  0.00    +0.000 S 
ENDBRANCH  13  16
ENDBRANCH  11  14
ENDBRANCH  10  11
ENDBRANCH   1  10
BRANCH   3  21
ATOM     21  S   UNL     1       4.757   4.061  19.577  0.00  0.00    +0.000 S 
BRANCH  21  22
ATOM     22  C   UNL     1       3.019   4.442  19.207  0.00  0.00    +0.000 C 
BRANCH  22  23
ATOM     23  C   UNL     1       2.531   5.892  19.169  0.00  0.00    +0.000 A 
ATOM     24  C   UNL     1       2.054   6.605  20.277  0.00  0.00    +0.000 A 
ATOM     25  C   UNL     1       1.678   7.964  20.169  0.00  0.00    +0.000 A 
ATOM     26  C   UNL     1       1.766   8.658  18.949  0.00  0.00    +0.000 A 
ATOM     27  C   UNL     1       2.221   7.936  17.838  0.00  0.00    +0.000 A 
ATOM     28  C   UNL     1       2.613   6.593  17.951  0.00  0.00    +0.000 A 
BRANCH  26  29
ATOM     29  C   UNL     1       1.340  10.104  18.745  0.00  0.00    +0.000 C 
ATOM     30  F   UNL     1       0.170  10.256  18.055  0.00  0.00    +0.000 F 
ATOM     31  F   UNL     1       1.156  10.783  19.908  0.00  0.00    +0.000 F 
ATOM     32  F   UNL     1       2.268  10.842  18.063  0.00  0.00    +0.000 F 
ENDBRANCH  26  29
ENDBRANCH  22  23
ENDBRANCH  21  22
ENDBRANCH   3  21
TORSDOF 8
ENDMDL
