MODEL 1
REMARK VINA RESULT:      -9.1      0.000      0.000
REMARK  Name = 
REMARK  5 active torsions:
REMARK  status: ('A' for Active; 'I' for Inactive)
REMARK    1  A    between atoms: C_1  and  C_2
REMARK    2  A    between atoms: C_2  and  C_3
REMARK    3  A    between atoms: C_10  and  C_11
REMARK    4  A    between atoms: C_16  and  C_17
REMARK    5  A    between atoms: C_17  and  O_19
REMARK                            x       y       z     vdW  Elec       q    Type
REMARK                         _______ _______ _______ _____ _____    ______ ____
ROOT
ATOM      1  C   UNL     1       2.272   7.246  19.420  0.00  0.00    +0.000 A 
ATOM      2  C   UNL     1       2.491   5.987  20.009  0.00  0.00    +0.000 A 
ATOM      3  C   UNL     1       3.219   5.005  19.354  0.00  0.00    +0.000 A 
ATOM      4  C   UNL     1       3.826   5.313  18.144  0.00  0.00    +0.000 A 
ATOM      5  C   UNL     1       4.677   4.382  17.585  0.00  0.00    +0.000 A 
ATOM      6  C   UNL     1       5.829   4.915  17.029  0.00  0.00    +0.000 A 
ATOM      7  C   UNL     1       5.737   6.137  16.355  0.00  0.00    +0.000 A 
ATOM      8  C   UNL     1       4.603   6.935  16.531  0.00  0.00    +0.000 A 
ATOM      9  C   UNL     1       3.716   6.594  17.569  0.00  0.00    +0.000 A 
ATOM     10  C   UNL     1       2.845   7.520  18.164  0.00  0.00    +0.000 A 
ENDROOT
BRANCH   1  20
ATOM     11  C   UNL     1       0.742  12.463  18.890  0.00  0.00    +0.000 C 
ATOM     12  C   UNL     1      -0.347  11.539  19.475  0.00  0.00    +0.000 C 
ATOM     13  C   UNL     1      -1.234  11.034  18.318  0.00  0.00    +0.000 C 
ATOM     14  C   UNL     1      -1.251  12.321  20.448  0.00  0.00    +0.000 C 
ATOM     15  C   UNL     1      -0.542  12.543  21.776  0.00  0.00    +0.000 C 
ATOM     16  O   UNL     1      -0.251  11.312  22.425  0.00  0.00    +0.000 OA
ATOM     17  C   UNL     1       0.326  10.364  21.630  0.00  0.00    +0.000 A 
ATOM     18  C   UNL     1       0.922   9.297  22.306  0.00  0.00    +0.000 A 
ATOM     19  C   UNL     1       1.557   8.268  21.604  0.00  0.00    +0.000 A 
ATOM     20  C   UNL     1       1.591   8.291  20.205  0.00  0.00    +0.000 A 
ATOM     21  C   UNL     1       0.963   9.357  19.547  0.00  0.00    +0.000 A 
ATOM     22  C   UNL     1       0.318  10.403  20.231  0.00  0.00    +0.000 A 
ENDBRANCH   1  20
BRANCH   6  23
ATOM     23  C   UNL     1       7.110   4.609  17.737  0.00  0.00    +0.000 C 
ATOM     24  O   UNL     1       8.110   4.210  17.167  0.00  0.00    +0.000 OA
BRANCH  23  25
ATOM     25  O   UNL     1       7.085   4.883  19.063  0.00  0.00    +0.000 OA
ATOM     26  H   UNL     1       6.453   4.363  19.592  0.00  0.00    +0.000 HD
ENDBRANCH  23  25
ENDBRANCH   6  23
TORSDOF 3
ENDMDL
MODEL 2
REMARK VINA RESULT:      -8.5      0.995      1.150
REMARK  Name = 
REMARK  5 active torsions:
REMARK  status: ('A' for Active; 'I' for Inactive)
REMARK    1  A    between atoms: C_1  and  C_2
REMARK    2  A    between atoms: C_2  and  C_3
REMARK    3  A    between atoms: C_10  and  C_11
REMARK    4  A    between atoms: C_16  and  C_17
REMARK    5  A    between atoms: C_17  and  O_19
REMARK                            x       y       z     vdW  Elec       q    Type
REMARK                         _______ _______ _______ _____ _____    ______ ____
ROOT
ATOM      1  C   UNL     1       1.475   7.564  19.972  0.00  0.00    +0.000 A 
ATOM      2  C   UNL     1       1.434   6.232  20.422  0.00  0.00    +0.000 A 
ATOM      3  C   UNL     1       2.065   5.217  19.719  0.00  0.00    +0.000 A 
ATOM      4  C   UNL     1       2.834   5.545  18.610  0.00  0.00    +0.000 A 
ATOM      5  C   UNL     1       3.584   4.549  18.019  0.00  0.00    +0.000 A 
ATOM      6  C   UNL     1       4.856   4.939  17.631  0.00  0.00    +0.000 A 
ATOM      7  C   UNL     1       5.025   6.223  17.103  0.00  0.00    +0.000 A 
ATOM      8  C   UNL     1       4.016   7.175  17.276  0.00  0.00    +0.000 A 
ATOM      9  C   UNL     1       2.984   6.879  18.186  0.00  0.00    +0.000 A 
ATOM     10  C   UNL     1       2.210   7.869  18.811  0.00  0.00    +0.000 A 
ENDROOT
BRANCH   1  20
ATOM     11  C   UNL     1       0.216  12.870  19.657  0.00  0.00    +0.000 C 
ATOM     12  C   UNL     1      -0.898  11.989  20.262  0.00  0.00    +0.000 C 
ATOM     13  C   UNL     1      -1.859  11.569  19.130  0.00  0.00    +0.000 C 
ATOM     14  C   UNL     1      -1.715  12.789  21.296  0.00  0.00    +0.000 C 
ATOM     15  C   UNL     1      -0.940  12.931  22.597  0.00  0.00    +0.000 C 
ATOM     16  O   UNL     1      -0.691  11.667  23.198  0.00  0.00    +0.000 OA
ATOM     17  C   UNL     1      -0.201  10.713  22.352  0.00  0.00    +0.000 A 
ATOM     18  C   UNL     1       0.362   9.595  22.970  0.00  0.00    +0.000 A 
ATOM     19  C   UNL     1       0.909   8.555  22.213  0.00  0.00    +0.000 A 
ATOM     20  C   UNL     1       0.886   8.620  20.814  0.00  0.00    +0.000 A 
ATOM     21  C   UNL     1       0.291   9.738  20.215  0.00  0.00    +0.000 A 
ATOM     22  C   UNL     1      -0.265  10.796  20.956  0.00  0.00    +0.000 A 
ENDBRANCH   1  20
BRANCH   6  23
ATOM     23  C   UNL     1       5.994   4.353  18.405  0.00  0.00    +0.000 C 
ATOM     24  O   UNL     1       7.130   4.790  18.355  0.00  0.00    +0.000 OA
BRANCH  23  25
ATOM     25  O   UNL     1       5.638   3.335  19.223  0.00  0.00    +0.000 OA
ATOM     26  H   UNL     1       5.789   3.483  20.174  0.00  0.00    +0.000 HD
ENDBRANCH  23  25
ENDBRANCH   6  23
TORSDOF 3
ENDMDL
MODEL 3
REMARK VINA RESULT:      -8.4      2.377      3.278
REMARK  Name = 
REMARK  5 active torsions:
REMARK  status: ('A' for Active; 'I' for Inactive)
REMARK    1  A    between atoms: C_1  and  C_2
REMARK    2  A    between atoms: C_2  and  C_3
REMARK    3  A    between atoms: C_10  and  C_11
REMARK    4  A    between atoms: C_16  and  C_17
REMARK    5  A    between atoms: C_17  and  O_19
REMARK                            x       y       z     vdW  Elec       q    Type
REMARK                         _______ _______ _______ _____ _____    ______ ____
ROOT
ATOM      1  C   UNL     1       1.270   8.423  20.390  0.00  0.00    +0.000 A 
ATOM      2  C   UNL     1       1.705   8.551  19.058  0.00  0.00    +0.000 A 
ATOM      3  C   UNL     1       2.454   7.557  18.448  0.00  0.00    +0.000 A 
ATOM      4  C   UNL     1       2.686   6.373  19.136  0.00  0.00    +0.000 A 
ATOM      5  C   UNL     1       3.291   5.333  18.460  0.00  0.00    +0.000 A 
ATOM      6  C   UNL     1       2.754   4.084  18.724  0.00  0.00    +0.000 A 
ATOM      7  C   UNL     1       2.339   3.801  20.030  0.00  0.00    +0.000 A 
ATOM      8  C   UNL     1       2.169   4.850  20.938  0.00  0.00    +0.000 A 
ATOM      9  C   UNL     1       2.181   6.164  20.434  0.00  0.00    +0.000 A 
ATOM     10  C   UNL     1       1.567   7.240  21.093  0.00  0.00    +0.000 A 
ENDROOT
BRANCH   1  20
ATOM     11  C   UNL     1      -0.661  13.361  19.078  0.00  0.00    +0.000 C 
ATOM     12  C   UNL     1      -1.730  12.383  19.608  0.00  0.00    +0.000 C 
ATOM     13  C   UNL     1      -2.383  11.673  18.403  0.00  0.00    +0.000 C 
ATOM     14  C   UNL     1      -2.839  13.149  20.355  0.00  0.00    +0.000 C 
ATOM     15  C   UNL     1      -2.359  13.575  21.734  0.00  0.00    +0.000 C 
ATOM     16  O   UNL     1      -2.050  12.453  22.550  0.00  0.00    +0.000 OA
ATOM     17  C   UNL     1      -1.273  11.502  21.952  0.00  0.00    +0.000 A 
ATOM     18  C   UNL     1      -0.684  10.578  22.817  0.00  0.00    +0.000 A 
ATOM     19  C   UNL     1       0.144   9.563  22.327  0.00  0.00    +0.000 A 
ATOM     20  C   UNL     1       0.383   9.455  20.952  0.00  0.00    +0.000 A 
ATOM     21  C   UNL     1      -0.241  10.377  20.101  0.00  0.00    +0.000 A 
ATOM     22  C   UNL     1      -1.078  11.405  20.569  0.00  0.00    +0.000 A 
ENDBRANCH   1  20
BRANCH   6  23
ATOM     23  C   UNL     1       2.005   3.434  17.604  0.00  0.00    +0.000 C 
ATOM     24  O   UNL     1       2.292   2.338  17.156  0.00  0.00    +0.000 OA
BRANCH  23  25
ATOM     25  O   UNL     1       0.932   4.140  17.175  0.00  0.00    +0.000 OA
ATOM     26  H   UNL     1       0.974   5.103  17.319  0.00  0.00    +0.000 HD
ENDBRANCH  23  25
ENDBRANCH   6  23
TORSDOF 3
ENDMDL
MODEL 4
REMARK VINA RESULT:      -8.2      2.147      7.972
REMARK  Name = 
REMARK  5 active torsions:
REMARK  status: ('A' for Active; 'I' for Inactive)
REMARK    1  A    between atoms: C_1  and  C_2
REMARK    2  A    between atoms: C_2  and  C_3
REMARK    3  A    between atoms: C_10  and  C_11
REMARK    4  A    between atoms: C_16  and  C_17
REMARK    5  A    between atoms: C_17  and  O_19
REMARK                            x       y       z     vdW  Elec       q    Type
REMARK                         _______ _______ _______ _____ _____    ______ ____
ROOT
ATOM      1  C   UNL     1       2.114   7.896  18.989  0.00  0.00    +0.000 A 
ATOM      2  C   UNL     1       2.319   8.762  17.899  0.00  0.00    +0.000 A 
ATOM      3  C   UNL     1       1.717  10.010  17.850  0.00  0.00    +0.000 A 
ATOM      4  C   UNL     1       0.985  10.446  18.947  0.00  0.00    +0.000 A 
ATOM      5  C   UNL     1       0.529  11.748  18.950  0.00  0.00    +0.000 A 
ATOM      6  C   UNL     1       0.642  12.395  20.170  0.00  0.00    +0.000 A 
ATOM      7  C   UNL     1       0.399  11.662  21.337  0.00  0.00    +0.000 A 
ATOM      8  C   UNL     1       0.374  10.265  21.277  0.00  0.00    +0.000 A 
ATOM      9  C   UNL     1       0.840   9.650  20.100  0.00  0.00    +0.000 A 
ATOM     10  C   UNL     1       1.318   8.331  20.065  0.00  0.00    +0.000 A 
ENDROOT
BRANCH   1  20
ATOM     11  C   UNL     1       1.902   3.085  21.566  0.00  0.00    +0.000 C 
ATOM     12  C   UNL     1       2.153   2.979  20.047  0.00  0.00    +0.000 C 
ATOM     13  C   UNL     1       0.795   2.797  19.338  0.00  0.00    +0.000 C 
ATOM     14  C   UNL     1       3.016   1.742  19.728  0.00  0.00    +0.000 C 
ATOM     15  C   UNL     1       4.473   1.999  20.082  0.00  0.00    +0.000 C 
ATOM     16  O   UNL     1       5.020   3.060  19.310  0.00  0.00    +0.000 OA
ATOM     17  C   UNL     1       4.248   4.185  19.247  0.00  0.00    +0.000 A 
ATOM     18  C   UNL     1       4.898   5.334  18.794  0.00  0.00    +0.000 A 
ATOM     19  C   UNL     1       4.219   6.553  18.697  0.00  0.00    +0.000 A 
ATOM     20  C   UNL     1       2.866   6.630  19.045  0.00  0.00    +0.000 A 
ATOM     21  C   UNL     1       2.226   5.459  19.472  0.00  0.00    +0.000 A 
ATOM     22  C   UNL     1       2.887   4.223  19.577  0.00  0.00    +0.000 A 
ENDBRANCH   1  20
BRANCH   6  23
ATOM     23  C   UNL     1       1.648  13.499  20.244  0.00  0.00    +0.000 C 
ATOM     24  O   UNL     1       1.633  14.467  19.504  0.00  0.00    +0.000 OA
BRANCH  23  25
ATOM     25  O   UNL     1       2.541  13.365  21.254  0.00  0.00    +0.000 OA
ATOM     26  H   UNL     1       3.306  13.967  21.226  0.00  0.00    +0.000 HD
ENDBRANCH  23  25
ENDBRANCH   6  23
TORSDOF 3
ENDMDL
MODEL 5
REMARK VINA RESULT:      -8.2      2.552      3.831
REMARK  Name = 
REMARK  5 active torsions:
REMARK  status: ('A' for Active; 'I' for Inactive)
REMARK    1  A    between atoms: C_1  and  C_2
REMARK    2  A    between atoms: C_2  and  C_3
REMARK    3  A    between atoms: C_10  and  C_11
REMARK    4  A    between atoms: C_16  and  C_17
REMARK    5  A    between atoms: C_17  and  O_19
REMARK                            x       y       z     vdW  Elec       q    Type
REMARK                         _______ _______ _______ _____ _____    ______ ____
ROOT
ATOM      1  C   UNL     1       1.853   8.674  18.923  0.00  0.00    +0.000 A 
ATOM      2  C   UNL     1       2.611   8.285  17.803  0.00  0.00    +0.000 A 
ATOM      3  C   UNL     1       3.246   7.054  17.758  0.00  0.00    +0.000 A 
ATOM      4  C   UNL     1       3.040   6.153  18.796  0.00  0.00    +0.000 A 
ATOM      5  C   UNL     1       3.545   4.876  18.660  0.00  0.00    +0.000 A 
ATOM      6  C   UNL     1       2.698   3.873  19.103  0.00  0.00    +0.000 A 
ATOM      7  C   UNL     1       1.932   4.106  20.250  0.00  0.00    +0.000 A 
ATOM      8  C   UNL     1       1.786   5.414  20.723  0.00  0.00    +0.000 A 
ATOM      9  C   UNL     1       2.206   6.465  19.887  0.00  0.00    +0.000 A 
ATOM     10  C   UNL     1       1.705   7.772  19.993  0.00  0.00    +0.000 A 
ENDROOT
BRANCH   1  20
ATOM     11  C   UNL     1       2.352  13.823  20.677  0.00  0.00    +0.000 C 
ATOM     12  C   UNL     1       1.917  13.696  19.201  0.00  0.00    +0.000 C 
ATOM     13  C   UNL     1       3.178  13.747  18.314  0.00  0.00    +0.000 C 
ATOM     14  C   UNL     1       1.016  14.880  18.801  0.00  0.00    +0.000 C 
ATOM     15  C   UNL     1      -0.386  14.701  19.364  0.00  0.00    +0.000 C 
ATOM     16  O   UNL     1      -1.017  13.541  18.838  0.00  0.00    +0.000 OA
ATOM     17  C   UNL     1      -0.253  12.409  18.858  0.00  0.00    +0.000 A 
ATOM     18  C   UNL     1      -0.948  11.213  18.670  0.00  0.00    +0.000 A 
ATOM     19  C   UNL     1      -0.279   9.985  18.683  0.00  0.00    +0.000 A 
ATOM     20  C   UNL     1       1.107   9.944  18.872  0.00  0.00    +0.000 A 
ATOM     21  C   UNL     1       1.788  11.158  19.031  0.00  0.00    +0.000 A 
ATOM     22  C   UNL     1       1.138  12.405  19.022  0.00  0.00    +0.000 A 
ENDBRANCH   1  20
BRANCH   6  23
ATOM     23  C   UNL     1       2.114   2.986  18.050  0.00  0.00    +0.000 C 
ATOM     24  O   UNL     1       2.201   3.219  16.857  0.00  0.00    +0.000 OA
BRANCH  23  25
ATOM     25  O   UNL     1       1.538   1.860  18.534  0.00  0.00    +0.000 OA
ATOM     26  H   UNL     1       0.625   1.691  18.240  0.00  0.00    +0.000 HD
ENDBRANCH  23  25
ENDBRANCH   6  23
TORSDOF 3
ENDMDL
MODEL 6
REMARK VINA RESULT:      -8.1      1.120      2.320
REMARK  Name = 
REMARK  5 active torsions:
REMARK  status: ('A' for Active; 'I' for Inactive)
REMARK    1  A    between atoms: C_1  and  C_2
REMARK    2  A    between atoms: C_2  and  C_3
REMARK    3  A    between atoms: C_10  and  C_11
REMARK    4  A    between atoms: C_16  and  C_17
REMARK    5  A    between atoms: C_17  and  O_19
REMARK                            x       y       z     vdW  Elec       q    Type
REMARK                         _______ _______ _______ _____ _____    ______ ____
ROOT
ATOM      1  C   UNL     1       2.649   7.316  18.422  0.00  0.00    +0.000 A 
ATOM      2  C   UNL     1       2.841   6.261  19.332  0.00  0.00    +0.000 A 
ATOM      3  C   UNL     1       3.685   5.201  19.034  0.00  0.00    +0.000 A 
ATOM      4  C   UNL     1       4.428   5.243  17.861  0.00  0.00    +0.000 A 
ATOM      5  C   UNL     1       5.380   4.265  17.658  0.00  0.00    +0.000 A 
ATOM      6  C   UNL     1       6.571   4.724  17.118  0.00  0.00    +0.000 A 
ATOM      7  C   UNL     1       6.518   5.733  16.150  0.00  0.00    +0.000 A 
ATOM      8  C   UNL     1       5.339   6.467  15.989  0.00  0.00    +0.000 A 
ATOM      9  C   UNL     1       4.341   6.331  16.972  0.00  0.00    +0.000 A 
ATOM     10  C   UNL     1       3.365   7.311  17.210  0.00  0.00    +0.000 A 
ENDROOT
BRANCH   1  20
ATOM     11  C   UNL     1      -0.872   8.681  22.368  0.00  0.00    +0.000 C 
ATOM     12  C   UNL     1       0.204   9.749  22.082  0.00  0.00    +0.000 C 
ATOM     13  C   UNL     1       1.387   9.523  23.048  0.00  0.00    +0.000 C 
ATOM     14  C   UNL     1      -0.353  11.161  22.350  0.00  0.00    +0.000 C 
ATOM     15  C   UNL     1      -1.272  11.597  21.219  0.00  0.00    +0.000 C 
ATOM     16  O   UNL     1      -0.575  11.686  19.983  0.00  0.00    +0.000 OA
ATOM     17  C   UNL     1       0.212  10.610  19.687  0.00  0.00    +0.000 A 
ATOM     18  C   UNL     1       0.628  10.520  18.357  0.00  0.00    +0.000 A 
ATOM     19  C   UNL     1       1.427   9.457  17.925  0.00  0.00    +0.000 A 
ATOM     20  C   UNL     1       1.832   8.471  18.833  0.00  0.00    +0.000 A 
ATOM     21  C   UNL     1       1.425   8.596  20.168  0.00  0.00    +0.000 A 
ATOM     22  C   UNL     1       0.622   9.656  20.626  0.00  0.00    +0.000 A 
ENDBRANCH   1  20
BRANCH   6  23
ATOM     23  C   UNL     1       7.763   4.695  18.021  0.00  0.00    +0.000 C 
ATOM     24  O   UNL     1       8.702   3.935  17.863  0.00  0.00    +0.000 OA
BRANCH  23  25
ATOM     25  O   UNL     1       7.742   5.637  18.993  0.00  0.00    +0.000 OA
ATOM     26  H   UNL     1       8.379   5.513  19.719  0.00  0.00    +0.000 HD
ENDBRANCH  23  25
ENDBRANCH   6  23
TORSDOF 3
ENDMDL
MODEL 7
REMARK VINA RESULT:      -8.0      2.264      4.044
REMARK  Name = 
REMARK  5 active torsions:
REMARK  status: ('A' for Active; 'I' for Inactive)
REMARK    1  A    between atoms: C_1  and  C_2
REMARK    2  A    between atoms: C_2  and  C_3
REMARK    3  A    between atoms: C_10  and  C_11
REMARK    4  A    between atoms: C_16  and  C_17
REMARK    5  A    between atoms: C_17  and  O_19
REMARK                            x       y       z     vdW  Elec       q    Type
REMARK                         _______ _______ _______ _____ _____    ______ ____
ROOT
ATOM      1  C   UNL     1       0.667   9.488  19.148  0.00  0.00    +0.000 A 
ATOM      2  C   UNL     1       1.320   9.427  17.903  0.00  0.00    +0.000 A 
ATOM      3  C   UNL     1       2.310   8.489  17.656  0.00  0.00    +0.000 A 
ATOM      4  C   UNL     1       2.582   7.529  18.623  0.00  0.00    +0.000 A 
ATOM      5  C   UNL     1       3.452   6.508  18.301  0.00  0.00    +0.000 A 
ATOM      6  C   UNL     1       3.067   5.258  18.759  0.00  0.00    +0.000 A 
ATOM      7  C   UNL     1       2.461   5.168  20.017  0.00  0.00    +0.000 A 
ATOM      8  C   UNL     1       1.970   6.327  20.626  0.00  0.00    +0.000 A 
ATOM      9  C   UNL     1       1.879   7.492  19.843  0.00  0.00    +0.000 A 
ATOM     10  C   UNL     1       0.999   8.545  20.139  0.00  0.00    +0.000 A 
ENDROOT
BRANCH   1  20
ATOM     11  C   UNL     1      -2.096  11.918  23.185  0.00  0.00    +0.000 C 
ATOM     12  C   UNL     1      -1.689  12.865  22.036  0.00  0.00    +0.000 C 
ATOM     13  C   UNL     1      -0.341  13.522  22.399  0.00  0.00    +0.000 C 
ATOM     14  C   UNL     1      -2.728  13.991  21.873  0.00  0.00    +0.000 C 
ATOM     15  C   UNL     1      -3.976  13.470  21.175  0.00  0.00    +0.000 C 
ATOM     16  O   UNL     1      -3.689  13.016  19.859  0.00  0.00    +0.000 OA
ATOM     17  C   UNL     1      -2.602  12.195  19.757  0.00  0.00    +0.000 A 
ATOM     18  C   UNL     1      -2.504  11.478  18.563  0.00  0.00    +0.000 A 
ATOM     19  C   UNL     1      -1.443  10.594  18.343  0.00  0.00    +0.000 A 
ATOM     20  C   UNL     1      -0.454  10.428  19.320  0.00  0.00    +0.000 A 
ATOM     21  C   UNL     1      -0.559  11.179  20.498  0.00  0.00    +0.000 A 
ATOM     22  C   UNL     1      -1.616  12.073  20.743  0.00  0.00    +0.000 A 
ENDBRANCH   1  20
BRANCH   6  23
ATOM     23  C   UNL     1       2.647   4.271  17.717  0.00  0.00    +0.000 C 
ATOM     24  O   UNL     1       1.483   4.073  17.415  0.00  0.00    +0.000 OA
BRANCH  23  25
ATOM     25  O   UNL     1       3.679   3.663  17.086  0.00  0.00    +0.000 OA
ATOM     26  H   UNL     1       4.146   2.979  17.598  0.00  0.00    +0.000 HD
ENDBRANCH  23  25
ENDBRANCH   6  23
TORSDOF 3
ENDMDL
MODEL 8
REMARK VINA RESULT:      -8.0      1.918      2.572
REMARK  Name = 
REMARK  5 active torsions:
REMARK  status: ('A' for Active; 'I' for Inactive)
REMARK    1  A    between atoms: C_1  and  C_2
REMARK    2  A    between atoms: C_2  and  C_3
REMARK    3  A    between atoms: C_10  and  C_11
REMARK    4  A    between atoms: C_16  and  C_17
REMARK    5  A    between atoms: C_17  and  O_19
REMARK                            x       y       z     vdW  Elec       q    Type
REMARK                         _______ _______ _______ _____ _____    ______ ____
ROOT
ATOM      1  C   UNL     1       2.168   8.210  18.360  0.00  0.00    +0.000 A 
ATOM      2  C   UNL     1       2.253   7.396  19.505  0.00  0.00    +0.000 A 
ATOM      3  C   UNL     1       3.143   6.335  19.568  0.00  0.00    +0.000 A 
ATOM      4  C   UNL     1       4.035   6.144  18.520  0.00  0.00    +0.000 A 
ATOM      5  C   UNL     1       5.019   5.188  18.668  0.00  0.00    +0.000 A 
ATOM      6  C   UNL     1       6.265   5.566  18.192  0.00  0.00    +0.000 A 
ATOM      7  C   UNL     1       6.326   6.327  17.020  0.00  0.00    +0.000 A 
ATOM      8  C   UNL     1       5.169   6.953  16.547  0.00  0.00    +0.000 A 
ATOM      9  C   UNL     1       4.052   6.999  17.401  0.00  0.00    +0.000 A 
ATOM     10  C   UNL     1       3.039   7.963  17.283  0.00  0.00    +0.000 A 
ENDROOT
BRANCH   1  20
ATOM     11  C   UNL     1       2.004  13.178  20.625  0.00  0.00    +0.000 C 
ATOM     12  C   UNL     1       1.655  13.155  19.121  0.00  0.00    +0.000 C 
ATOM     13  C   UNL     1       2.942  13.431  18.316  0.00  0.00    +0.000 C 
ATOM     14  C   UNL     1       0.646  14.270  18.785  0.00  0.00    +0.000 C 
ATOM     15  C   UNL     1      -0.751  13.886  19.248  0.00  0.00    +0.000 C 
ATOM     16  O   UNL     1      -1.223  12.724  18.578  0.00  0.00    +0.000 OA
ATOM     17  C   UNL     1      -0.338  11.685  18.533  0.00  0.00    +0.000 A 
ATOM     18  C   UNL     1      -0.885  10.446  18.192  0.00  0.00    +0.000 A 
ATOM     19  C   UNL     1      -0.085   9.302  18.125  0.00  0.00    +0.000 A 
ATOM     20  C   UNL     1       1.287   9.390  18.389  0.00  0.00    +0.000 A 
ATOM     21  C   UNL     1       1.819  10.648  18.702  0.00  0.00    +0.000 A 
ATOM     22  C   UNL     1       1.035  11.813  18.776  0.00  0.00    +0.000 A 
ENDBRANCH   1  20
BRANCH   6  23
ATOM     23  C   UNL     1       7.326   5.793  19.221  0.00  0.00    +0.000 C 
ATOM     24  O   UNL     1       7.411   5.143  20.248  0.00  0.00    +0.000 OA
BRANCH  23  25
ATOM     25  O   UNL     1       8.231   6.741  18.880  0.00  0.00    +0.000 OA
ATOM     26  H   UNL     1       8.869   6.489  18.188  0.00  0.00    +0.000 HD
ENDBRANCH  23  25
ENDBRANCH   6  23
TORSDOF 3
ENDMDL
MODEL 9
REMARK VINA RESULT:      -7.9      2.209      8.638
REMARK  Name = 
REMARK  5 active torsions:
REMARK  status: ('A' for Active; 'I' for Inactive)
REMARK    1  A    between atoms: C_1  and  C_2
REMARK    2  A    between atoms: C_2  and  C_3
REMARK    3  A    between atoms: C_10  and  C_11
REMARK    4  A    between atoms: C_16  and  C_17
REMARK    5  A    between atoms: C_17  and  O_19
REMARK                            x       y       z     vdW  Elec       q    Type
REMARK                         _______ _______ _______ _____ _____    ______ ____
ROOT
ATOM      1  C   UNL     1       1.026   8.853  20.816  0.00  0.00    +0.000 A 
ATOM      2  C   UNL     1       0.157   8.388  21.820  0.00  0.00    +0.000 A 
ATOM      3  C   UNL     1      -0.537   9.270  22.635  0.00  0.00    +0.000 A 
ATOM      4  C   UNL     1      -0.446  10.632  22.380  0.00  0.00    +0.000 A 
ATOM      5  C   UNL     1      -1.266  11.484  23.092  0.00  0.00    +0.000 A 
ATOM      6  C   UNL     1      -1.820  12.510  22.343  0.00  0.00    +0.000 A 
ATOM      7  C   UNL     1      -1.037  13.107  21.350  0.00  0.00    +0.000 A 
ATOM      8  C   UNL     1       0.129  12.467  20.918  0.00  0.00    +0.000 A 
ATOM      9  C   UNL     1       0.333  11.134  21.320  0.00  0.00    +0.000 A 
ATOM     10  C   UNL     1       1.152  10.240  20.613  0.00  0.00    +0.000 A 
ENDROOT
BRANCH   1  20
ATOM     11  C   UNL     1       3.102   3.803  20.979  0.00  0.00    +0.000 C 
ATOM     12  C   UNL     1       2.150   4.059  19.791  0.00  0.00    +0.000 C 
ATOM     13  C   UNL     1       0.729   3.619  20.201  0.00  0.00    +0.000 C 
ATOM     14  C   UNL     1       2.568   3.212  18.573  0.00  0.00    +0.000 C 
ATOM     15  C   UNL     1       3.787   3.817  17.893  0.00  0.00    +0.000 C 
ATOM     16  O   UNL     1       3.512   5.115  17.384  0.00  0.00    +0.000 OA
ATOM     17  C   UNL     1       2.878   5.954  18.256  0.00  0.00    +0.000 A 
ATOM     18  C   UNL     1       2.903   7.307  17.911  0.00  0.00    +0.000 A 
ATOM     19  C   UNL     1       2.301   8.268  18.729  0.00  0.00    +0.000 A 
ATOM     20  C   UNL     1       1.650   7.877  19.906  0.00  0.00    +0.000 A 
ATOM     21  C   UNL     1       1.614   6.512  20.218  0.00  0.00    +0.000 A 
ATOM     22  C   UNL     1       2.212   5.528  19.411  0.00  0.00    +0.000 A 
ENDBRANCH   1  20
BRANCH   6  23
ATOM     23  C   UNL     1      -3.296  12.436  22.110  0.00  0.00    +0.000 C 
ATOM     24  O   UNL     1      -4.104  12.245  23.001  0.00  0.00    +0.000 OA
BRANCH  23  25
ATOM     25  O   UNL     1      -3.663  12.671  20.828  0.00  0.00    +0.000 OA
ATOM     26  H   UNL     1      -3.069  13.248  20.315  0.00  0.00    +0.000 HD
ENDBRANCH  23  25
ENDBRANCH   6  23
TORSDOF 3
ENDMDL
