MODEL 1
REMARK VINA RESULT:      -6.6      0.000      0.000
REMARK  Name = 
REMARK  5 active torsions:
REMARK  status: ('A' for Active; 'I' for Inactive)
REMARK    1  A    between atoms: C_1  and  O_2
REMARK    2  A    between atoms: O_2  and  C_3
REMARK    3  A    between atoms: C_3  and  C_5
REMARK    4  A    between atoms: C_8  and  C_9
REMARK    5  A    between atoms: N_11  and  C_12
REMARK                            x       y       z     vdW  Elec       q    Type
REMARK                         _______ _______ _______ _____ _____    ______ ____
ROOT
ATOM      1  C   UNL     1       6.227   4.143  14.235  0.00  0.00    +0.000 A 
ATOM      2  C   UNL     1       7.250   4.908  14.770  0.00  0.00    +0.000 A 
ATOM      3  C   UNL     1       6.999   5.073  16.159  0.00  0.00    +0.000 A 
ATOM      4  C   UNL     1       5.832   4.394  16.461  0.00  0.00    +0.000 A 
ATOM      5  N   UNL     1       5.367   3.872  15.271  0.00  0.00    +0.000 N 
ATOM      6  H   UNL     1       4.515   3.329  15.188  0.00  0.00    +0.000 HD
ENDROOT
BRANCH   4   7
ATOM      7  C   UNL     1       5.098   4.154  17.686  0.00  0.00    +0.000 C 
ATOM      8  O   UNL     1       5.709   4.060  18.748  0.00  0.00    +0.000 OA
ATOM      9  N   UNL     1       3.729   4.021  17.550  0.00  0.00    +0.000 N 
ATOM     10  H   UNL     1       3.363   3.970  16.611  0.00  0.00    +0.000 HD
BRANCH   9  11
ATOM     11  C   UNL     1       2.818   3.792  18.608  0.00  0.00    +0.000 A 
ATOM     12  C   UNL     1       2.196   4.807  19.331  0.00  0.00    +0.000 A 
ATOM     13  C   UNL     1       1.352   4.495  20.396  0.00  0.00    +0.000 A 
ATOM     14  C   UNL     1       1.145   3.162  20.701  0.00  0.00    +0.000 A 
ATOM     15  N   UNL     1       1.694   2.144  20.005  0.00  0.00    +0.000 NA
ATOM     16  C   UNL     1       2.509   2.483  18.975  0.00  0.00    +0.000 A 
ENDBRANCH   9  11
ENDBRANCH   4   7
BRANCH   1  17
ATOM     17  C   UNL     1       5.991   3.654  12.899  0.00  0.00    +0.000 C 
ATOM     18  O   UNL     1       6.873   3.293  12.129  0.00  0.00    +0.000 OA
BRANCH  17  20
ATOM     19  C   UNL     1       4.320   3.111  11.351  0.00  0.00    +0.000 C 
ATOM     20  O   UNL     1       4.661   3.672  12.618  0.00  0.00    +0.000 OA
ENDBRANCH  17  20
ENDBRANCH   1  17
TORSDOF 4
ENDMDL
MODEL 2
REMARK VINA RESULT:      -6.4      1.284      1.348
REMARK  Name = 
REMARK  5 active torsions:
REMARK  status: ('A' for Active; 'I' for Inactive)
REMARK    1  A    between atoms: C_1  and  O_2
REMARK    2  A    between atoms: O_2  and  C_3
REMARK    3  A    between atoms: C_3  and  C_5
REMARK    4  A    between atoms: C_8  and  C_9
REMARK    5  A    between atoms: N_11  and  C_12
REMARK                            x       y       z     vdW  Elec       q    Type
REMARK                         _______ _______ _______ _____ _____    ______ ____
ROOT
ATOM      1  C   UNL     1       6.418   4.306  13.999  0.00  0.00    +0.000 A 
ATOM      2  C   UNL     1       7.408   4.796  14.834  0.00  0.00    +0.000 A 
ATOM      3  C   UNL     1       6.842   4.994  16.122  0.00  0.00    +0.000 A 
ATOM      4  C   UNL     1       5.513   4.609  16.064  0.00  0.00    +0.000 A 
ATOM      5  N   UNL     1       5.276   4.233  14.758  0.00  0.00    +0.000 N 
ATOM      6  H   UNL     1       4.376   3.909  14.419  0.00  0.00    +0.000 HD
ENDROOT
BRANCH   4   7
ATOM      7  C   UNL     1       4.447   4.533  17.040  0.00  0.00    +0.000 C 
ATOM      8  O   UNL     1       3.774   5.532  17.279  0.00  0.00    +0.000 OA
ATOM      9  N   UNL     1       4.287   3.308  17.660  0.00  0.00    +0.000 N 
ATOM     10  H   UNL     1       4.994   2.609  17.487  0.00  0.00    +0.000 HD
BRANCH   9  11
ATOM     11  C   UNL     1       3.308   3.004  18.636  0.00  0.00    +0.000 A 
ATOM     12  C   UNL     1       1.968   2.762  18.342  0.00  0.00    +0.000 A 
ATOM     13  C   UNL     1       1.057   2.524  19.370  0.00  0.00    +0.000 A 
ATOM     14  C   UNL     1       1.521   2.521  20.672  0.00  0.00    +0.000 A 
ATOM     15  N   UNL     1       2.816   2.711  21.002  0.00  0.00    +0.000 NA
ATOM     16  C   UNL     1       3.675   2.940  19.979  0.00  0.00    +0.000 A 
ENDBRANCH   9  11
ENDBRANCH   4   7
BRANCH   1  17
ATOM     17  C   UNL     1       6.441   3.909  12.613  0.00  0.00    +0.000 C 
ATOM     18  O   UNL     1       7.324   4.214  11.820  0.00  0.00    +0.000 OA
BRANCH  17  20
ATOM     19  C   UNL     1       5.601   2.028  11.500  0.00  0.00    +0.000 C 
ATOM     20  O   UNL     1       5.339   3.169  12.316  0.00  0.00    +0.000 OA
ENDBRANCH  17  20
ENDBRANCH   1  17
TORSDOF 4
ENDMDL
MODEL 3
REMARK VINA RESULT:      -6.4      1.488      1.693
REMARK  Name = 
REMARK  5 active torsions:
REMARK  status: ('A' for Active; 'I' for Inactive)
REMARK    1  A    between atoms: C_1  and  O_2
REMARK    2  A    between atoms: O_2  and  C_3
REMARK    3  A    between atoms: C_3  and  C_5
REMARK    4  A    between atoms: C_8  and  C_9
REMARK    5  A    between atoms: N_11  and  C_12
REMARK                            x       y       z     vdW  Elec       q    Type
REMARK                         _______ _______ _______ _____ _____    ______ ____
ROOT
ATOM      1  C   UNL     1       6.704   4.661  15.224  0.00  0.00    +0.000 A 
ATOM      2  C   UNL     1       7.443   5.078  16.319  0.00  0.00    +0.000 A 
ATOM      3  C   UNL     1       6.722   4.737  17.495  0.00  0.00    +0.000 A 
ATOM      4  C   UNL     1       5.555   4.101  17.106  0.00  0.00    +0.000 A 
ATOM      5  N   UNL     1       5.555   4.103  15.726  0.00  0.00    +0.000 N 
ATOM      6  H   UNL     1       4.810   3.707  15.163  0.00  0.00    +0.000 HD
ENDROOT
BRANCH   4   7
ATOM      7  C   UNL     1       4.457   3.490  17.825  0.00  0.00    +0.000 C 
ATOM      8  O   UNL     1       3.861   2.540  17.324  0.00  0.00    +0.000 OA
ATOM      9  N   UNL     1       4.145   4.063  19.044  0.00  0.00    +0.000 N 
ATOM     10  H   UNL     1       4.609   4.928  19.277  0.00  0.00    +0.000 HD
BRANCH   9  11
ATOM     11  C   UNL     1       3.120   3.627  19.917  0.00  0.00    +0.000 A 
ATOM     12  C   UNL     1       1.778   3.970  19.770  0.00  0.00    +0.000 A 
ATOM     13  C   UNL     1       0.838   3.542  20.707  0.00  0.00    +0.000 A 
ATOM     14  C   UNL     1       1.273   2.766  21.766  0.00  0.00    +0.000 A 
ATOM     15  N   UNL     1       2.556   2.377  21.928  0.00  0.00    +0.000 NA
ATOM     16  C   UNL     1       3.443   2.811  20.999  0.00  0.00    +0.000 A 
ENDBRANCH   9  11
ENDBRANCH   4   7
BRANCH   1  17
ATOM     17  C   UNL     1       6.966   4.726  13.807  0.00  0.00    +0.000 C 
ATOM     18  O   UNL     1       7.771   5.490  13.288  0.00  0.00    +0.000 OA
BRANCH  17  20
ATOM     19  C   UNL     1       6.741   3.365  11.916  0.00  0.00    +0.000 C 
ATOM     20  O   UNL     1       6.182   3.838  13.141  0.00  0.00    +0.000 OA
ENDBRANCH  17  20
ENDBRANCH   1  17
TORSDOF 4
ENDMDL
MODEL 4
REMARK VINA RESULT:      -6.4      2.706      6.944
REMARK  Name = 
REMARK  5 active torsions:
REMARK  status: ('A' for Active; 'I' for Inactive)
REMARK    1  A    between atoms: C_1  and  O_2
REMARK    2  A    between atoms: O_2  and  C_3
REMARK    3  A    between atoms: C_3  and  C_5
REMARK    4  A    between atoms: C_8  and  C_9
REMARK    5  A    between atoms: N_11  and  C_12
REMARK                            x       y       z     vdW  Elec       q    Type
REMARK                         _______ _______ _______ _____ _____    ______ ____
ROOT
ATOM      1  C   UNL     1       2.346   4.372  20.367  0.00  0.00    +0.000 A 
ATOM      2  C   UNL     1       1.886   5.667  20.543  0.00  0.00    +0.000 A 
ATOM      3  C   UNL     1       2.460   6.481  19.530  0.00  0.00    +0.000 A 
ATOM      4  C   UNL     1       3.254   5.672  18.736  0.00  0.00    +0.000 A 
ATOM      5  N   UNL     1       3.195   4.409  19.288  0.00  0.00    +0.000 N 
ATOM      6  H   UNL     1       3.692   3.608  18.916  0.00  0.00    +0.000 HD
ENDROOT
BRANCH   4   7
ATOM      7  C   UNL     1       4.044   5.900  17.544  0.00  0.00    +0.000 C 
ATOM      8  O   UNL     1       4.107   7.031  17.067  0.00  0.00    +0.000 OA
ATOM      9  N   UNL     1       4.661   4.784  17.010  0.00  0.00    +0.000 N 
ATOM     10  H   UNL     1       4.414   3.889  17.405  0.00  0.00    +0.000 HD
BRANCH   9  11
ATOM     11  C   UNL     1       5.484   4.774  15.859  0.00  0.00    +0.000 A 
ATOM     12  C   UNL     1       5.177   4.080  14.691  0.00  0.00    +0.000 A 
ATOM     13  C   UNL     1       6.070   4.078  13.621  0.00  0.00    +0.000 A 
ATOM     14  C   UNL     1       7.250   4.787  13.749  0.00  0.00    +0.000 A 
ATOM     15  N   UNL     1       7.573   5.505  14.845  0.00  0.00    +0.000 NA
ATOM     16  C   UNL     1       6.682   5.486  15.867  0.00  0.00    +0.000 A 
ENDBRANCH   9  11
ENDBRANCH   4   7
BRANCH   1  17
ATOM     17  C   UNL     1       2.071   3.150  21.081  0.00  0.00    +0.000 C 
ATOM     18  O   UNL     1       2.145   3.029  22.298  0.00  0.00    +0.000 OA
BRANCH  17  20
ATOM     19  C   UNL     1       0.765   2.532  19.238  0.00  0.00    +0.000 C 
ATOM     20  O   UNL     1       1.741   2.159  20.211  0.00  0.00    +0.000 OA
ENDBRANCH  17  20
ENDBRANCH   1  17
TORSDOF 4
ENDMDL
MODEL 5
REMARK VINA RESULT:      -6.4      5.910      7.751
REMARK  Name = 
REMARK  5 active torsions:
REMARK  status: ('A' for Active; 'I' for Inactive)
REMARK    1  A    between atoms: C_1  and  O_2
REMARK    2  A    between atoms: O_2  and  C_3
REMARK    3  A    between atoms: C_3  and  C_5
REMARK    4  A    between atoms: C_8  and  C_9
REMARK    5  A    between atoms: N_11  and  C_12
REMARK                            x       y       z     vdW  Elec       q    Type
REMARK                         _______ _______ _______ _____ _____    ______ ____
ROOT
ATOM      1  C   UNL     1       7.363   5.641  16.823  0.00  0.00    +0.000 A 
ATOM      2  C   UNL     1       7.512   5.251  18.143  0.00  0.00    +0.000 A 
ATOM      3  C   UNL     1       7.877   6.395  18.904  0.00  0.00    +0.000 A 
ATOM      4  C   UNL     1       7.933   7.476  18.041  0.00  0.00    +0.000 A 
ATOM      5  N   UNL     1       7.654   6.982  16.783  0.00  0.00    +0.000 N 
ATOM      6  H   UNL     1       7.634   7.554  15.945  0.00  0.00    +0.000 HD
ENDROOT
BRANCH   4   7
ATOM      7  C   UNL     1       8.197   8.888  18.217  0.00  0.00    +0.000 C 
ATOM      8  O   UNL     1       7.562   9.709  17.559  0.00  0.00    +0.000 OA
ATOM      9  N   UNL     1       9.192   9.205  19.123  0.00  0.00    +0.000 N 
ATOM     10  H   UNL     1       9.740   8.441  19.490  0.00  0.00    +0.000 HD
BRANCH   9  11
ATOM     11  C   UNL     1       9.609  10.514  19.459  0.00  0.00    +0.000 A 
ATOM     12  C   UNL     1      10.334  11.342  18.603  0.00  0.00    +0.000 A 
ATOM     13  C   UNL     1      10.753  12.600  19.033  0.00  0.00    +0.000 A 
ATOM     14  C   UNL     1      10.422  13.001  20.314  0.00  0.00    +0.000 A 
ATOM     15  N   UNL     1       9.689  12.250  21.164  0.00  0.00    +0.000 NA
ATOM     16  C   UNL     1       9.297  11.033  20.714  0.00  0.00    +0.000 A 
ENDBRANCH   9  11
ENDBRANCH   4   7
BRANCH   1  17
ATOM     17  C   UNL     1       6.983   4.906  15.641  0.00  0.00    +0.000 C 
ATOM     18  O   UNL     1       7.354   5.182  14.507  0.00  0.00    +0.000 OA
BRANCH  17  20
ATOM     19  C   UNL     1       4.788   4.280  16.163  0.00  0.00    +0.000 C 
ATOM     20  O   UNL     1       6.146   3.886  15.969  0.00  0.00    +0.000 OA
ENDBRANCH  17  20
ENDBRANCH   1  17
TORSDOF 4
ENDMDL
MODEL 6
REMARK VINA RESULT:      -6.3      1.249      1.527
REMARK  Name = 
REMARK  5 active torsions:
REMARK  status: ('A' for Active; 'I' for Inactive)
REMARK    1  A    between atoms: C_1  and  O_2
REMARK    2  A    between atoms: O_2  and  C_3
REMARK    3  A    between atoms: C_3  and  C_5
REMARK    4  A    between atoms: C_8  and  C_9
REMARK    5  A    between atoms: N_11  and  C_12
REMARK                            x       y       z     vdW  Elec       q    Type
REMARK                         _______ _______ _______ _____ _____    ______ ____
ROOT
ATOM      1  C   UNL     1       6.046   3.994  13.572  0.00  0.00    +0.000 A 
ATOM      2  C   UNL     1       7.128   4.695  14.079  0.00  0.00    +0.000 A 
ATOM      3  C   UNL     1       6.818   5.083  15.411  0.00  0.00    +0.000 A 
ATOM      4  C   UNL     1       5.554   4.602  15.708  0.00  0.00    +0.000 A 
ATOM      5  N   UNL     1       5.097   3.980  14.564  0.00  0.00    +0.000 N 
ATOM      6  H   UNL     1       4.187   3.540  14.488  0.00  0.00    +0.000 HD
ENDROOT
BRANCH   4   7
ATOM      7  C   UNL     1       4.723   4.629  16.893  0.00  0.00    +0.000 C 
ATOM      8  O   UNL     1       4.616   5.673  17.533  0.00  0.00    +0.000 OA
ATOM      9  N   UNL     1       4.120   3.432  17.232  0.00  0.00    +0.000 N 
ATOM     10  H   UNL     1       4.403   2.613  16.714  0.00  0.00    +0.000 HD
BRANCH   9  11
ATOM     11  C   UNL     1       3.264   3.229  18.339  0.00  0.00    +0.000 A 
ATOM     12  C   UNL     1       1.884   3.417  18.299  0.00  0.00    +0.000 A 
ATOM     13  C   UNL     1       1.119   3.248  19.451  0.00  0.00    +0.000 A 
ATOM     14  C   UNL     1       1.762   2.881  20.619  0.00  0.00    +0.000 A 
ATOM     15  N   UNL     1       3.090   2.649  20.697  0.00  0.00    +0.000 NA
ATOM     16  C   UNL     1       3.804   2.823  19.558  0.00  0.00    +0.000 A 
ENDBRANCH   9  11
ENDBRANCH   4   7
BRANCH   1  17
ATOM     17  C   UNL     1       5.828   3.356  12.297  0.00  0.00    +0.000 C 
ATOM     18  O   UNL     1       4.735   3.255  11.753  0.00  0.00    +0.000 OA
BRANCH  17  20
ATOM     19  C   UNL     1       6.877   1.630  11.113  0.00  0.00    +0.000 C 
ATOM     20  O   UNL     1       6.999   2.872  11.805  0.00  0.00    +0.000 OA
ENDBRANCH  17  20
ENDBRANCH   1  17
TORSDOF 4
ENDMDL
MODEL 7
REMARK VINA RESULT:      -6.3      1.270      1.270
REMARK  Name = 
REMARK  5 active torsions:
REMARK  status: ('A' for Active; 'I' for Inactive)
REMARK    1  A    between atoms: C_1  and  O_2
REMARK    2  A    between atoms: O_2  and  C_3
REMARK    3  A    between atoms: C_3  and  C_5
REMARK    4  A    between atoms: C_8  and  C_9
REMARK    5  A    between atoms: N_11  and  C_12
REMARK                            x       y       z     vdW  Elec       q    Type
REMARK                         _______ _______ _______ _____ _____    ______ ____
ROOT
ATOM      1  C   UNL     1       6.287   4.151  14.011  0.00  0.00    +0.000 A 
ATOM      2  C   UNL     1       7.141   4.839  14.857  0.00  0.00    +0.000 A 
ATOM      3  C   UNL     1       6.531   4.910  16.139  0.00  0.00    +0.000 A 
ATOM      4  C   UNL     1       5.315   4.253  16.066  0.00  0.00    +0.000 A 
ATOM      5  N   UNL     1       5.177   3.836  14.757  0.00  0.00    +0.000 N 
ATOM      6  H   UNL     1       4.370   3.331  14.409  0.00  0.00    +0.000 HD
ENDROOT
BRANCH   4   7
ATOM      7  C   UNL     1       4.278   3.950  17.029  0.00  0.00    +0.000 C 
ATOM      8  O   UNL     1       3.214   3.472  16.643  0.00  0.00    +0.000 OA
ATOM      9  N   UNL     1       4.571   4.260  18.344  0.00  0.00    +0.000 N 
ATOM     10  H   UNL     1       5.416   4.785  18.515  0.00  0.00    +0.000 HD
BRANCH   9  11
ATOM     11  C   UNL     1       3.713   4.045  19.449  0.00  0.00    +0.000 A 
ATOM     12  C   UNL     1       2.858   5.014  19.969  0.00  0.00    +0.000 A 
ATOM     13  C   UNL     1       2.085   4.736  21.095  0.00  0.00    +0.000 A 
ATOM     14  C   UNL     1       2.182   3.480  21.665  0.00  0.00    +0.000 A 
ATOM     15  N   UNL     1       2.967   2.497  21.173  0.00  0.00    +0.000 NA
ATOM     16  C   UNL     1       3.705   2.801  20.078  0.00  0.00    +0.000 A 
ENDBRANCH   9  11
ENDBRANCH   4   7
BRANCH   1  17
ATOM     17  C   UNL     1       6.408   3.770  12.626  0.00  0.00    +0.000 C 
ATOM     18  O   UNL     1       7.227   4.245  11.848  0.00  0.00    +0.000 OA
BRANCH  17  20
ATOM     19  C   UNL     1       4.458   3.288  11.423  0.00  0.00    +0.000 C 
ATOM     20  O   UNL     1       5.477   2.831  12.311  0.00  0.00    +0.000 OA
ENDBRANCH  17  20
ENDBRANCH   1  17
TORSDOF 4
ENDMDL
MODEL 8
REMARK VINA RESULT:      -6.3      6.316      8.086
REMARK  Name = 
REMARK  5 active torsions:
REMARK  status: ('A' for Active; 'I' for Inactive)
REMARK    1  A    between atoms: C_1  and  O_2
REMARK    2  A    between atoms: O_2  and  C_3
REMARK    3  A    between atoms: C_3  and  C_5
REMARK    4  A    between atoms: C_8  and  C_9
REMARK    5  A    between atoms: N_11  and  C_12
REMARK                            x       y       z     vdW  Elec       q    Type
REMARK                         _______ _______ _______ _____ _____    ______ ____
ROOT
ATOM      1  C   UNL     1       6.803   6.394  16.955  0.00  0.00    +0.000 A 
ATOM      2  C   UNL     1       7.429   5.804  18.041  0.00  0.00    +0.000 A 
ATOM      3  C   UNL     1       8.166   6.808  18.726  0.00  0.00    +0.000 A 
ATOM      4  C   UNL     1       7.970   8.005  18.059  0.00  0.00    +0.000 A 
ATOM      5  N   UNL     1       7.172   7.716  16.971  0.00  0.00    +0.000 N 
ATOM      6  H   UNL     1       6.872   8.409  16.293  0.00  0.00    +0.000 HD
ENDROOT
BRANCH   4   7
ATOM      7  C   UNL     1       8.407   9.366  18.290  0.00  0.00    +0.000 C 
ATOM      8  O   UNL     1       8.042  10.256  17.526  0.00  0.00    +0.000 OA
ATOM      9  N   UNL     1       9.247   9.551  19.372  0.00  0.00    +0.000 N 
ATOM     10  H   UNL     1       9.592   8.722  19.833  0.00  0.00    +0.000 HD
BRANCH   9  11
ATOM     11  C   UNL     1       9.787  10.791  19.789  0.00  0.00    +0.000 A 
ATOM     12  C   UNL     1       9.322  11.510  20.888  0.00  0.00    +0.000 A 
ATOM     13  C   UNL     1       9.875  12.752  21.197  0.00  0.00    +0.000 A 
ATOM     14  C   UNL     1      10.894  13.235  20.398  0.00  0.00    +0.000 A 
ATOM     15  N   UNL     1      11.403  12.557  19.347  0.00  0.00    +0.000 NA
ATOM     16  C   UNL     1      10.843  11.353  19.074  0.00  0.00    +0.000 A 
ENDBRANCH   9  11
ENDBRANCH   4   7
BRANCH   1  17
ATOM     17  C   UNL     1       5.921   5.859  15.948  0.00  0.00    +0.000 C 
ATOM     18  O   UNL     1       5.211   6.541  15.218  0.00  0.00    +0.000 OA
BRANCH  17  20
ATOM     19  C   UNL     1       6.280   3.932  14.667  0.00  0.00    +0.000 C 
ATOM     20  O   UNL     1       5.980   4.501  15.941  0.00  0.00    +0.000 OA
ENDBRANCH  17  20
ENDBRANCH   1  17
TORSDOF 4
ENDMDL
MODEL 9
REMARK VINA RESULT:      -6.2      1.066      1.581
REMARK  Name = 
REMARK  5 active torsions:
REMARK  status: ('A' for Active; 'I' for Inactive)
REMARK    1  A    between atoms: C_1  and  O_2
REMARK    2  A    between atoms: O_2  and  C_3
REMARK    3  A    between atoms: C_3  and  C_5
REMARK    4  A    between atoms: C_8  and  C_9
REMARK    5  A    between atoms: N_11  and  C_12
REMARK                            x       y       z     vdW  Elec       q    Type
REMARK                         _______ _______ _______ _____ _____    ______ ____
ROOT
ATOM      1  C   UNL     1       6.126   4.055  13.933  0.00  0.00    +0.000 A 
ATOM      2  C   UNL     1       7.203   4.767  14.435  0.00  0.00    +0.000 A 
ATOM      3  C   UNL     1       6.986   4.974  15.825  0.00  0.00    +0.000 A 
ATOM      4  C   UNL     1       5.785   4.374  16.159  0.00  0.00    +0.000 A 
ATOM      5  N   UNL     1       5.269   3.859  14.988  0.00  0.00    +0.000 N 
ATOM      6  H   UNL     1       4.384   3.367  14.930  0.00  0.00    +0.000 HD
ENDROOT
BRANCH   4   7
ATOM      7  C   UNL     1       5.059   4.205  17.400  0.00  0.00    +0.000 C 
ATOM      8  O   UNL     1       5.675   3.940  18.430  0.00  0.00    +0.000 OA
ATOM      9  N   UNL     1       3.685   4.334  17.315  0.00  0.00    +0.000 N 
ATOM     10  H   UNL     1       3.287   4.404  16.391  0.00  0.00    +0.000 HD
BRANCH   9  11
ATOM     11  C   UNL     1       2.782   4.216  18.398  0.00  0.00    +0.000 A 
ATOM     12  C   UNL     1       1.915   3.140  18.573  0.00  0.00    +0.000 A 
ATOM     13  C   UNL     1       1.017   3.129  19.639  0.00  0.00    +0.000 A 
ATOM     14  C   UNL     1       1.022   4.200  20.514  0.00  0.00    +0.000 A 
ATOM     15  N   UNL     1       1.869   5.245  20.407  0.00  0.00    +0.000 NA
ATOM     16  C   UNL     1       2.729   5.224  19.359  0.00  0.00    +0.000 A 
ENDBRANCH   9  11
ENDBRANCH   4   7
BRANCH   1  17
ATOM     17  C   UNL     1       5.838   3.556  12.611  0.00  0.00    +0.000 C 
ATOM     18  O   UNL     1       4.709   3.403  12.162  0.00  0.00    +0.000 OA
BRANCH  17  20
ATOM     19  C   UNL     1       6.988   2.002  11.290  0.00  0.00    +0.000 C 
ATOM     20  O   UNL     1       6.992   3.266  11.954  0.00  0.00    +0.000 OA
ENDBRANCH  17  20
ENDBRANCH   1  17
TORSDOF 4
ENDMDL
