MODEL 1
REMARK VINA RESULT:      -8.2      0.000      0.000
REMARK  Name = 
REMARK  5 active torsions:
REMARK  status: ('A' for Active; 'I' for Inactive)
REMARK    1  A    between atoms: N_1  and  C_2
REMARK    2  A    between atoms: C_2  and  C_3
REMARK    3  A    between atoms: C_2  and  C_11
REMARK    4  A    between atoms: C_3  and  C_4
REMARK    5  A    between atoms: N_16  and  C_17
REMARK                            x       y       z     vdW  Elec       q    Type
REMARK                         _______ _______ _______ _____ _____    ______ ____
ROOT
ATOM      1  C   UNL     1       2.613   3.196  19.312  0.00  0.00    +0.000 C 
ATOM      2  O   UNL     1       2.306   2.400  20.211  0.00  0.00    +0.000 OA
ATOM      3  N   UNL     1       2.047   4.455  19.242  0.00  0.00    +0.000 N 
ATOM      4  C   UNL     1       1.314   4.994  20.391  0.00  0.00    +0.000 C 
ATOM      5  C   UNL     1       1.869   6.368  20.832  0.00  0.00    +0.000 C 
ATOM      6  N   UNL     1       1.994   7.270  19.671  0.00  0.00    +0.000 N 
ATOM      7  C   UNL     1       2.754   6.720  18.539  0.00  0.00    +0.000 C 
ATOM      8  C   UNL     1       2.113   5.389  18.107  0.00  0.00    +0.000 C 
ENDROOT
BRANCH   6   9
ATOM      9  C   UNL     1       1.520   8.572  19.684  0.00  0.00    +0.000 A 
ATOM     10  C   UNL     1       1.617   9.382  18.532  0.00  0.00    +0.000 A 
ATOM     11  C   UNL     1       1.105  10.673  18.507  0.00  0.00    +0.000 A 
ATOM     12  N   UNL     1       0.480  11.283  19.529  0.00  0.00    +0.000 NA
ATOM     13  C   UNL     1       0.401  10.503  20.618  0.00  0.00    +0.000 A 
ATOM     14  N   UNL     1      -0.198  10.902  21.782  0.00  0.00    +0.000 N 
ATOM     15  C   UNL     1      -0.101   9.913  22.721  0.00  0.00    +0.000 A 
ATOM     16  C   UNL     1       0.579   8.862  22.143  0.00  0.00    +0.000 A 
ATOM     17  C   UNL     1       0.878   9.204  20.785  0.00  0.00    +0.000 A 
ATOM     18  H   UNL     1      -0.629  11.807  21.901  0.00  0.00    +0.000 HD
ENDBRANCH   6   9
BRANCH   1  19
ATOM     19  C   UNL     1       3.674   2.803  18.254  0.00  0.00    +0.000 C 
BRANCH  19  20
ATOM     20  N   UNL     1       4.014   1.359  18.344  0.00  0.00    +0.000 NA
ATOM     21  H   UNL     1       4.991   1.281  18.634  0.00  0.00    +0.000 HD
ATOM     22  H   UNL     1       4.010   0.967  17.401  0.00  0.00    +0.000 HD
ENDBRANCH  19  20
BRANCH  19  23
ATOM     23  C   UNL     1       4.958   3.657  18.313  0.00  0.00    +0.000 C 
BRANCH  23  24
ATOM     24  C   UNL     1       5.656   4.143  17.057  0.00  0.00    +0.000 A 
ATOM     25  C   UNL     1       6.970   4.622  16.998  0.00  0.00    +0.000 A 
ATOM     26  C   UNL     1       7.557   4.956  15.773  0.00  0.00    +0.000 A 
ATOM     27  C   UNL     1       6.833   4.820  14.593  0.00  0.00    +0.000 A 
ATOM     28 CL   UNL     1       7.583   5.160  13.084  0.00  0.00    +0.000 Cl
ATOM     29  C   UNL     1       5.511   4.393  14.631  0.00  0.00    +0.000 A 
ATOM     30  C   UNL     1       4.928   4.060  15.854  0.00  0.00    +0.000 A 
ENDBRANCH  23  24
ENDBRANCH  19  23
ENDBRANCH   1  19
TORSDOF 5
ENDMDL
MODEL 2
REMARK VINA RESULT:      -8.1      1.622      2.006
REMARK  Name = 
REMARK  5 active torsions:
REMARK  status: ('A' for Active; 'I' for Inactive)
REMARK    1  A    between atoms: N_1  and  C_2
REMARK    2  A    between atoms: C_2  and  C_3
REMARK    3  A    between atoms: C_2  and  C_11
REMARK    4  A    between atoms: C_3  and  C_4
REMARK    5  A    between atoms: N_16  and  C_17
REMARK                            x       y       z     vdW  Elec       q    Type
REMARK                         _______ _______ _______ _____ _____    ______ ____
ROOT
ATOM      1  C   UNL     1       2.720   3.499  19.405  0.00  0.00    +0.000 C 
ATOM      2  O   UNL     1       2.396   2.653  20.251  0.00  0.00    +0.000 OA
ATOM      3  N   UNL     1       2.087   4.725  19.337  0.00  0.00    +0.000 N 
ATOM      4  C   UNL     1       1.240   5.176  20.444  0.00  0.00    +0.000 C 
ATOM      5  C   UNL     1       1.678   6.562  20.973  0.00  0.00    +0.000 C 
ATOM      6  N   UNL     1       1.833   7.513  19.856  0.00  0.00    +0.000 N 
ATOM      7  C   UNL     1       2.707   7.053  18.767  0.00  0.00    +0.000 C 
ATOM      8  C   UNL     1       2.180   5.705  18.242  0.00  0.00    +0.000 C 
ENDROOT
BRANCH   6   9
ATOM      9  C   UNL     1       1.283   8.785  19.878  0.00  0.00    +0.000 A 
ATOM     10  C   UNL     1       1.332   9.607  18.732  0.00  0.00    +0.000 A 
ATOM     11  C   UNL     1       0.744  10.866  18.716  0.00  0.00    +0.000 A 
ATOM     12  N   UNL     1       0.083  11.430  19.741  0.00  0.00    +0.000 NA
ATOM     13  C   UNL     1       0.051  10.639  20.825  0.00  0.00    +0.000 A 
ATOM     14  N   UNL     1      -0.571  10.994  21.991  0.00  0.00    +0.000 N 
ATOM     15  C   UNL     1      -0.417  10.006  22.923  0.00  0.00    +0.000 A 
ATOM     16  C   UNL     1       0.325   9.002  22.339  0.00  0.00    +0.000 A 
ATOM     17  C   UNL     1       0.604   9.369  20.983  0.00  0.00    +0.000 A 
ATOM     18  H   UNL     1      -1.056  11.870  22.115  0.00  0.00    +0.000 HD
ENDBRANCH   6   9
BRANCH   1  19
ATOM     19  C   UNL     1       3.878   3.208  18.419  0.00  0.00    +0.000 C 
BRANCH  19  20
ATOM     20  N   UNL     1       3.873   1.785  17.987  0.00  0.00    +0.000 NA
ATOM     21  H   UNL     1       2.904   1.507  17.825  0.00  0.00    +0.000 HD
ATOM     22  H   UNL     1       4.162   1.208  18.778  0.00  0.00    +0.000 HD
ENDBRANCH  19  20
BRANCH  19  23
ATOM     23  C   UNL     1       5.270   3.596  18.961  0.00  0.00    +0.000 C 
BRANCH  23  24
ATOM     24  C   UNL     1       6.009   4.825  18.467  0.00  0.00    +0.000 A 
ATOM     25  C   UNL     1       5.628   5.608  17.371  0.00  0.00    +0.000 A 
ATOM     26  C   UNL     1       6.321   6.781  17.053  0.00  0.00    +0.000 A 
ATOM     27  C   UNL     1       7.407   7.180  17.825  0.00  0.00    +0.000 A 
ATOM     28 CL   UNL     1       8.208   8.660  17.476  0.00  0.00    +0.000 Cl
ATOM     29  C   UNL     1       7.833   6.394  18.889  0.00  0.00    +0.000 A 
ATOM     30  C   UNL     1       7.140   5.224  19.204  0.00  0.00    +0.000 A 
ENDBRANCH  23  24
ENDBRANCH  19  23
ENDBRANCH   1  19
TORSDOF 5
ENDMDL
MODEL 3
REMARK VINA RESULT:      -8.0      4.498      8.920
REMARK  Name = 
REMARK  5 active torsions:
REMARK  status: ('A' for Active; 'I' for Inactive)
REMARK    1  A    between atoms: N_1  and  C_2
REMARK    2  A    between atoms: C_2  and  C_3
REMARK    3  A    between atoms: C_2  and  C_11
REMARK    4  A    between atoms: C_3  and  C_4
REMARK    5  A    between atoms: N_16  and  C_17
REMARK                            x       y       z     vdW  Elec       q    Type
REMARK                         _______ _______ _______ _____ _____    ______ ____
ROOT
ATOM      1  C   UNL     1       0.465   9.893  19.611  0.00  0.00    +0.000 C 
ATOM      2  O   UNL     1      -0.102  10.331  20.623  0.00  0.00    +0.000 OA
ATOM      3  N   UNL     1       1.405   8.885  19.693  0.00  0.00    +0.000 N 
ATOM      4  C   UNL     1       1.530   8.097  20.923  0.00  0.00    +0.000 C 
ATOM      5  C   UNL     1       1.399   6.580  20.649  0.00  0.00    +0.000 C 
ATOM      6  N   UNL     1       2.285   6.180  19.539  0.00  0.00    +0.000 N 
ATOM      7  C   UNL     1       2.127   6.966  18.306  0.00  0.00    +0.000 C 
ATOM      8  C   UNL     1       2.333   8.456  18.635  0.00  0.00    +0.000 C 
ENDROOT
BRANCH   6   9
ATOM      9  C   UNL     1       3.128   5.083  19.616  0.00  0.00    +0.000 A 
ATOM     10  C   UNL     1       2.714   3.906  20.275  0.00  0.00    +0.000 A 
ATOM     11  C   UNL     1       3.524   2.777  20.321  0.00  0.00    +0.000 A 
ATOM     12  N   UNL     1       4.744   2.670  19.768  0.00  0.00    +0.000 NA
ATOM     13  C   UNL     1       5.126   3.800  19.152  0.00  0.00    +0.000 A 
ATOM     14  N   UNL     1       6.327   3.931  18.509  0.00  0.00    +0.000 N 
ATOM     15  C   UNL     1       6.450   5.195  18.002  0.00  0.00    +0.000 A 
ATOM     16  C   UNL     1       5.304   5.885  18.334  0.00  0.00    +0.000 A 
ATOM     17  C   UNL     1       4.426   5.000  19.038  0.00  0.00    +0.000 A 
ATOM     18  H   UNL     1       7.005   3.187  18.446  0.00  0.00    +0.000 HD
ENDBRANCH   6   9
BRANCH   1  19
ATOM     19  C   UNL     1       0.102  10.453  18.213  0.00  0.00    +0.000 C 
BRANCH  19  20
ATOM     20  N   UNL     1      -0.082  11.928  18.254  0.00  0.00    +0.000 NA
ATOM     21  H   UNL     1       0.842  12.363  18.213  0.00  0.00    +0.000 HD
ATOM     22  H   UNL     1      -0.429  12.184  19.179  0.00  0.00    +0.000 HD
ENDBRANCH  19  20
BRANCH  19  23
ATOM     23  C   UNL     1      -1.133   9.781  17.575  0.00  0.00    +0.000 C 
BRANCH  23  24
ATOM     24  C   UNL     1      -2.490  10.460  17.547  0.00  0.00    +0.000 A 
ATOM     25  C   UNL     1      -3.094  11.097  18.636  0.00  0.00    +0.000 A 
ATOM     26  C   UNL     1      -4.306  11.780  18.485  0.00  0.00    +0.000 A 
ATOM     27  C   UNL     1      -4.930  11.826  17.242  0.00  0.00    +0.000 A 
ATOM     28 CL   UNL     1      -6.379  12.728  17.043  0.00  0.00    +0.000 Cl
ATOM     29  C   UNL     1      -4.373  11.160  16.157  0.00  0.00    +0.000 A 
ATOM     30  C   UNL     1      -3.164  10.479  16.311  0.00  0.00    +0.000 A 
ENDBRANCH  23  24
ENDBRANCH  19  23
ENDBRANCH   1  19
TORSDOF 5
ENDMDL
MODEL 4
REMARK VINA RESULT:      -7.9      3.114      4.575
REMARK  Name = 
REMARK  5 active torsions:
REMARK  status: ('A' for Active; 'I' for Inactive)
REMARK    1  A    between atoms: N_1  and  C_2
REMARK    2  A    between atoms: C_2  and  C_3
REMARK    3  A    between atoms: C_2  and  C_11
REMARK    4  A    between atoms: C_3  and  C_4
REMARK    5  A    between atoms: N_16  and  C_17
REMARK                            x       y       z     vdW  Elec       q    Type
REMARK                         _______ _______ _______ _____ _____    ______ ____
ROOT
ATOM      1  C   UNL     1       4.839   5.884  16.655  0.00  0.00    +0.000 C 
ATOM      2  O   UNL     1       5.121   6.324  15.531  0.00  0.00    +0.000 OA
ATOM      3  N   UNL     1       4.291   6.698  17.628  0.00  0.00    +0.000 N 
ATOM      4  C   UNL     1       3.743   8.008  17.265  0.00  0.00    +0.000 C 
ATOM      5  C   UNL     1       2.277   8.165  17.731  0.00  0.00    +0.000 C 
ATOM      6  N   UNL     1       2.145   7.786  19.151  0.00  0.00    +0.000 N 
ATOM      7  C   UNL     1       2.677   6.458  19.489  0.00  0.00    +0.000 C 
ATOM      8  C   UNL     1       4.154   6.389  19.061  0.00  0.00    +0.000 C 
ENDROOT
BRANCH   6   9
ATOM      9  C   UNL     1       1.477   8.575  20.075  0.00  0.00    +0.000 A 
ATOM     10  C   UNL     1       1.631   8.344  21.458  0.00  0.00    +0.000 A 
ATOM     11  C   UNL     1       1.011   9.153  22.402  0.00  0.00    +0.000 A 
ATOM     12  N   UNL     1       0.227  10.209  22.128  0.00  0.00    +0.000 NA
ATOM     13  C   UNL     1       0.084  10.411  20.808  0.00  0.00    +0.000 A 
ATOM     14  N   UNL     1      -0.664  11.431  20.284  0.00  0.00    +0.000 N 
ATOM     15  C   UNL     1      -0.645  11.369  18.919  0.00  0.00    +0.000 A 
ATOM     16  C   UNL     1       0.127  10.283  18.566  0.00  0.00    +0.000 A 
ATOM     17  C   UNL     1       0.635   9.677  19.759  0.00  0.00    +0.000 A 
ATOM     18  H   UNL     1      -1.153  12.106  20.852  0.00  0.00    +0.000 HD
ENDBRANCH   6   9
BRANCH   1  19
ATOM     19  C   UNL     1       5.069   4.389  16.985  0.00  0.00    +0.000 C 
BRANCH  19  20
ATOM     20  N   UNL     1       6.029   3.768  16.035  0.00  0.00    +0.000 NA
ATOM     21  H   UNL     1       5.522   3.537  15.178  0.00  0.00    +0.000 HD
ATOM     22  H   UNL     1       6.307   2.859  16.405  0.00  0.00    +0.000 HD
ENDBRANCH  19  20
BRANCH  19  23
ATOM     23  C   UNL     1       3.769   3.558  17.046  0.00  0.00    +0.000 C 
BRANCH  23  24
ATOM     24  C   UNL     1       3.140   3.149  18.365  0.00  0.00    +0.000 A 
ATOM     25  C   UNL     1       3.847   2.815  19.525  0.00  0.00    +0.000 A 
ATOM     26  C   UNL     1       3.174   2.545  20.722  0.00  0.00    +0.000 A 
ATOM     27  C   UNL     1       1.785   2.600  20.768  0.00  0.00    +0.000 A 
ATOM     28 CL   UNL     1       0.966   2.342  22.257  0.00  0.00    +0.000 Cl
ATOM     29  C   UNL     1       1.059   2.883  19.617  0.00  0.00    +0.000 A 
ATOM     30  C   UNL     1       1.733   3.151  18.424  0.00  0.00    +0.000 A 
ENDBRANCH  23  24
ENDBRANCH  19  23
ENDBRANCH   1  19
TORSDOF 5
ENDMDL
MODEL 5
REMARK VINA RESULT:      -7.8      0.652      1.848
REMARK  Name = 
REMARK  5 active torsions:
REMARK  status: ('A' for Active; 'I' for Inactive)
REMARK    1  A    between atoms: N_1  and  C_2
REMARK    2  A    between atoms: C_2  and  C_3
REMARK    3  A    between atoms: C_2  and  C_11
REMARK    4  A    between atoms: C_3  and  C_4
REMARK    5  A    between atoms: N_16  and  C_17
REMARK                            x       y       z     vdW  Elec       q    Type
REMARK                         _______ _______ _______ _____ _____    ______ ____
ROOT
ATOM      1  C   UNL     1       2.457   2.833  18.965  0.00  0.00    +0.000 C 
ATOM      2  O   UNL     1       2.059   1.882  19.653  0.00  0.00    +0.000 OA
ATOM      3  N   UNL     1       1.931   4.101  19.118  0.00  0.00    +0.000 N 
ATOM      4  C   UNL     1       1.120   4.422  20.297  0.00  0.00    +0.000 C 
ATOM      5  C   UNL     1       1.672   5.651  21.055  0.00  0.00    +0.000 C 
ATOM      6  N   UNL     1       1.913   6.767  20.120  0.00  0.00    +0.000 N 
ATOM      7  C   UNL     1       2.749   6.432  18.958  0.00  0.00    +0.000 C 
ATOM      8  C   UNL     1       2.112   5.246  18.211  0.00  0.00    +0.000 C 
ENDROOT
BRANCH   6   9
ATOM      9  C   UNL     1       1.473   8.057  20.370  0.00  0.00    +0.000 A 
ATOM     10  C   UNL     1       0.948   8.404  21.633  0.00  0.00    +0.000 A 
ATOM     11  C   UNL     1       0.546   9.703  21.921  0.00  0.00    +0.000 A 
ATOM     12  N   UNL     1       0.608  10.743  21.073  0.00  0.00    +0.000 NA
ATOM     13  C   UNL     1       1.103  10.396  19.874  0.00  0.00    +0.000 A 
ATOM     14  N   UNL     1       1.268  11.286  18.847  0.00  0.00    +0.000 N 
ATOM     15  C   UNL     1       1.763  10.643  17.747  0.00  0.00    +0.000 A 
ATOM     16  C   UNL     1       1.912   9.313  18.079  0.00  0.00    +0.000 A 
ATOM     17  C   UNL     1       1.530   9.139  19.448  0.00  0.00    +0.000 A 
ATOM     18  H   UNL     1       1.037  12.265  18.921  0.00  0.00    +0.000 HD
ENDBRANCH   6   9
BRANCH   1  19
ATOM     19  C   UNL     1       3.590   2.623  17.930  0.00  0.00    +0.000 C 
BRANCH  19  20
ATOM     20  N   UNL     1       4.086   1.222  17.951  0.00  0.00    +0.000 NA
ATOM     21  H   UNL     1       4.497   1.018  17.038  0.00  0.00    +0.000 HD
ATOM     22  H   UNL     1       3.281   0.596  17.999  0.00  0.00    +0.000 HD
ENDBRANCH  19  20
BRANCH  19  23
ATOM     23  C   UNL     1       4.770   3.607  18.090  0.00  0.00    +0.000 C 
BRANCH  23  24
ATOM     24  C   UNL     1       5.550   4.123  16.896  0.00  0.00    +0.000 A 
ATOM     25  C   UNL     1       6.858   4.617  16.940  0.00  0.00    +0.000 A 
ATOM     26  C   UNL     1       7.527   4.981  15.766  0.00  0.00    +0.000 A 
ATOM     27  C   UNL     1       6.892   4.859  14.536  0.00  0.00    +0.000 A 
ATOM     28 CL   UNL     1       7.743   5.235  13.090  0.00  0.00    +0.000 Cl
ATOM     29  C   UNL     1       5.576   4.416  14.471  0.00  0.00    +0.000 A 
ATOM     30  C   UNL     1       4.910   4.055  15.643  0.00  0.00    +0.000 A 
ENDBRANCH  23  24
ENDBRANCH  19  23
ENDBRANCH   1  19
TORSDOF 5
ENDMDL
MODEL 6
REMARK VINA RESULT:      -7.8      4.032      8.398
REMARK  Name = 
REMARK  5 active torsions:
REMARK  status: ('A' for Active; 'I' for Inactive)
REMARK    1  A    between atoms: N_1  and  C_2
REMARK    2  A    between atoms: C_2  and  C_3
REMARK    3  A    between atoms: C_2  and  C_11
REMARK    4  A    between atoms: C_3  and  C_4
REMARK    5  A    between atoms: N_16  and  C_17
REMARK                            x       y       z     vdW  Elec       q    Type
REMARK                         _______ _______ _______ _____ _____    ______ ____
ROOT
ATOM      1  C   UNL     1       0.464   9.968  20.018  0.00  0.00    +0.000 C 
ATOM      2  O   UNL     1       0.007  10.400  21.086  0.00  0.00    +0.000 OA
ATOM      3  N   UNL     1       1.400   8.953  19.996  0.00  0.00    +0.000 N 
ATOM      4  C   UNL     1       1.645   8.153  21.200  0.00  0.00    +0.000 C 
ATOM      5  C   UNL     1       1.476   6.640  20.928  0.00  0.00    +0.000 C 
ATOM      6  N   UNL     1       2.241   6.244  19.730  0.00  0.00    +0.000 N 
ATOM      7  C   UNL     1       1.963   7.041  18.526  0.00  0.00    +0.000 C 
ATOM      8  C   UNL     1       2.212   8.527  18.844  0.00  0.00    +0.000 C 
ENDROOT
BRANCH   6   9
ATOM      9  C   UNL     1       3.080   5.141  19.712  0.00  0.00    +0.000 A 
ATOM     10  C   UNL     1       2.689   3.933  20.329  0.00  0.00    +0.000 A 
ATOM     11  C   UNL     1       3.492   2.801  20.280  0.00  0.00    +0.000 A 
ATOM     12  N   UNL     1       4.684   2.717  19.665  0.00  0.00    +0.000 NA
ATOM     13  C   UNL     1       5.045   3.875  19.090  0.00  0.00    +0.000 A 
ATOM     14  N   UNL     1       6.216   4.035  18.399  0.00  0.00    +0.000 N 
ATOM     15  C   UNL     1       6.323   5.321  17.952  0.00  0.00    +0.000 A 
ATOM     16  C   UNL     1       5.198   5.998  18.372  0.00  0.00    +0.000 A 
ATOM     17  C   UNL     1       4.348   5.082  19.070  0.00  0.00    +0.000 A 
ATOM     18  H   UNL     1       6.886   3.292  18.267  0.00  0.00    +0.000 HD
ENDBRANCH   6   9
BRANCH   1  19
ATOM     19  C   UNL     1      -0.036  10.542  18.669  0.00  0.00    +0.000 C 
BRANCH  19  20
ATOM     20  N   UNL     1       0.714  11.769  18.294  0.00  0.00    +0.000 NA
ATOM     21  H   UNL     1       1.271  11.558  17.464  0.00  0.00    +0.000 HD
ATOM     22  H   UNL     1       1.413  11.953  19.015  0.00  0.00    +0.000 HD
ENDBRANCH  19  20
BRANCH  19  23
ATOM     23  C   UNL     1      -1.555  10.816  18.634  0.00  0.00    +0.000 C 
BRANCH  23  24
ATOM     24  C   UNL     1      -2.376  10.620  17.373  0.00  0.00    +0.000 A 
ATOM     25  C   UNL     1      -3.519  11.352  17.034  0.00  0.00    +0.000 A 
ATOM     26  C   UNL     1      -4.151  11.164  15.800  0.00  0.00    +0.000 A 
ATOM     27  C   UNL     1      -3.649  10.235  14.895  0.00  0.00    +0.000 A 
ATOM     28 CL   UNL     1      -4.384  10.060  13.351  0.00  0.00    +0.000 Cl
ATOM     29  C   UNL     1      -2.544   9.462  15.228  0.00  0.00    +0.000 A 
ATOM     30  C   UNL     1      -1.915   9.652  16.460  0.00  0.00    +0.000 A 
ENDBRANCH  23  24
ENDBRANCH  19  23
ENDBRANCH   1  19
TORSDOF 5
ENDMDL
MODEL 7
REMARK VINA RESULT:      -7.8      3.969      8.449
REMARK  Name = 
REMARK  5 active torsions:
REMARK  status: ('A' for Active; 'I' for Inactive)
REMARK    1  A    between atoms: N_1  and  C_2
REMARK    2  A    between atoms: C_2  and  C_3
REMARK    3  A    between atoms: C_2  and  C_11
REMARK    4  A    between atoms: C_3  and  C_4
REMARK    5  A    between atoms: N_16  and  C_17
REMARK                            x       y       z     vdW  Elec       q    Type
REMARK                         _______ _______ _______ _____ _____    ______ ____
ROOT
ATOM      1  C   UNL     1       0.204  10.514  20.452  0.00  0.00    +0.000 C 
ATOM      2  O   UNL     1      -0.142  10.422  21.639  0.00  0.00    +0.000 OA
ATOM      3  N   UNL     1       1.203   9.716  19.931  0.00  0.00    +0.000 N 
ATOM      4  C   UNL     1       1.662   8.537  20.672  0.00  0.00    +0.000 C 
ATOM      5  C   UNL     1       1.575   7.252  19.816  0.00  0.00    +0.000 C 
ATOM      6  N   UNL     1       2.205   7.467  18.499  0.00  0.00    +0.000 N 
ATOM      7  C   UNL     1       1.713   8.640  17.761  0.00  0.00    +0.000 C 
ATOM      8  C   UNL     1       1.889   9.891  18.640  0.00  0.00    +0.000 C 
ENDROOT
BRANCH   6   9
ATOM      9  C   UNL     1       3.116   6.576  17.954  0.00  0.00    +0.000 A 
ATOM     10  C   UNL     1       4.376   7.023  17.503  0.00  0.00    +0.000 A 
ATOM     11  C   UNL     1       5.322   6.140  16.998  0.00  0.00    +0.000 A 
ATOM     12  N   UNL     1       5.164   4.811  16.885  0.00  0.00    +0.000 NA
ATOM     13  C   UNL     1       3.959   4.401  17.311  0.00  0.00    +0.000 A 
ATOM     14  N   UNL     1       3.568   3.090  17.300  0.00  0.00    +0.000 N 
ATOM     15  C   UNL     1       2.287   2.980  17.764  0.00  0.00    +0.000 A 
ATOM     16  C   UNL     1       1.851   4.251  18.073  0.00  0.00    +0.000 A 
ATOM     17  C   UNL     1       2.918   5.172  17.826  0.00  0.00    +0.000 A 
ATOM     18  H   UNL     1       4.160   2.338  16.979  0.00  0.00    +0.000 HD
ENDBRANCH   6   9
BRANCH   1  19
ATOM     19  C   UNL     1      -0.510  11.515  19.510  0.00  0.00    +0.000 C 
BRANCH  19  20
ATOM     20  N   UNL     1      -0.289  12.918  19.949  0.00  0.00    +0.000 NA
ATOM     21  H   UNL     1       0.527  12.933  20.565  0.00  0.00    +0.000 HD
ATOM     22  H   UNL     1      -1.060  13.190  20.560  0.00  0.00    +0.000 HD
ENDBRANCH  19  20
BRANCH  19  23
ATOM     23  C   UNL     1      -2.019  11.242  19.340  0.00  0.00    +0.000 C 
BRANCH  23  24
ATOM     24  C   UNL     1      -2.628  10.918  17.989  0.00  0.00    +0.000 A 
ATOM     25  C   UNL     1      -3.819  11.459  17.490  0.00  0.00    +0.000 A 
ATOM     26  C   UNL     1      -4.247  11.171  16.190  0.00  0.00    +0.000 A 
ATOM     27  C   UNL     1      -3.492  10.334  15.376  0.00  0.00    +0.000 A 
ATOM     28 CL   UNL     1      -3.982  10.043  13.755  0.00  0.00    +0.000 Cl
ATOM     29  C   UNL     1      -2.331   9.747  15.865  0.00  0.00    +0.000 A 
ATOM     30  C   UNL     1      -1.905  10.035  17.163  0.00  0.00    +0.000 A 
ENDBRANCH  23  24
ENDBRANCH  19  23
ENDBRANCH   1  19
TORSDOF 5
ENDMDL
MODEL 8
REMARK VINA RESULT:      -7.8      1.830      2.027
REMARK  Name = 
REMARK  5 active torsions:
REMARK  status: ('A' for Active; 'I' for Inactive)
REMARK    1  A    between atoms: N_1  and  C_2
REMARK    2  A    between atoms: C_2  and  C_3
REMARK    3  A    between atoms: C_2  and  C_11
REMARK    4  A    between atoms: C_3  and  C_4
REMARK    5  A    between atoms: N_16  and  C_17
REMARK                            x       y       z     vdW  Elec       q    Type
REMARK                         _______ _______ _______ _____ _____    ______ ____
ROOT
ATOM      1  C   UNL     1       3.013   3.936  19.487  0.00  0.00    +0.000 C 
ATOM      2  O   UNL     1       2.909   3.122  20.415  0.00  0.00    +0.000 OA
ATOM      3  N   UNL     1       2.256   5.091  19.456  0.00  0.00    +0.000 N 
ATOM      4  C   UNL     1       1.545   5.535  20.658  0.00  0.00    +0.000 C 
ATOM      5  C   UNL     1       1.916   6.987  21.040  0.00  0.00    +0.000 C 
ATOM      6  N   UNL     1       1.803   7.873  19.865  0.00  0.00    +0.000 N 
ATOM      7  C   UNL     1       2.544   7.423  18.677  0.00  0.00    +0.000 C 
ATOM      8  C   UNL     1       2.082   6.001  18.312  0.00  0.00    +0.000 C 
ENDROOT
BRANCH   6   9
ATOM      9  C   UNL     1       1.136   9.087  19.908  0.00  0.00    +0.000 A 
ATOM     10  C   UNL     1       1.086   9.918  18.768  0.00  0.00    +0.000 A 
ATOM     11  C   UNL     1       0.382  11.116  18.774  0.00  0.00    +0.000 A 
ATOM     12  N   UNL     1      -0.309  11.608  19.816  0.00  0.00    +0.000 NA
ATOM     13  C   UNL     1      -0.246  10.811  20.894  0.00  0.00    +0.000 A 
ATOM     14  N   UNL     1      -0.875  11.098  22.075  0.00  0.00    +0.000 N 
ATOM     15  C   UNL     1      -0.610  10.123  22.995  0.00  0.00    +0.000 A 
ATOM     16  C   UNL     1       0.211   9.196  22.388  0.00  0.00    +0.000 A 
ATOM     17  C   UNL     1       0.427   9.598  21.031  0.00  0.00    +0.000 A 
ATOM     18  H   UNL     1      -1.437  11.924  22.215  0.00  0.00    +0.000 HD
ENDBRANCH   6   9
BRANCH   1  19
ATOM     19  C   UNL     1       4.032   3.689  18.347  0.00  0.00    +0.000 C 
BRANCH  19  20
ATOM     20  N   UNL     1       3.844   2.345  17.739  0.00  0.00    +0.000 NA
ATOM     21  H   UNL     1       2.861   2.085  17.842  0.00  0.00    +0.000 HD
ATOM     22  H   UNL     1       4.337   1.660  18.313  0.00  0.00    +0.000 HD
ENDBRANCH  19  20
BRANCH  19  23
ATOM     23  C   UNL     1       5.503   3.879  18.773  0.00  0.00    +0.000 C 
BRANCH  23  24
ATOM     24  C   UNL     1       6.238   5.188  18.553  0.00  0.00    +0.000 A 
ATOM     25  C   UNL     1       7.408   5.577  19.216  0.00  0.00    +0.000 A 
ATOM     26  C   UNL     1       8.065   6.763  18.872  0.00  0.00    +0.000 A 
ATOM     27  C   UNL     1       7.556   7.576  17.865  0.00  0.00    +0.000 A 
ATOM     28 CL   UNL     1       8.408   8.993  17.394  0.00  0.00    +0.000 Cl
ATOM     29  C   UNL     1       6.370   7.235  17.226  0.00  0.00    +0.000 A 
ATOM     30  C   UNL     1       5.715   6.051  17.571  0.00  0.00    +0.000 A 
ENDBRANCH  23  24
ENDBRANCH  19  23
ENDBRANCH   1  19
TORSDOF 5
ENDMDL
MODEL 9
REMARK VINA RESULT:      -7.7      4.630      9.079
REMARK  Name = 
REMARK  5 active torsions:
REMARK  status: ('A' for Active; 'I' for Inactive)
REMARK    1  A    between atoms: N_1  and  C_2
REMARK    2  A    between atoms: C_2  and  C_3
REMARK    3  A    between atoms: C_2  and  C_11
REMARK    4  A    between atoms: C_3  and  C_4
REMARK    5  A    between atoms: N_16  and  C_17
REMARK                            x       y       z     vdW  Elec       q    Type
REMARK                         _______ _______ _______ _____ _____    ______ ____
ROOT
ATOM      1  C   UNL     1       0.269  10.013  19.411  0.00  0.00    +0.000 C 
ATOM      2  O   UNL     1      -0.278  10.297  20.487  0.00  0.00    +0.000 OA
ATOM      3  N   UNL     1       1.335   9.137  19.358  0.00  0.00    +0.000 N 
ATOM      4  C   UNL     1       1.647   8.288  20.512  0.00  0.00    +0.000 C 
ATOM      5  C   UNL     1       1.697   6.791  20.126  0.00  0.00    +0.000 C 
ATOM      6  N   UNL     1       2.548   6.594  18.937  0.00  0.00    +0.000 N 
ATOM      7  C   UNL     1       2.204   7.437  17.782  0.00  0.00    +0.000 C 
ATOM      8  C   UNL     1       2.236   8.913  18.215  0.00  0.00    +0.000 C 
ENDROOT
BRANCH   6   9
ATOM      9  C   UNL     1       3.530   5.619  18.876  0.00  0.00    +0.000 A 
ATOM     10  C   UNL     1       4.859   5.915  19.249  0.00  0.00    +0.000 A 
ATOM     11  C   UNL     1       5.849   4.940  19.243  0.00  0.00    +0.000 A 
ATOM     12  N   UNL     1       5.672   3.652  18.901  0.00  0.00    +0.000 NA
ATOM     13  C   UNL     1       4.405   3.388  18.543  0.00  0.00    +0.000 A 
ATOM     14  N   UNL     1       3.980   2.145  18.160  0.00  0.00    +0.000 N 
ATOM     15  C   UNL     1       2.655   2.185  17.829  0.00  0.00    +0.000 A 
ATOM     16  C   UNL     1       2.228   3.485  18.000  0.00  0.00    +0.000 A 
ATOM     17  C   UNL     1       3.323   4.265  18.492  0.00  0.00    +0.000 A 
ATOM     18  H   UNL     1       4.586   1.338  18.128  0.00  0.00    +0.000 HD
ENDBRANCH   6   9
BRANCH   1  19
ATOM     19  C   UNL     1      -0.260  10.616  18.087  0.00  0.00    +0.000 C 
BRANCH  19  20
ATOM     20  N   UNL     1      -0.523  12.072  18.225  0.00  0.00    +0.000 NA
ATOM     21  H   UNL     1       0.211  12.575  17.722  0.00  0.00    +0.000 HD
ATOM     22  H   UNL     1      -0.375  12.336  19.199  0.00  0.00    +0.000 HD
ENDBRANCH  19  20
BRANCH  19  23
ATOM     23  C   UNL     1      -1.511   9.900  17.532  0.00  0.00    +0.000 C 
BRANCH  23  24
ATOM     24  C   UNL     1      -2.865  10.581  17.476  0.00  0.00    +0.000 A 
ATOM     25  C   UNL     1      -3.620  10.968  18.590  0.00  0.00    +0.000 A 
ATOM     26  C   UNL     1      -4.814  11.679  18.435  0.00  0.00    +0.000 A 
ATOM     27  C   UNL     1      -5.271  12.005  17.162  0.00  0.00    +0.000 A 
ATOM     28 CL   UNL     1      -6.699  12.943  16.978  0.00  0.00    +0.000 Cl
ATOM     29  C   UNL     1      -4.564  11.590  16.039  0.00  0.00    +0.000 A 
ATOM     30  C   UNL     1      -3.372  10.880  16.197  0.00  0.00    +0.000 A 
ENDBRANCH  23  24
ENDBRANCH  19  23
ENDBRANCH   1  19
TORSDOF 5
ENDMDL
