MODEL 1
REMARK VINA RESULT:      -7.9      0.000      0.000
REMARK  Name = 
REMARK  4 active torsions:
REMARK  status: ('A' for Active; 'I' for Inactive)
REMARK    1  A    between atoms: C_4  and  C_5
REMARK    2  A    between atoms: N_14  and  C_15
REMARK    3  A    between atoms: C_15  and  N_16
REMARK    4  A    between atoms: N_19  and  C_20
REMARK                            x       y       z     vdW  Elec       q    Type
REMARK                         _______ _______ _______ _____ _____    ______ ____
ROOT
ATOM      1  O   UNL     1       5.285   3.994  19.075  0.00  0.00    +0.000 OA
ATOM      2  C   UNL     1       5.573   4.451  17.982  0.00  0.00    +0.000 C 
ATOM      3  C   UNL     1       6.242   3.689  16.876  0.00  0.00    +0.000 C 
ATOM      4  C   UNL     1       7.056   4.780  16.192  0.00  0.00    +0.000 C 
ATOM      5  C   UNL     1       6.445   6.058  16.736  0.00  0.00    +0.000 C 
ATOM      6  O   UNL     1       6.886   7.180  16.534  0.00  0.00    +0.000 OA
ATOM      7  N   UNL     1       5.390   5.724  17.552  0.00  0.00    +0.000 N 
ENDROOT
BRANCH   4   8
ATOM      8  C   UNL     1       7.023   4.748  14.676  0.00  0.00    +0.000 A 
ATOM      9  C   UNL     1       7.908   5.537  13.919  0.00  0.00    +0.000 A 
ATOM     10  C   UNL     1       7.981   5.407  12.533  0.00  0.00    +0.000 A 
ATOM     11  C   UNL     1       7.160   4.494  11.876  0.00  0.00    +0.000 A 
ATOM     12  C   UNL     1       6.250   3.735  12.608  0.00  0.00    +0.000 A 
ATOM     13 CL   UNL     1       5.233   2.611  11.792  0.00  0.00    +0.000 Cl
ATOM     14  C   UNL     1       6.169   3.859  13.996  0.00  0.00    +0.000 A 
ENDBRANCH   4   8
BRANCH   7  15
ATOM     15  C   UNL     1       4.566   6.692  18.235  0.00  0.00    +0.000 C 
BRANCH  15  16
ATOM     16  N   UNL     1       3.166   6.509  17.830  0.00  0.00    +0.000 NA
ATOM     17  C   UNL     1       2.287   5.916  18.850  0.00  0.00    +0.000 C 
ATOM     18  C   UNL     1       1.958   6.807  20.063  0.00  0.00    +0.000 C 
ATOM     19  N   UNL     1       1.461   8.141  19.690  0.00  0.00    +0.000 N 
ATOM     20  C   UNL     1       2.088   8.773  18.504  0.00  0.00    +0.000 C 
ATOM     21  C   UNL     1       2.541   7.772  17.403  0.00  0.00    +0.000 C 
BRANCH  19  22
ATOM     22  C   UNL     1       0.758   8.929  20.627  0.00  0.00    +0.000 A 
ATOM     23  C   UNL     1       0.947   8.677  22.009  0.00  0.00    +0.000 A 
ATOM     24  C   UNL     1       0.427   9.494  23.027  0.00  0.00    +0.000 A 
ATOM     25  C   UNL     1      -0.320  10.614  22.710  0.00  0.00    +0.000 A 
ATOM     26  C   UNL     1      -0.590  10.878  21.375  0.00  0.00    +0.000 A 
ATOM     27  C   UNL     1      -0.083  10.047  20.350  0.00  0.00    +0.000 A 
ATOM     28 CL   UNL     1      -0.679  10.488  18.776  0.00  0.00    +0.000 Cl
ENDBRANCH  19  22
ENDBRANCH  15  16
ENDBRANCH   7  15
TORSDOF 4
ENDMDL
MODEL 2
REMARK VINA RESULT:      -7.5      4.485     11.206
REMARK  Name = 
REMARK  4 active torsions:
REMARK  status: ('A' for Active; 'I' for Inactive)
REMARK    1  A    between atoms: C_4  and  C_5
REMARK    2  A    between atoms: N_14  and  C_15
REMARK    3  A    between atoms: C_15  and  N_16
REMARK    4  A    between atoms: N_19  and  C_20
REMARK                            x       y       z     vdW  Elec       q    Type
REMARK                         _______ _______ _______ _____ _____    ______ ____
ROOT
ATOM      1  O   UNL     1       1.218  13.927  21.500  0.00  0.00    +0.000 OA
ATOM      2  C   UNL     1       0.169  13.381  21.797  0.00  0.00    +0.000 C 
ATOM      3  C   UNL     1      -1.070  14.088  22.262  0.00  0.00    +0.000 C 
ATOM      4  C   UNL     1      -1.680  13.061  23.208  0.00  0.00    +0.000 C 
ATOM      5  C   UNL     1      -0.939  11.785  22.856  0.00  0.00    +0.000 C 
ATOM      6  O   UNL     1      -1.038  10.732  23.469  0.00  0.00    +0.000 OA
ATOM      7  N   UNL     1      -0.088  12.050  21.809  0.00  0.00    +0.000 N 
ENDROOT
BRANCH   4   8
ATOM      8  C   UNL     1      -3.181  12.887  23.082  0.00  0.00    +0.000 A 
ATOM      9  C   UNL     1      -3.997  12.816  24.226  0.00  0.00    +0.000 A 
ATOM     10  C   UNL     1      -5.387  12.799  24.119  0.00  0.00    +0.000 A 
ATOM     11  C   UNL     1      -5.987  12.839  22.863  0.00  0.00    +0.000 A 
ATOM     12  C   UNL     1      -5.191  12.869  21.720  0.00  0.00    +0.000 A 
ATOM     13 CL   UNL     1      -5.937  12.914  20.168  0.00  0.00    +0.000 Cl
ATOM     14  C   UNL     1      -3.800  12.885  21.818  0.00  0.00    +0.000 A 
ENDBRANCH   4   8
BRANCH   7  15
ATOM     15  C   UNL     1       0.770  11.061  21.202  0.00  0.00    +0.000 C 
BRANCH  15  16
ATOM     16  N   UNL     1      -0.056  10.040  20.544  0.00  0.00    +0.000 NA
ATOM     17  C   UNL     1       0.166   9.887  19.098  0.00  0.00    +0.000 C 
ATOM     18  C   UNL     1       1.509   9.258  18.680  0.00  0.00    +0.000 C 
ATOM     19  N   UNL     1       1.800   7.989  19.367  0.00  0.00    +0.000 N 
ATOM     20  C   UNL     1       1.395   7.901  20.791  0.00  0.00    +0.000 C 
ATOM     21  C   UNL     1       0.116   8.709  21.151  0.00  0.00    +0.000 C 
BRANCH  19  22
ATOM     22  C   UNL     1       2.761   7.098  18.843  0.00  0.00    +0.000 A 
ATOM     23  C   UNL     1       3.489   7.480  17.689  0.00  0.00    +0.000 A 
ATOM     24  C   UNL     1       4.574   6.749  17.177  0.00  0.00    +0.000 A 
ATOM     25  C   UNL     1       4.985   5.583  17.797  0.00  0.00    +0.000 A 
ATOM     26  C   UNL     1       4.272   5.127  18.895  0.00  0.00    +0.000 A 
ATOM     27  C   UNL     1       3.170   5.851  19.402  0.00  0.00    +0.000 A 
ATOM     28 CL   UNL     1       2.346   5.007  20.681  0.00  0.00    +0.000 Cl
ENDBRANCH  19  22
ENDBRANCH  15  16
ENDBRANCH   7  15
TORSDOF 4
ENDMDL
MODEL 3
REMARK VINA RESULT:      -7.4      1.228      1.498
REMARK  Name = 
REMARK  4 active torsions:
REMARK  status: ('A' for Active; 'I' for Inactive)
REMARK    1  A    between atoms: C_4  and  C_5
REMARK    2  A    between atoms: N_14  and  C_15
REMARK    3  A    between atoms: C_15  and  N_16
REMARK    4  A    between atoms: N_19  and  C_20
REMARK                            x       y       z     vdW  Elec       q    Type
REMARK                         _______ _______ _______ _____ _____    ______ ____
ROOT
ATOM      1  O   UNL     1       4.032   4.281  18.924  0.00  0.00    +0.000 OA
ATOM      2  C   UNL     1       4.555   4.662  17.890  0.00  0.00    +0.000 C 
ATOM      3  C   UNL     1       5.164   3.768  16.851  0.00  0.00    +0.000 C 
ATOM      4  C   UNL     1       6.290   4.640  16.309  0.00  0.00    +0.000 C 
ATOM      5  C   UNL     1       5.928   6.024  16.816  0.00  0.00    +0.000 C 
ATOM      6  O   UNL     1       6.640   7.011  16.707  0.00  0.00    +0.000 OA
ATOM      7  N   UNL     1       4.729   5.943  17.484  0.00  0.00    +0.000 N 
ENDROOT
BRANCH   4   8
ATOM      8  C   UNL     1       6.444   4.621  14.800  0.00  0.00    +0.000 A 
ATOM      9  C   UNL     1       7.572   5.193  14.184  0.00  0.00    +0.000 A 
ATOM     10  C   UNL     1       7.791   5.055  12.814  0.00  0.00    +0.000 A 
ATOM     11  C   UNL     1       6.877   4.353  12.032  0.00  0.00    +0.000 A 
ATOM     12  C   UNL     1       5.735   3.816  12.622  0.00  0.00    +0.000 A 
ATOM     13 CL   UNL     1       4.606   2.952  11.651  0.00  0.00    +0.000 Cl
ATOM     14  C   UNL     1       5.508   3.950  13.992  0.00  0.00    +0.000 A 
ENDBRANCH   4   8
BRANCH   7  15
ATOM     15  C   UNL     1       4.072   7.076  18.092  0.00  0.00    +0.000 C 
BRANCH  15  16
ATOM     16  N   UNL     1       2.618   6.874  18.046  0.00  0.00    +0.000 NA
ATOM     17  C   UNL     1       1.972   6.652  19.349  0.00  0.00    +0.000 C 
ATOM     18  C   UNL     1       1.906   7.870  20.291  0.00  0.00    +0.000 C 
ATOM     19  N   UNL     1       1.345   9.072  19.654  0.00  0.00    +0.000 N 
ATOM     20  C   UNL     1       1.710   9.300  18.234  0.00  0.00    +0.000 C 
ATOM     21  C   UNL     1       1.920   8.001  17.405  0.00  0.00    +0.000 C 
BRANCH  19  22
ATOM     22  C   UNL     1       0.856  10.136  20.442  0.00  0.00    +0.000 A 
ATOM     23  C   UNL     1       1.243  11.460  20.117  0.00  0.00    +0.000 A 
ATOM     24  C   UNL     1       0.697  12.602  20.726  0.00  0.00    +0.000 A 
ATOM     25  C   UNL     1      -0.269  12.475  21.707  0.00  0.00    +0.000 A 
ATOM     26  C   UNL     1      -0.644  11.202  22.111  0.00  0.00    +0.000 A 
ATOM     27  C   UNL     1      -0.084  10.052  21.511  0.00  0.00    +0.000 A 
ATOM     28 CL   UNL     1      -0.593   8.579  22.285  0.00  0.00    +0.000 Cl
ENDBRANCH  19  22
ENDBRANCH  15  16
ENDBRANCH   7  15
TORSDOF 4
ENDMDL
MODEL 4
REMARK VINA RESULT:      -7.3      2.596      3.869
REMARK  Name = 
REMARK  4 active torsions:
REMARK  status: ('A' for Active; 'I' for Inactive)
REMARK    1  A    between atoms: C_4  and  C_5
REMARK    2  A    between atoms: N_14  and  C_15
REMARK    3  A    between atoms: C_15  and  N_16
REMARK    4  A    between atoms: N_19  and  C_20
REMARK                            x       y       z     vdW  Elec       q    Type
REMARK                         _______ _______ _______ _____ _____    ______ ____
ROOT
ATOM      1  O   UNL     1       0.576   3.569  17.984  0.00  0.00    +0.000 OA
ATOM      2  C   UNL     1       1.738   3.931  17.915  0.00  0.00    +0.000 C 
ATOM      3  C   UNL     1       2.724   3.475  16.880  0.00  0.00    +0.000 C 
ATOM      4  C   UNL     1       4.034   3.512  17.658  0.00  0.00    +0.000 C 
ATOM      5  C   UNL     1       3.687   4.345  18.878  0.00  0.00    +0.000 C 
ATOM      6  O   UNL     1       4.429   4.522  19.833  0.00  0.00    +0.000 OA
ATOM      7  N   UNL     1       2.386   4.773  18.758  0.00  0.00    +0.000 N 
ENDROOT
BRANCH   4   8
ATOM      8  C   UNL     1       5.212   4.095  16.902  0.00  0.00    +0.000 A 
ATOM      9  C   UNL     1       5.566   3.606  15.631  0.00  0.00    +0.000 A 
ATOM     10  C   UNL     1       6.553   4.229  14.870  0.00  0.00    +0.000 A 
ATOM     11  C   UNL     1       7.217   5.346  15.372  0.00  0.00    +0.000 A 
ATOM     12  C   UNL     1       6.905   5.817  16.645  0.00  0.00    +0.000 A 
ATOM     13 CL   UNL     1       7.731   7.196  17.265  0.00  0.00    +0.000 Cl
ATOM     14  C   UNL     1       5.919   5.200  17.415  0.00  0.00    +0.000 A 
ENDBRANCH   4   8
BRANCH   7  15
ATOM     15  C   UNL     1       1.720   5.601  19.734  0.00  0.00    +0.000 C 
BRANCH  15  16
ATOM     16  N   UNL     1       2.515   6.815  19.963  0.00  0.00    +0.000 NA
ATOM     17  C   UNL     1       2.839   7.593  18.757  0.00  0.00    +0.000 C 
ATOM     18  C   UNL     1       1.663   8.331  18.089  0.00  0.00    +0.000 C 
ATOM     19  N   UNL     1       0.886   9.160  19.025  0.00  0.00    +0.000 N 
ATOM     20  C   UNL     1       0.688   8.610  20.389  0.00  0.00    +0.000 C 
ATOM     21  C   UNL     1       1.864   7.736  20.910  0.00  0.00    +0.000 C 
BRANCH  19  22
ATOM     22  C   UNL     1       0.043  10.184  18.542  0.00  0.00    +0.000 A 
ATOM     23  C   UNL     1      -1.110   9.825  17.799  0.00  0.00    +0.000 A 
ATOM     24  C   UNL     1      -2.099  10.741  17.408  0.00  0.00    +0.000 A 
ATOM     25  C   UNL     1      -1.982  12.079  17.738  0.00  0.00    +0.000 A 
ATOM     26  C   UNL     1      -0.845  12.500  18.411  0.00  0.00    +0.000 A 
ATOM     27  C   UNL     1       0.161  11.583  18.791  0.00  0.00    +0.000 A 
ATOM     28 CL   UNL     1       1.553  12.364  19.483  0.00  0.00    +0.000 Cl
ENDBRANCH  19  22
ENDBRANCH  15  16
ENDBRANCH   7  15
TORSDOF 4
ENDMDL
MODEL 5
REMARK VINA RESULT:      -7.3      2.159      3.431
REMARK  Name = 
REMARK  4 active torsions:
REMARK  status: ('A' for Active; 'I' for Inactive)
REMARK    1  A    between atoms: C_4  and  C_5
REMARK    2  A    between atoms: N_14  and  C_15
REMARK    3  A    between atoms: C_15  and  N_16
REMARK    4  A    between atoms: N_19  and  C_20
REMARK                            x       y       z     vdW  Elec       q    Type
REMARK                         _______ _______ _______ _____ _____    ______ ____
ROOT
ATOM      1  O   UNL     1       0.863   3.370  18.692  0.00  0.00    +0.000 OA
ATOM      2  C   UNL     1       1.930   3.861  18.366  0.00  0.00    +0.000 C 
ATOM      3  C   UNL     1       2.866   3.290  17.342  0.00  0.00    +0.000 C 
ATOM      4  C   UNL     1       4.224   3.718  17.886  0.00  0.00    +0.000 C 
ATOM      5  C   UNL     1       3.867   4.788  18.900  0.00  0.00    +0.000 C 
ATOM      6  O   UNL     1       4.663   5.316  19.662  0.00  0.00    +0.000 OA
ATOM      7  N   UNL     1       2.506   4.980  18.870  0.00  0.00    +0.000 N 
ENDROOT
BRANCH   4   8
ATOM      8  C   UNL     1       5.196   4.238  16.844  0.00  0.00    +0.000 A 
ATOM      9  C   UNL     1       6.266   5.074  17.211  0.00  0.00    +0.000 A 
ATOM     10  C   UNL     1       7.243   5.439  16.287  0.00  0.00    +0.000 A 
ATOM     11  C   UNL     1       7.160   4.986  14.973  0.00  0.00    +0.000 A 
ATOM     12  C   UNL     1       6.084   4.191  14.585  0.00  0.00    +0.000 A 
ATOM     13 CL   UNL     1       5.983   3.636  12.958  0.00  0.00    +0.000 Cl
ATOM     14  C   UNL     1       5.101   3.821  15.503  0.00  0.00    +0.000 A 
ENDBRANCH   4   8
BRANCH   7  15
ATOM     15  C   UNL     1       1.812   5.937  19.699  0.00  0.00    +0.000 C 
BRANCH  15  16
ATOM     16  N   UNL     1       2.528   7.219  19.663  0.00  0.00    +0.000 NA
ATOM     17  C   UNL     1       2.497   7.920  18.370  0.00  0.00    +0.000 C 
ATOM     18  C   UNL     1       1.138   8.516  17.953  0.00  0.00    +0.000 C 
ATOM     19  N   UNL     1       0.526   9.358  18.993  0.00  0.00    +0.000 N 
ATOM     20  C   UNL     1       0.694   8.905  20.395  0.00  0.00    +0.000 C 
ATOM     21  C   UNL     1       2.031   8.162  20.678  0.00  0.00    +0.000 C 
BRANCH  19  22
ATOM     22  C   UNL     1      -0.493  10.276  18.660  0.00  0.00    +0.000 A 
ATOM     23  C   UNL     1      -1.365   9.969  17.585  0.00  0.00    +0.000 A 
ATOM     24  C   UNL     1      -2.505  10.725  17.268  0.00  0.00    +0.000 A 
ATOM     25  C   UNL     1      -2.832  11.843  18.014  0.00  0.00    +0.000 A 
ATOM     26  C   UNL     1      -1.983  12.228  19.041  0.00  0.00    +0.000 A 
ATOM     27  C   UNL     1      -0.825  11.479  19.351  0.00  0.00    +0.000 A 
ATOM     28 CL   UNL     1       0.158  12.240  20.568  0.00  0.00    +0.000 Cl
ENDBRANCH  19  22
ENDBRANCH  15  16
ENDBRANCH   7  15
TORSDOF 4
ENDMDL
MODEL 6
REMARK VINA RESULT:      -7.2      1.036      1.157
REMARK  Name = 
REMARK  4 active torsions:
REMARK  status: ('A' for Active; 'I' for Inactive)
REMARK    1  A    between atoms: C_4  and  C_5
REMARK    2  A    between atoms: N_14  and  C_15
REMARK    3  A    between atoms: C_15  and  N_16
REMARK    4  A    between atoms: N_19  and  C_20
REMARK                            x       y       z     vdW  Elec       q    Type
REMARK                         _______ _______ _______ _____ _____    ______ ____
ROOT
ATOM      1  O   UNL     1       4.327   4.101  19.026  0.00  0.00    +0.000 OA
ATOM      2  C   UNL     1       4.790   4.522  17.980  0.00  0.00    +0.000 C 
ATOM      3  C   UNL     1       5.418   3.676  16.912  0.00  0.00    +0.000 C 
ATOM      4  C   UNL     1       6.468   4.622  16.340  0.00  0.00    +0.000 C 
ATOM      5  C   UNL     1       6.038   5.975  16.873  0.00  0.00    +0.000 C 
ATOM      6  O   UNL     1       6.682   7.007  16.750  0.00  0.00    +0.000 OA
ATOM      7  N   UNL     1       4.870   5.815  17.580  0.00  0.00    +0.000 N 
ENDROOT
BRANCH   4   8
ATOM      8  C   UNL     1       6.571   4.624  14.827  0.00  0.00    +0.000 A 
ATOM      9  C   UNL     1       7.679   5.202  14.182  0.00  0.00    +0.000 A 
ATOM     10  C   UNL     1       7.852   5.084  12.804  0.00  0.00    +0.000 A 
ATOM     11  C   UNL     1       6.910   4.396  12.043  0.00  0.00    +0.000 A 
ATOM     12  C   UNL     1       5.787   3.853  12.663  0.00  0.00    +0.000 A 
ATOM     13 CL   UNL     1       4.623   3.006  11.717  0.00  0.00    +0.000 Cl
ATOM     14  C   UNL     1       5.606   3.967  14.041  0.00  0.00    +0.000 A 
ENDBRANCH   4   8
BRANCH   7  15
ATOM     15  C   UNL     1       4.164   6.899  18.221  0.00  0.00    +0.000 C 
BRANCH  15  16
ATOM     16  N   UNL     1       2.718   6.652  18.139  0.00  0.00    +0.000 NA
ATOM     17  C   UNL     1       2.027   6.523  19.432  0.00  0.00    +0.000 C 
ATOM     18  C   UNL     1       1.894   7.814  20.262  0.00  0.00    +0.000 C 
ATOM     19  N   UNL     1       1.327   8.941  19.502  0.00  0.00    +0.000 N 
ATOM     20  C   UNL     1       1.742   9.057  18.083  0.00  0.00    +0.000 C 
ATOM     21  C   UNL     1       2.018   7.699  17.377  0.00  0.00    +0.000 C 
BRANCH  19  22
ATOM     22  C   UNL     1       0.780  10.053  20.177  0.00  0.00    +0.000 A 
ATOM     23  C   UNL     1      -0.121   9.828  21.248  0.00  0.00    +0.000 A 
ATOM     24  C   UNL     1      -0.600  10.846  22.089  0.00  0.00    +0.000 A 
ATOM     25  C   UNL     1      -0.202  12.156  21.896  0.00  0.00    +0.000 A 
ATOM     26  C   UNL     1       0.631  12.447  20.826  0.00  0.00    +0.000 A 
ATOM     27  C   UNL     1       1.100  11.427  19.968  0.00  0.00    +0.000 A 
ATOM     28 CL   UNL     1       2.000  12.052  18.616  0.00  0.00    +0.000 Cl
ENDBRANCH  19  22
ENDBRANCH  15  16
ENDBRANCH   7  15
TORSDOF 4
ENDMDL
MODEL 7
REMARK VINA RESULT:      -7.1      4.184     11.070
REMARK  Name = 
REMARK  4 active torsions:
REMARK  status: ('A' for Active; 'I' for Inactive)
REMARK    1  A    between atoms: C_4  and  C_5
REMARK    2  A    between atoms: N_14  and  C_15
REMARK    3  A    between atoms: C_15  and  N_16
REMARK    4  A    between atoms: N_19  and  C_20
REMARK                            x       y       z     vdW  Elec       q    Type
REMARK                         _______ _______ _______ _____ _____    ______ ____
ROOT
ATOM      1  O   UNL     1      -1.568  11.346  17.930  0.00  0.00    +0.000 OA
ATOM      2  C   UNL     1      -1.659  11.590  19.121  0.00  0.00    +0.000 C 
ATOM      3  C   UNL     1      -2.443  12.726  19.712  0.00  0.00    +0.000 C 
ATOM      4  C   UNL     1      -1.621  13.061  20.951  0.00  0.00    +0.000 C 
ATOM      5  C   UNL     1      -0.728  11.845  21.112  0.00  0.00    +0.000 C 
ATOM      6  O   UNL     1       0.181  11.754  21.923  0.00  0.00    +0.000 OA
ATOM      7  N   UNL     1      -1.060  10.929  20.142  0.00  0.00    +0.000 N 
ENDROOT
BRANCH   4   8
ATOM      8  C   UNL     1      -2.432  13.328  22.204  0.00  0.00    +0.000 A 
ATOM      9  C   UNL     1      -3.605  12.600  22.472  0.00  0.00    +0.000 A 
ATOM     10  C   UNL     1      -4.276  12.739  23.685  0.00  0.00    +0.000 A 
ATOM     11  C   UNL     1      -3.794  13.620  24.649  0.00  0.00    +0.000 A 
ATOM     12  C   UNL     1      -2.656  14.378  24.382  0.00  0.00    +0.000 A 
ATOM     13 CL   UNL     1      -2.065  15.470  25.575  0.00  0.00    +0.000 Cl
ATOM     14  C   UNL     1      -1.978  14.246  23.170  0.00  0.00    +0.000 A 
ENDBRANCH   4   8
BRANCH   7  15
ATOM     15  C   UNL     1      -0.420   9.643  20.000  0.00  0.00    +0.000 C 
BRANCH  15  16
ATOM     16  N   UNL     1       1.038   9.823  20.013  0.00  0.00    +0.000 NA
ATOM     17  C   UNL     1       1.784   8.855  20.832  0.00  0.00    +0.000 C 
ATOM     18  C   UNL     1       1.834   7.410  20.299  0.00  0.00    +0.000 C 
ATOM     19  N   UNL     1       2.272   7.320  18.896  0.00  0.00    +0.000 N 
ATOM     20  C   UNL     1       1.797   8.389  17.985  0.00  0.00    +0.000 C 
ATOM     21  C   UNL     1       1.616   9.779  18.659  0.00  0.00    +0.000 C 
BRANCH  19  22
ATOM     22  C   UNL     1       2.743   6.097  18.373  0.00  0.00    +0.000 A 
ATOM     23  C   UNL     1       1.961   4.929  18.556  0.00  0.00    +0.000 A 
ATOM     24  C   UNL     1       2.248   3.696  17.946  0.00  0.00    +0.000 A 
ATOM     25  C   UNL     1       3.348   3.567  17.118  0.00  0.00    +0.000 A 
ATOM     26  C   UNL     1       4.185   4.660  16.949  0.00  0.00    +0.000 A 
ATOM     27  C   UNL     1       3.908   5.896  17.575  0.00  0.00    +0.000 A 
ATOM     28 CL   UNL     1       5.175   7.064  17.340  0.00  0.00    +0.000 Cl
ENDBRANCH  19  22
ENDBRANCH  15  16
ENDBRANCH   7  15
TORSDOF 4
ENDMDL
MODEL 8
REMARK VINA RESULT:      -7.0      3.574      5.662
REMARK  Name = 
REMARK  4 active torsions:
REMARK  status: ('A' for Active; 'I' for Inactive)
REMARK    1  A    between atoms: C_4  and  C_5
REMARK    2  A    between atoms: N_14  and  C_15
REMARK    3  A    between atoms: C_15  and  N_16
REMARK    4  A    between atoms: N_19  and  C_20
REMARK                            x       y       z     vdW  Elec       q    Type
REMARK                         _______ _______ _______ _____ _____    ______ ____
ROOT
ATOM      1  O   UNL     1       0.925   9.833  17.815  0.00  0.00    +0.000 OA
ATOM      2  C   UNL     1       1.655   8.963  18.258  0.00  0.00    +0.000 C 
ATOM      3  C   UNL     1       2.526   8.063  17.432  0.00  0.00    +0.000 C 
ATOM      4  C   UNL     1       2.528   6.783  18.259  0.00  0.00    +0.000 C 
ATOM      5  C   UNL     1       2.001   7.243  19.606  0.00  0.00    +0.000 C 
ATOM      6  O   UNL     1       1.728   6.498  20.536  0.00  0.00    +0.000 OA
ATOM      7  N   UNL     1       1.805   8.603  19.557  0.00  0.00    +0.000 N 
ENDROOT
BRANCH   4   8
ATOM      8  C   UNL     1       3.879   6.107  18.389  0.00  0.00    +0.000 A 
ATOM      9  C   UNL     1       3.983   4.798  18.893  0.00  0.00    +0.000 A 
ATOM     10  C   UNL     1       5.200   4.118  18.883  0.00  0.00    +0.000 A 
ATOM     11  C   UNL     1       6.340   4.742  18.380  0.00  0.00    +0.000 A 
ATOM     12  C   UNL     1       6.260   6.052  17.916  0.00  0.00    +0.000 A 
ATOM     13 CL   UNL     1       7.672   6.821  17.299  0.00  0.00    +0.000 Cl
ATOM     14  C   UNL     1       5.046   6.740  17.923  0.00  0.00    +0.000 A 
ENDBRANCH   4   8
BRANCH   7  15
ATOM     15  C   UNL     1       1.320   9.384  20.669  0.00  0.00    +0.000 C 
BRANCH  15  16
ATOM     16  N   UNL     1      -0.098   9.074  20.897  0.00  0.00    +0.000 NA
ATOM     17  C   UNL     1      -0.516   9.048  22.308  0.00  0.00    +0.000 C 
ATOM     18  C   UNL     1      -0.561  10.409  23.028  0.00  0.00    +0.000 C 
ATOM     19  N   UNL     1      -1.329  11.432  22.298  0.00  0.00    +0.000 N 
ATOM     20  C   UNL     1      -1.204  11.422  20.820  0.00  0.00    +0.000 C 
ATOM     21  C   UNL     1      -0.992  10.013  20.199  0.00  0.00    +0.000 C 
BRANCH  19  22
ATOM     22  C   UNL     1      -1.798  12.584  22.965  0.00  0.00    +0.000 A 
ATOM     23  C   UNL     1      -3.047  12.526  23.631  0.00  0.00    +0.000 A 
ATOM     24  C   UNL     1      -3.537  13.552  24.456  0.00  0.00    +0.000 A 
ATOM     25  C   UNL     1      -2.797  14.703  24.653  0.00  0.00    +0.000 A 
ATOM     26  C   UNL     1      -1.593  14.843  23.978  0.00  0.00    +0.000 A 
ATOM     27  C   UNL     1      -1.106  13.819  23.134  0.00  0.00    +0.000 A 
ATOM     28 CL   UNL     1       0.338  14.285  22.283  0.00  0.00    +0.000 Cl
ENDBRANCH  19  22
ENDBRANCH  15  16
ENDBRANCH   7  15
TORSDOF 4
ENDMDL
MODEL 9
REMARK VINA RESULT:      -7.0      4.300     11.193
REMARK  Name = 
REMARK  4 active torsions:
REMARK  status: ('A' for Active; 'I' for Inactive)
REMARK    1  A    between atoms: C_4  and  C_5
REMARK    2  A    between atoms: N_14  and  C_15
REMARK    3  A    between atoms: C_15  and  N_16
REMARK    4  A    between atoms: N_19  and  C_20
REMARK                            x       y       z     vdW  Elec       q    Type
REMARK                         _______ _______ _______ _____ _____    ______ ____
ROOT
ATOM      1  O   UNL     1      -0.752  12.464  18.367  0.00  0.00    +0.000 OA
ATOM      2  C   UNL     1      -1.325  12.242  19.420  0.00  0.00    +0.000 C 
ATOM      3  C   UNL     1      -2.307  13.167  20.079  0.00  0.00    +0.000 C 
ATOM      4  C   UNL     1      -2.067  12.876  21.556  0.00  0.00    +0.000 C 
ATOM      5  C   UNL     1      -1.289  11.574  21.529  0.00  0.00    +0.000 C 
ATOM      6  O   UNL     1      -0.786  11.044  22.508  0.00  0.00    +0.000 OA
ATOM      7  N   UNL     1      -1.177  11.160  20.222  0.00  0.00    +0.000 N 
ENDROOT
BRANCH   4   8
ATOM      8  C   UNL     1      -3.323  12.758  22.397  0.00  0.00    +0.000 A 
ATOM      9  C   UNL     1      -3.248  12.427  23.762  0.00  0.00    +0.000 A 
ATOM     10  C   UNL     1      -4.381  12.456  24.573  0.00  0.00    +0.000 A 
ATOM     11  C   UNL     1      -5.615  12.804  24.030  0.00  0.00    +0.000 A 
ATOM     12  C   UNL     1      -5.712  13.096  22.671  0.00  0.00    +0.000 A 
ATOM     13 CL   UNL     1      -7.240  13.522  22.002  0.00  0.00    +0.000 Cl
ATOM     14  C   UNL     1      -4.583  13.068  21.852  0.00  0.00    +0.000 A 
ENDBRANCH   4   8
BRANCH   7  15
ATOM     15  C   UNL     1      -0.505   9.947  19.819  0.00  0.00    +0.000 C 
BRANCH  15  16
ATOM     16  N   UNL     1       0.942  10.107  20.013  0.00  0.00    +0.000 NA
ATOM     17  C   UNL     1       1.570   9.123  20.908  0.00  0.00    +0.000 C 
ATOM     18  C   UNL     1       1.668   7.682  20.370  0.00  0.00    +0.000 C 
ATOM     19  N   UNL     1       2.273   7.598  19.031  0.00  0.00    +0.000 N 
ATOM     20  C   UNL     1       1.927   8.681  18.079  0.00  0.00    +0.000 C 
ATOM     21  C   UNL     1       1.681  10.067  18.740  0.00  0.00    +0.000 C 
BRANCH  19  22
ATOM     22  C   UNL     1       2.790   6.373  18.557  0.00  0.00    +0.000 A 
ATOM     23  C   UNL     1       3.803   6.397  17.566  0.00  0.00    +0.000 A 
ATOM     24  C   UNL     1       4.500   5.255  17.138  0.00  0.00    +0.000 A 
ATOM     25  C   UNL     1       4.211   4.016  17.681  0.00  0.00    +0.000 A 
ATOM     26  C   UNL     1       3.187   3.921  18.611  0.00  0.00    +0.000 A 
ATOM     27  C   UNL     1       2.473   5.066  19.031  0.00  0.00    +0.000 A 
ATOM     28 CL   UNL     1       1.142   4.676  20.082  0.00  0.00    +0.000 Cl
ENDBRANCH  19  22
ENDBRANCH  15  16
ENDBRANCH   7  15
TORSDOF 4
ENDMDL
