MODEL 1
REMARK VINA RESULT:      -8.1      0.000      0.000
REMARK  Name = 
REMARK  5 active torsions:
REMARK  status: ('A' for Active; 'I' for Inactive)
REMARK    1  A    between atoms: C_1  and  O_2
REMARK    2  A    between atoms: O_2  and  C_3
REMARK    3  A    between atoms: C_7  and  N_8
REMARK    4  A    between atoms: N_17  and  C_18
REMARK    5  A    between atoms: C_18  and  C_19
REMARK                            x       y       z     vdW  Elec       q    Type
REMARK                         _______ _______ _______ _____ _____    ______ ____
ROOT
ATOM      1  N   UNL     1       1.536   6.800  21.189  0.00  0.00    +0.000 N 
ATOM      2  C   UNL     1       1.826   5.646  20.464  0.00  0.00    +0.000 A 
ATOM      3  N   UNL     1       1.361   4.487  20.943  0.00  0.00    +0.000 NA
ATOM      4  C   UNL     1       1.714   3.369  20.266  0.00  0.00    +0.000 A 
ATOM      5  C   UNL     1       2.541   3.353  19.164  0.00  0.00    +0.000 A 
ATOM      6  N   UNL     1       2.898   2.149  18.535  0.00  0.00    +0.000 NA
ATOM      7  C   UNL     1       3.749   2.237  17.560  0.00  0.00    +0.000 A 
ATOM      8  C   UNL     1       4.347   3.535  17.067  0.00  0.00    +0.000 A 
ATOM      9  O   UNL     1       5.158   3.463  16.154  0.00  0.00    +0.000 OA
ATOM     10  N   UNL     1       3.887   4.686  17.677  0.00  0.00    +0.000 N 
ATOM     11  C   UNL     1       2.979   4.605  18.760  0.00  0.00    +0.000 A 
ATOM     12  N   UNL     1       2.593   5.742  19.367  0.00  0.00    +0.000 NA
ATOM     13  H   UNL     1       0.938   6.576  21.975  0.00  0.00    +0.000 HD
ENDROOT
BRANCH   1  18
ATOM     14  C   UNL     1       0.847  10.461  20.996  0.00  0.00    +0.000 A 
ATOM     15  C   UNL     1       1.061  10.680  19.636  0.00  0.00    +0.000 A 
ATOM     16  C   UNL     1       1.452   9.631  18.803  0.00  0.00    +0.000 A 
ATOM     17  C   UNL     1       1.625   8.351  19.329  0.00  0.00    +0.000 A 
ATOM     18  C   UNL     1       1.388   8.104  20.686  0.00  0.00    +0.000 A 
ATOM     19  C   UNL     1       1.016   9.176  21.512  0.00  0.00    +0.000 A 
BRANCH  14  21
ATOM     20  C   UNL     1      -0.725  11.446  22.481  0.00  0.00    +0.000 C 
ATOM     21  O   UNL     1       0.468  11.563  21.713  0.00  0.00    +0.000 OA
ENDBRANCH  14  21
ENDBRANCH   1  18
BRANCH  10  22
ATOM     22  C   UNL     1       4.338   5.989  17.206  0.00  0.00    +0.000 C 
BRANCH  22  23
ATOM     23  C   UNL     1       5.711   6.332  17.711  0.00  0.00    +0.000 A 
ATOM     24  C   UNL     1       6.588   7.287  17.227  0.00  0.00    +0.000 A 
ATOM     25  C   UNL     1       7.843   7.271  17.896  0.00  0.00    +0.000 A 
ATOM     26  C   UNL     1       7.891   6.301  18.872  0.00  0.00    +0.000 A 
ATOM     27  S   UNL     1       6.418   5.440  18.995  0.00  0.00    +0.000 S 
ENDBRANCH  22  23
ENDBRANCH  10  22
TORSDOF 4
ENDMDL
MODEL 2
REMARK VINA RESULT:      -7.8      0.992      1.675
REMARK  Name = 
REMARK  5 active torsions:
REMARK  status: ('A' for Active; 'I' for Inactive)
REMARK    1  A    between atoms: C_1  and  O_2
REMARK    2  A    between atoms: O_2  and  C_3
REMARK    3  A    between atoms: C_7  and  N_8
REMARK    4  A    between atoms: N_17  and  C_18
REMARK    5  A    between atoms: C_18  and  C_19
REMARK                            x       y       z     vdW  Elec       q    Type
REMARK                         _______ _______ _______ _____ _____    ______ ____
ROOT
ATOM      1  N   UNL     1       1.445   6.523  21.285  0.00  0.00    +0.000 N 
ATOM      2  C   UNL     1       1.780   5.400  20.529  0.00  0.00    +0.000 A 
ATOM      3  N   UNL     1       1.367   4.211  20.980  0.00  0.00    +0.000 NA
ATOM      4  C   UNL     1       1.763   3.127  20.274  0.00  0.00    +0.000 A 
ATOM      5  C   UNL     1       2.583   3.174  19.167  0.00  0.00    +0.000 A 
ATOM      6  N   UNL     1       2.986   2.002  18.505  0.00  0.00    +0.000 NA
ATOM      7  C   UNL     1       3.826   2.151  17.528  0.00  0.00    +0.000 A 
ATOM      8  C   UNL     1       4.365   3.485  17.065  0.00  0.00    +0.000 A 
ATOM      9  O   UNL     1       5.173   3.471  16.146  0.00  0.00    +0.000 OA
ATOM     10  N   UNL     1       3.862   4.600  17.707  0.00  0.00    +0.000 N 
ATOM     11  C   UNL     1       2.965   4.453  18.792  0.00  0.00    +0.000 A 
ATOM     12  N   UNL     1       2.535   5.556  19.431  0.00  0.00    +0.000 NA
ATOM     13  H   UNL     1       0.863   6.253  22.067  0.00  0.00    +0.000 HD
ENDROOT
BRANCH   1  18
ATOM     14  C   UNL     1       1.549   9.567  19.132  0.00  0.00    +0.000 A 
ATOM     15  C   UNL     1       0.846  10.462  19.937  0.00  0.00    +0.000 A 
ATOM     16  C   UNL     1       0.325  10.051  21.164  0.00  0.00    +0.000 A 
ATOM     17  C   UNL     1       0.513   8.737  21.596  0.00  0.00    +0.000 A 
ATOM     18  C   UNL     1       1.239   7.831  20.816  0.00  0.00    +0.000 A 
ATOM     19  C   UNL     1       1.738   8.258  19.575  0.00  0.00    +0.000 A 
BRANCH  14  21
ATOM     20  C   UNL     1       2.351  11.463  17.946  0.00  0.00    +0.000 C 
ATOM     21  O   UNL     1       2.012  10.082  17.951  0.00  0.00    +0.000 OA
ENDBRANCH  14  21
ENDBRANCH   1  18
BRANCH  10  22
ATOM     22  C   UNL     1       4.254   5.932  17.267  0.00  0.00    +0.000 C 
BRANCH  22  23
ATOM     23  C   UNL     1       5.639   6.297  17.721  0.00  0.00    +0.000 A 
ATOM     24  C   UNL     1       6.496   7.240  17.185  0.00  0.00    +0.000 A 
ATOM     25  C   UNL     1       7.770   7.250  17.817  0.00  0.00    +0.000 A 
ATOM     26  C   UNL     1       7.852   6.309  18.819  0.00  0.00    +0.000 A 
ATOM     27  S   UNL     1       6.388   5.445  19.009  0.00  0.00    +0.000 S 
ENDBRANCH  22  23
ENDBRANCH  10  22
TORSDOF 4
ENDMDL
MODEL 3
REMARK VINA RESULT:      -7.7      4.836      7.656
REMARK  Name = 
REMARK  5 active torsions:
REMARK  status: ('A' for Active; 'I' for Inactive)
REMARK    1  A    between atoms: C_1  and  O_2
REMARK    2  A    between atoms: O_2  and  C_3
REMARK    3  A    between atoms: C_7  and  N_8
REMARK    4  A    between atoms: N_17  and  C_18
REMARK    5  A    between atoms: C_18  and  C_19
REMARK                            x       y       z     vdW  Elec       q    Type
REMARK                         _______ _______ _______ _____ _____    ______ ____
ROOT
ATOM      1  N   UNL     1      -1.462  12.187  23.230  0.00  0.00    +0.000 N 
ATOM      2  C   UNL     1      -0.762  11.150  22.616  0.00  0.00    +0.000 A 
ATOM      3  N   UNL     1      -0.217  10.222  23.411  0.00  0.00    +0.000 NA
ATOM      4  C   UNL     1       0.521   9.264  22.803  0.00  0.00    +0.000 A 
ATOM      5  C   UNL     1       0.772   9.215  21.449  0.00  0.00    +0.000 A 
ATOM      6  N   UNL     1       1.581   8.211  20.891  0.00  0.00    +0.000 NA
ATOM      7  C   UNL     1       1.826   8.306  19.621  0.00  0.00    +0.000 A 
ATOM      8  C   UNL     1       1.284   9.400  18.730  0.00  0.00    +0.000 A 
ATOM      9  O   UNL     1       1.619   9.378  17.553  0.00  0.00    +0.000 OA
ATOM     10  N   UNL     1       0.429  10.305  19.329  0.00  0.00    +0.000 N 
ATOM     11  C   UNL     1       0.174  10.231  20.720  0.00  0.00    +0.000 A 
ATOM     12  N   UNL     1      -0.621  11.159  21.282  0.00  0.00    +0.000 NA
ATOM     13  H   UNL     1      -1.500  12.036  24.230  0.00  0.00    +0.000 HD
ENDROOT
BRANCH   1  18
ATOM     14  C   UNL     1      -4.937  13.286  22.437  0.00  0.00    +0.000 A 
ATOM     15  C   UNL     1      -4.668  14.356  21.585  0.00  0.00    +0.000 A 
ATOM     16  C   UNL     1      -3.352  14.720  21.299  0.00  0.00    +0.000 A 
ATOM     17  C   UNL     1      -2.293  14.006  21.863  0.00  0.00    +0.000 A 
ATOM     18  C   UNL     1      -2.542  12.912  22.699  0.00  0.00    +0.000 A 
ATOM     19  C   UNL     1      -3.872  12.575  22.991  0.00  0.00    +0.000 A 
BRANCH  14  21
ATOM     20  C   UNL     1      -6.639  12.633  23.961  0.00  0.00    +0.000 C 
ATOM     21  O   UNL     1      -6.264  13.023  22.645  0.00  0.00    +0.000 OA
ENDBRANCH  14  21
ENDBRANCH   1  18
BRANCH  10  22
ATOM     22  C   UNL     1      -0.214  11.339  18.529  0.00  0.00    +0.000 C 
BRANCH  22  23
ATOM     23  C   UNL     1      -1.565  10.913  18.028  0.00  0.00    +0.000 A 
ATOM     24  C   UNL     1      -1.863   9.952  17.078  0.00  0.00    +0.000 A 
ATOM     25  C   UNL     1      -3.254   9.881  16.785  0.00  0.00    +0.000 A 
ATOM     26  C   UNL     1      -3.979  10.792  17.518  0.00  0.00    +0.000 A 
ATOM     27  S   UNL     1      -2.987  11.703  18.573  0.00  0.00    +0.000 S 
ENDBRANCH  22  23
ENDBRANCH  10  22
TORSDOF 4
ENDMDL
MODEL 4
REMARK VINA RESULT:      -7.6      2.719      5.923
REMARK  Name = 
REMARK  5 active torsions:
REMARK  status: ('A' for Active; 'I' for Inactive)
REMARK    1  A    between atoms: C_1  and  O_2
REMARK    2  A    between atoms: O_2  and  C_3
REMARK    3  A    between atoms: C_7  and  N_8
REMARK    4  A    between atoms: N_17  and  C_18
REMARK    5  A    between atoms: C_18  and  C_19
REMARK                            x       y       z     vdW  Elec       q    Type
REMARK                         _______ _______ _______ _____ _____    ______ ____
ROOT
ATOM      1  N   UNL     1       6.115   5.641  16.491  0.00  0.00    +0.000 N 
ATOM      2  C   UNL     1       5.076   4.807  16.900  0.00  0.00    +0.000 A 
ATOM      3  N   UNL     1       4.817   3.734  16.145  0.00  0.00    +0.000 NA
ATOM      4  C   UNL     1       3.758   2.976  16.515  0.00  0.00    +0.000 A 
ATOM      5  C   UNL     1       2.926   3.264  17.575  0.00  0.00    +0.000 A 
ATOM      6  N   UNL     1       1.820   2.452  17.879  0.00  0.00    +0.000 NA
ATOM      7  C   UNL     1       1.052   2.860  18.841  0.00  0.00    +0.000 A 
ATOM      8  C   UNL     1       1.289   4.118  19.645  0.00  0.00    +0.000 A 
ATOM      9  O   UNL     1       0.466   4.391  20.508  0.00  0.00    +0.000 OA
ATOM     10  N   UNL     1       2.440   4.822  19.348  0.00  0.00    +0.000 N 
ATOM     11  C   UNL     1       3.274   4.406  18.282  0.00  0.00    +0.000 A 
ATOM     12  N   UNL     1       4.359   5.143  17.983  0.00  0.00    +0.000 NA
ATOM     13  H   UNL     1       6.572   5.252  15.676  0.00  0.00    +0.000 HD
ENDROOT
BRANCH   1  18
ATOM     14  C   UNL     1       7.953   8.580  17.867  0.00  0.00    +0.000 A 
ATOM     15  C   UNL     1       8.618   7.978  18.934  0.00  0.00    +0.000 A 
ATOM     16  C   UNL     1       8.438   6.621  19.203  0.00  0.00    +0.000 A 
ATOM     17  C   UNL     1       7.592   5.856  18.400  0.00  0.00    +0.000 A 
ATOM     18  C   UNL     1       6.937   6.436  17.308  0.00  0.00    +0.000 A 
ATOM     19  C   UNL     1       7.114   7.806  17.065  0.00  0.00    +0.000 A 
BRANCH  14  21
ATOM     20  C   UNL     1       9.113  10.513  18.617  0.00  0.00    +0.000 C 
ATOM     21  O   UNL     1       8.205   9.915  17.699  0.00  0.00    +0.000 OA
ENDBRANCH  14  21
ENDBRANCH   1  18
BRANCH  10  22
ATOM     22  C   UNL     1       2.799   5.996  20.132  0.00  0.00    +0.000 C 
BRANCH  22  23
ATOM     23  C   UNL     1       2.186   7.254  19.585  0.00  0.00    +0.000 A 
ATOM     24  C   UNL     1       2.261   7.754  18.297  0.00  0.00    +0.000 A 
ATOM     25  C   UNL     1       1.634   9.024  18.162  0.00  0.00    +0.000 A 
ATOM     26  C   UNL     1       1.099   9.460  19.353  0.00  0.00    +0.000 A 
ATOM     27  S   UNL     1       1.329   8.327  20.614  0.00  0.00    +0.000 S 
ENDBRANCH  22  23
ENDBRANCH  10  22
TORSDOF 4
ENDMDL
MODEL 5
REMARK VINA RESULT:      -7.4      4.825      7.612
REMARK  Name = 
REMARK  5 active torsions:
REMARK  status: ('A' for Active; 'I' for Inactive)
REMARK    1  A    between atoms: C_1  and  O_2
REMARK    2  A    between atoms: O_2  and  C_3
REMARK    3  A    between atoms: C_7  and  N_8
REMARK    4  A    between atoms: N_17  and  C_18
REMARK    5  A    between atoms: C_18  and  C_19
REMARK                            x       y       z     vdW  Elec       q    Type
REMARK                         _______ _______ _______ _____ _____    ______ ____
ROOT
ATOM      1  N   UNL     1      -1.496  12.314  23.159  0.00  0.00    +0.000 N 
ATOM      2  C   UNL     1      -0.812  11.230  22.611  0.00  0.00    +0.000 A 
ATOM      3  N   UNL     1      -0.330  10.316  23.460  0.00  0.00    +0.000 NA
ATOM      4  C   UNL     1       0.394   9.310  22.917  0.00  0.00    +0.000 A 
ATOM      5  C   UNL     1       0.692   9.199  21.576  0.00  0.00    +0.000 A 
ATOM      6  N   UNL     1       1.484   8.147  21.087  0.00  0.00    +0.000 NA
ATOM      7  C   UNL     1       1.777   8.183  19.824  0.00  0.00    +0.000 A 
ATOM      8  C   UNL     1       1.307   9.260  18.873  0.00  0.00    +0.000 A 
ATOM      9  O   UNL     1       1.683   9.180  17.711  0.00  0.00    +0.000 OA
ATOM     10  N   UNL     1       0.464  10.217  19.405  0.00  0.00    +0.000 N 
ATOM     11  C   UNL     1       0.157  10.206  20.787  0.00  0.00    +0.000 A 
ATOM     12  N   UNL     1      -0.623  11.182  21.284  0.00  0.00    +0.000 NA
ATOM     13  H   UNL     1      -1.574  12.204  24.162  0.00  0.00    +0.000 HD
ENDROOT
BRANCH   1  18
ATOM     14  C   UNL     1      -3.312  14.984  21.293  0.00  0.00    +0.000 A 
ATOM     15  C   UNL     1      -4.623  14.528  21.423  0.00  0.00    +0.000 A 
ATOM     16  C   UNL     1      -4.893  13.338  22.099  0.00  0.00    +0.000 A 
ATOM     17  C   UNL     1      -3.849  12.600  22.657  0.00  0.00    +0.000 A 
ATOM     18  C   UNL     1      -2.529  13.055  22.561  0.00  0.00    +0.000 A 
ATOM     19  C   UNL     1      -2.275  14.244  21.860  0.00  0.00    +0.000 A 
BRANCH  14  21
ATOM     20  C   UNL     1      -1.876  16.758  20.631  0.00  0.00    +0.000 C 
ATOM     21  O   UNL     1      -3.168  16.161  20.609  0.00  0.00    +0.000 OA
ENDBRANCH  14  21
ENDBRANCH   1  18
BRANCH  10  22
ATOM     22  C   UNL     1      -0.112  11.240  18.543  0.00  0.00    +0.000 C 
BRANCH  22  23
ATOM     23  C   UNL     1      -1.476  10.858  18.041  0.00  0.00    +0.000 A 
ATOM     24  C   UNL     1      -1.805   9.905  17.094  0.00  0.00    +0.000 A 
ATOM     25  C   UNL     1      -3.197   9.880  16.798  0.00  0.00    +0.000 A 
ATOM     26  C   UNL     1      -3.892  10.819  17.525  0.00  0.00    +0.000 A 
ATOM     27  S   UNL     1      -2.871  11.700  18.578  0.00  0.00    +0.000 S 
ENDBRANCH  22  23
ENDBRANCH  10  22
TORSDOF 4
ENDMDL
MODEL 6
REMARK VINA RESULT:      -7.3      5.128      7.966
REMARK  Name = 
REMARK  5 active torsions:
REMARK  status: ('A' for Active; 'I' for Inactive)
REMARK    1  A    between atoms: C_1  and  O_2
REMARK    2  A    between atoms: O_2  and  C_3
REMARK    3  A    between atoms: C_7  and  N_8
REMARK    4  A    between atoms: N_17  and  C_18
REMARK    5  A    between atoms: C_18  and  C_19
REMARK                            x       y       z     vdW  Elec       q    Type
REMARK                         _______ _______ _______ _____ _____    ______ ____
ROOT
ATOM      1  N   UNL     1      -2.188  12.680  22.941  0.00  0.00    +0.000 N 
ATOM      2  C   UNL     1      -1.438  11.577  22.536  0.00  0.00    +0.000 A 
ATOM      3  N   UNL     1      -1.038  10.725  23.485  0.00  0.00    +0.000 NA
ATOM      4  C   UNL     1      -0.250   9.700  23.084  0.00  0.00    +0.000 A 
ATOM      5  C   UNL     1       0.189   9.515  21.790  0.00  0.00    +0.000 A 
ATOM      6  N   UNL     1       1.039   8.448  21.453  0.00  0.00    +0.000 NA
ATOM      7  C   UNL     1       1.463   8.414  20.227  0.00  0.00    +0.000 A 
ATOM      8  C   UNL     1       1.084   9.423  19.167  0.00  0.00    +0.000 A 
ATOM      9  O   UNL     1       1.580   9.280  18.058  0.00  0.00    +0.000 OA
ATOM     10  N   UNL     1       0.178  10.395  19.548  0.00  0.00    +0.000 N 
ATOM     11  C   UNL     1      -0.272  10.462  20.889  0.00  0.00    +0.000 A 
ATOM     12  N   UNL     1      -1.111  11.453  21.241  0.00  0.00    +0.000 NA
ATOM     13  H   UNL     1      -2.371  12.629  23.935  0.00  0.00    +0.000 HD
ENDROOT
BRANCH   1  18
ATOM     14  C   UNL     1      -5.319  13.440  21.062  0.00  0.00    +0.000 A 
ATOM     15  C   UNL     1      -5.057  14.751  20.667  0.00  0.00    +0.000 A 
ATOM     16  C   UNL     1      -3.868  15.378  21.041  0.00  0.00    +0.000 A 
ATOM     17  C   UNL     1      -2.930  14.691  21.811  0.00  0.00    +0.000 A 
ATOM     18  C   UNL     1      -3.162  13.365  22.194  0.00  0.00    +0.000 A 
ATOM     19  C   UNL     1      -4.372  12.758  21.826  0.00  0.00    +0.000 A 
BRANCH  14  21
ATOM     20  C   UNL     1      -6.617  11.512  20.568  0.00  0.00    +0.000 C 
ATOM     21  O   UNL     1      -6.516  12.929  20.637  0.00  0.00    +0.000 OA
ENDBRANCH  14  21
ENDBRANCH   1  18
BRANCH  10  22
ATOM     22  C   UNL     1      -0.315  11.354  18.569  0.00  0.00    +0.000 C 
BRANCH  22  23
ATOM     23  C   UNL     1      -1.600  10.905  17.931  0.00  0.00    +0.000 A 
ATOM     24  C   UNL     1      -1.784   9.924  16.974  0.00  0.00    +0.000 A 
ATOM     25  C   UNL     1      -3.133   9.833  16.531  0.00  0.00    +0.000 A 
ATOM     26  C   UNL     1      -3.941  10.752  17.160  0.00  0.00    +0.000 A 
ATOM     27  S   UNL     1      -3.079  11.693  18.299  0.00  0.00    +0.000 S 
ENDBRANCH  22  23
ENDBRANCH  10  22
TORSDOF 4
ENDMDL
MODEL 7
REMARK VINA RESULT:      -7.3      4.752      7.768
REMARK  Name = 
REMARK  5 active torsions:
REMARK  status: ('A' for Active; 'I' for Inactive)
REMARK    1  A    between atoms: C_1  and  O_2
REMARK    2  A    between atoms: O_2  and  C_3
REMARK    3  A    between atoms: C_7  and  N_8
REMARK    4  A    between atoms: N_17  and  C_18
REMARK    5  A    between atoms: C_18  and  C_19
REMARK                            x       y       z     vdW  Elec       q    Type
REMARK                         _______ _______ _______ _____ _____    ______ ____
ROOT
ATOM      1  N   UNL     1      -1.441  12.289  23.259  0.00  0.00    +0.000 N 
ATOM      2  C   UNL     1      -0.772  11.240  22.630  0.00  0.00    +0.000 A 
ATOM      3  N   UNL     1      -0.289  10.266  23.408  0.00  0.00    +0.000 NA
ATOM      4  C   UNL     1       0.421   9.294  22.788  0.00  0.00    +0.000 A 
ATOM      5  C   UNL     1       0.704   9.275  21.439  0.00  0.00    +0.000 A 
ATOM      6  N   UNL     1       1.482   8.253  20.870  0.00  0.00    +0.000 NA
ATOM      7  C   UNL     1       1.762   8.376  19.609  0.00  0.00    +0.000 A 
ATOM      8  C   UNL     1       1.293   9.520  18.740  0.00  0.00    +0.000 A 
ATOM      9  O   UNL     1       1.656   9.519  17.572  0.00  0.00    +0.000 OA
ATOM     10  N   UNL     1       0.463  10.444  19.347  0.00  0.00    +0.000 N 
ATOM     11  C   UNL     1       0.170  10.339  20.728  0.00  0.00    +0.000 A 
ATOM     12  N   UNL     1      -0.597  11.284  21.301  0.00  0.00    +0.000 NA
ATOM     13  H   UNL     1      -1.510  12.109  24.253  0.00  0.00    +0.000 HD
ENDROOT
BRANCH   1  18
ATOM     14  C   UNL     1      -4.728  13.320  21.832  0.00  0.00    +0.000 A 
ATOM     15  C   UNL     1      -4.492  14.678  21.623  0.00  0.00    +0.000 A 
ATOM     16  C   UNL     1      -3.266  15.244  21.974  0.00  0.00    +0.000 A 
ATOM     17  C   UNL     1      -2.265  14.449  22.534  0.00  0.00    +0.000 A 
ATOM     18  C   UNL     1      -2.473  13.078  22.726  0.00  0.00    +0.000 A 
ATOM     19  C   UNL     1      -3.720  12.531  22.385  0.00  0.00    +0.000 A 
BRANCH  14  21
ATOM     20  C   UNL     1      -7.008  13.845  21.415  0.00  0.00    +0.000 C 
ATOM     21  O   UNL     1      -5.966  12.877  21.450  0.00  0.00    +0.000 OA
ENDBRANCH  14  21
ENDBRANCH   1  18
BRANCH  10  22
ATOM     22  C   UNL     1      -0.112  11.530  18.565  0.00  0.00    +0.000 C 
BRANCH  22  23
ATOM     23  C   UNL     1      -1.560  11.292  18.241  0.00  0.00    +0.000 A 
ATOM     24  C   UNL     1      -2.670  11.937  18.757  0.00  0.00    +0.000 A 
ATOM     25  C   UNL     1      -3.895  11.384  18.289  0.00  0.00    +0.000 A 
ATOM     26  C   UNL     1      -3.685  10.329  17.429  0.00  0.00    +0.000 A 
ATOM     27  S   UNL     1      -2.020  10.033  17.170  0.00  0.00    +0.000 S 
ENDBRANCH  22  23
ENDBRANCH  10  22
TORSDOF 4
ENDMDL
MODEL 8
REMARK VINA RESULT:      -7.2      7.171     10.107
REMARK  Name = 
REMARK  5 active torsions:
REMARK  status: ('A' for Active; 'I' for Inactive)
REMARK    1  A    between atoms: C_1  and  O_2
REMARK    2  A    between atoms: O_2  and  C_3
REMARK    3  A    between atoms: C_7  and  N_8
REMARK    4  A    between atoms: N_17  and  C_18
REMARK    5  A    between atoms: C_18  and  C_19
REMARK                            x       y       z     vdW  Elec       q    Type
REMARK                         _______ _______ _______ _____ _____    ______ ____
ROOT
ATOM      1  N   UNL     1      -4.870  12.269  18.500  0.00  0.00    +0.000 N 
ATOM      2  C   UNL     1      -4.732  12.558  19.856  0.00  0.00    +0.000 A 
ATOM      3  N   UNL     1      -5.851  12.782  20.553  0.00  0.00    +0.000 NA
ATOM      4  C   UNL     1      -5.695  13.132  21.851  0.00  0.00    +0.000 A 
ATOM      5  C   UNL     1      -4.476  13.309  22.469  0.00  0.00    +0.000 A 
ATOM      6  N   UNL     1      -4.389  13.712  23.812  0.00  0.00    +0.000 NA
ATOM      7  C   UNL     1      -3.196  13.933  24.272  0.00  0.00    +0.000 A 
ATOM      8  C   UNL     1      -1.929  13.764  23.466  0.00  0.00    +0.000 A 
ATOM      9  O   UNL     1      -0.873  14.034  24.024  0.00  0.00    +0.000 OA
ATOM     10  N   UNL     1      -2.085  13.285  22.180  0.00  0.00    +0.000 N 
ATOM     11  C   UNL     1      -3.381  13.065  21.654  0.00  0.00    +0.000 A 
ATOM     12  N   UNL     1      -3.501  12.650  20.381  0.00  0.00    +0.000 NA
ATOM     13  H   UNL     1      -5.851  12.215  18.254  0.00  0.00    +0.000 HD
ENDROOT
BRANCH   1  18
ATOM     14  C   UNL     1      -3.238  10.708  15.532  0.00  0.00    +0.000 A 
ATOM     15  C   UNL     1      -2.330   9.862  16.167  0.00  0.00    +0.000 A 
ATOM     16  C   UNL     1      -2.247   9.831  17.559  0.00  0.00    +0.000 A 
ATOM     17  C   UNL     1      -3.080  10.646  18.326  0.00  0.00    +0.000 A 
ATOM     18  C   UNL     1      -4.017  11.481  17.708  0.00  0.00    +0.000 A 
ATOM     19  C   UNL     1      -4.072  11.514  16.306  0.00  0.00    +0.000 A 
BRANCH  14  21
ATOM     20  C   UNL     1      -4.172   9.779  13.554  0.00  0.00    +0.000 C 
ATOM     21  O   UNL     1      -3.230  10.654  14.164  0.00  0.00    +0.000 OA
ENDBRANCH  14  21
ENDBRANCH   1  18
BRANCH  10  22
ATOM     22  C   UNL     1      -0.914  13.004  21.361  0.00  0.00    +0.000 C 
BRANCH  22  23
ATOM     23  C   UNL     1      -0.526  11.553  21.402  0.00  0.00    +0.000 A 
ATOM     24  C   UNL     1      -0.024  10.770  20.377  0.00  0.00    +0.000 A 
ATOM     25  C   UNL     1       0.143   9.409  20.755  0.00  0.00    +0.000 A 
ATOM     26  C   UNL     1      -0.240   9.189  22.058  0.00  0.00    +0.000 A 
ATOM     27  S   UNL     1      -0.766  10.624  22.825  0.00  0.00    +0.000 S 
ENDBRANCH  22  23
ENDBRANCH  10  22
TORSDOF 4
ENDMDL
MODEL 9
REMARK VINA RESULT:      -7.1      7.401     10.366
REMARK  Name = 
REMARK  5 active torsions:
REMARK  status: ('A' for Active; 'I' for Inactive)
REMARK    1  A    between atoms: C_1  and  O_2
REMARK    2  A    between atoms: O_2  and  C_3
REMARK    3  A    between atoms: C_7  and  N_8
REMARK    4  A    between atoms: N_17  and  C_18
REMARK    5  A    between atoms: C_18  and  C_19
REMARK                            x       y       z     vdW  Elec       q    Type
REMARK                         _______ _______ _______ _____ _____    ______ ____
ROOT
ATOM      1  N   UNL     1      -4.557  12.543  18.876  0.00  0.00    +0.000 N 
ATOM      2  C   UNL     1      -4.514  12.949  20.209  0.00  0.00    +0.000 A 
ATOM      3  N   UNL     1      -5.674  13.272  20.790  0.00  0.00    +0.000 NA
ATOM      4  C   UNL     1      -5.605  13.733  22.061  0.00  0.00    +0.000 A 
ATOM      5  C   UNL     1      -4.432  13.925  22.758  0.00  0.00    +0.000 A 
ATOM      6  N   UNL     1      -4.433  14.446  24.063  0.00  0.00    +0.000 NA
ATOM      7  C   UNL     1      -3.272  14.668  24.597  0.00  0.00    +0.000 A 
ATOM      8  C   UNL     1      -1.953  14.386  23.914  0.00  0.00    +0.000 A 
ATOM      9  O   UNL     1      -0.935  14.671  24.530  0.00  0.00    +0.000 OA
ATOM     10  N   UNL     1      -2.028  13.797  22.666  0.00  0.00    +0.000 N 
ATOM     11  C   UNL     1      -3.287  13.573  22.058  0.00  0.00    +0.000 A 
ATOM     12  N   UNL     1      -3.324  13.048  20.821  0.00  0.00    +0.000 NA
ATOM     13  H   UNL     1      -5.517  12.499  18.558  0.00  0.00    +0.000 HD
ENDROOT
BRANCH   1  18
ATOM     14  C   UNL     1      -3.150  10.128  16.407  0.00  0.00    +0.000 A 
ATOM     15  C   UNL     1      -1.911   9.870  16.993  0.00  0.00    +0.000 A 
ATOM     16  C   UNL     1      -1.543  10.508  18.177  0.00  0.00    +0.000 A 
ATOM     17  C   UNL     1      -2.418  11.408  18.786  0.00  0.00    +0.000 A 
ATOM     18  C   UNL     1      -3.677  11.660  18.228  0.00  0.00    +0.000 A 
ATOM     19  C   UNL     1      -4.021  11.023  17.026  0.00  0.00    +0.000 A 
BRANCH  14  21
ATOM     20  C   UNL     1      -3.111  10.124  14.031  0.00  0.00    +0.000 C 
ATOM     21  O   UNL     1      -3.402   9.445  15.247  0.00  0.00    +0.000 OA
ENDBRANCH  14  21
ENDBRANCH   1  18
BRANCH  10  22
ATOM     22  C   UNL     1      -0.809  13.406  21.972  0.00  0.00    +0.000 C 
BRANCH  22  23
ATOM     23  C   UNL     1      -0.517  11.939  22.119  0.00  0.00    +0.000 A 
ATOM     24  C   UNL     1      -1.057  11.044  23.026  0.00  0.00    +0.000 A 
ATOM     25  C   UNL     1      -0.476   9.749  22.936  0.00  0.00    +0.000 A 
ATOM     26  C   UNL     1       0.496   9.691  21.963  0.00  0.00    +0.000 A 
ATOM     27  S   UNL     1       0.679  11.184  21.147  0.00  0.00    +0.000 S 
ENDBRANCH  22  23
ENDBRANCH  10  22
TORSDOF 4
ENDMDL
