MODEL 1
REMARK VINA RESULT:      -8.1      0.000      0.000
REMARK  Name = 
REMARK  8 active torsions:
REMARK  status: ('A' for Active; 'I' for Inactive)
REMARK    1  A    between atoms: C_1  and  C_2
REMARK    2  A    between atoms: N_7  and  C_8
REMARK    3  A    between atoms: C_8  and  C_9
REMARK    4  A    between atoms: C_9  and  C_10
REMARK    5  A    between atoms: C_9  and  N_11
REMARK    6  A    between atoms: C_12  and  C_14
REMARK    7  A    between atoms: C_17  and  C_18
REMARK    8  A    between atoms: N_25  and  C_26
REMARK                            x       y       z     vdW  Elec       q    Type
REMARK                         _______ _______ _______ _____ _____    ______ ____
ROOT
ATOM      1  N   UNL     1       1.127   9.239  19.576  0.00  0.00    +0.000 N 
ATOM      2  C   UNL     1       1.905   9.007  18.458  0.00  0.00    +0.000 C 
ATOM      3  O   UNL     1       1.986   9.822  17.543  0.00  0.00    +0.000 OA
ATOM      4  H   UNL     1       1.041   8.483  20.244  0.00  0.00    +0.000 HD
ENDROOT
BRANCH   2   5
ATOM      5  C   UNL     1       2.598   7.723  18.452  0.00  0.00    +0.000 A 
ATOM      6  C   UNL     1       3.494   7.216  17.498  0.00  0.00    +0.000 A 
ATOM      7  C   UNL     1       3.867   5.915  17.855  0.00  0.00    +0.000 A 
ATOM      8  C   UNL     1       4.644   4.864  17.342  0.00  0.00    +0.000 A 
ATOM      9  N   UNL     1       4.509   3.791  18.171  0.00  0.00    +0.000 NA
ATOM     10  N   UNL     1       3.678   4.210  19.158  0.00  0.00    +0.000 N 
ATOM     11  C   UNL     1       3.210   3.305  20.176  0.00  0.00    +0.000 C 
ATOM     12  C   UNL     1       3.299   5.488  18.983  0.00  0.00    +0.000 A 
ATOM     13  S   UNL     1       2.314   6.573  19.744  0.00  0.00    +0.000 S 
BRANCH   8  14
ATOM     14  C   UNL     1       5.469   4.764  16.133  0.00  0.00    +0.000 A 
ATOM     15  C   UNL     1       6.768   5.284  16.079  0.00  0.00    +0.000 A 
ATOM     16  C   UNL     1       7.535   5.168  14.911  0.00  0.00    +0.000 A 
ATOM     17  C   UNL     1       7.014   4.524  13.792  0.00  0.00    +0.000 A 
ATOM     18  C   UNL     1       5.733   3.991  13.834  0.00  0.00    +0.000 A 
ATOM     19  C   UNL     1       4.967   4.107  14.996  0.00  0.00    +0.000 A 
ENDBRANCH   8  14
ENDBRANCH   2   5
BRANCH   1  20
ATOM     20  C   UNL     1       0.290  10.421  19.755  0.00  0.00    +0.000 C 
ATOM     21  C   UNL     1       0.048  10.631  21.250  0.00  0.00    +0.000 C 
BRANCH  20  22
ATOM     22  C   UNL     1      -1.039  10.261  18.964  0.00  0.00    +0.000 C 
BRANCH  22  29
ATOM     23  C   UNL     1      -5.990  13.449  19.291  0.00  0.00    +0.000 C 
ATOM     24  C   UNL     1      -5.590  12.315  18.384  0.00  0.00    +0.000 C 
ATOM     25  O   UNL     1      -6.374  11.910  17.525  0.00  0.00    +0.000 OA
ATOM     26  N   UNL     1      -4.322  11.789  18.546  0.00  0.00    +0.000 N 
ATOM     27  C   UNL     1      -3.858  10.715  17.661  0.00  0.00    +0.000 C 
ATOM     28  C   UNL     1      -2.456  11.027  17.092  0.00  0.00    +0.000 C 
ATOM     29  N   UNL     1      -1.435  11.396  18.106  0.00  0.00    +0.000 NA
ATOM     30  C   UNL     1      -1.988  12.507  18.925  0.00  0.00    +0.000 C 
ATOM     31  C   UNL     1      -3.358  12.203  19.567  0.00  0.00    +0.000 C 
ENDBRANCH  22  29
ENDBRANCH  20  22
ENDBRANCH   1  20
TORSDOF 5
ENDMDL
MODEL 2
REMARK VINA RESULT:      -7.9      2.396      2.859
REMARK  Name = 
REMARK  8 active torsions:
REMARK  status: ('A' for Active; 'I' for Inactive)
REMARK    1  A    between atoms: C_1  and  C_2
REMARK    2  A    between atoms: N_7  and  C_8
REMARK    3  A    between atoms: C_8  and  C_9
REMARK    4  A    between atoms: C_9  and  C_10
REMARK    5  A    between atoms: C_9  and  N_11
REMARK    6  A    between atoms: C_12  and  C_14
REMARK    7  A    between atoms: C_17  and  C_18
REMARK    8  A    between atoms: N_25  and  C_26
REMARK                            x       y       z     vdW  Elec       q    Type
REMARK                         _______ _______ _______ _____ _____    ______ ____
ROOT
ATOM      1  N   UNL     1       0.999  10.205  19.630  0.00  0.00    +0.000 N 
ATOM      2  C   UNL     1       1.553   9.548  18.548  0.00  0.00    +0.000 C 
ATOM      3  O   UNL     1       1.531  10.025  17.417  0.00  0.00    +0.000 OA
ATOM      4  H   UNL     1       0.977   9.706  20.511  0.00  0.00    +0.000 HD
ENDROOT
BRANCH   2   5
ATOM      5  C   UNL     1       2.143   8.250  18.859  0.00  0.00    +0.000 A 
ATOM      6  C   UNL     1       3.144   7.554  18.163  0.00  0.00    +0.000 A 
ATOM      7  C   UNL     1       3.359   6.313  18.774  0.00  0.00    +0.000 A 
ATOM      8  C   UNL     1       4.131   5.158  18.570  0.00  0.00    +0.000 A 
ATOM      9  N   UNL     1       3.785   4.242  19.517  0.00  0.00    +0.000 NA
ATOM     10  N   UNL     1       2.836   4.853  20.269  0.00  0.00    +0.000 N 
ATOM     11  C   UNL     1       2.143   4.149  21.318  0.00  0.00    +0.000 C 
ATOM     12  C   UNL     1       2.584   6.102  19.839  0.00  0.00    +0.000 A 
ATOM     13  S   UNL     1       1.569   7.339  20.242  0.00  0.00    +0.000 S 
BRANCH   8  14
ATOM     14  C   UNL     1       5.133   4.826  17.551  0.00  0.00    +0.000 A 
ATOM     15  C   UNL     1       6.505   4.844  17.830  0.00  0.00    +0.000 A 
ATOM     16  C   UNL     1       7.439   4.515  16.837  0.00  0.00    +0.000 A 
ATOM     17  C   UNL     1       7.010   4.156  15.563  0.00  0.00    +0.000 A 
ATOM     18  C   UNL     1       5.653   4.119  15.274  0.00  0.00    +0.000 A 
ATOM     19  C   UNL     1       4.720   4.448  16.261  0.00  0.00    +0.000 A 
ENDBRANCH   8  14
ENDBRANCH   2   5
BRANCH   1  20
ATOM     20  C   UNL     1       0.290  11.477  19.535  0.00  0.00    +0.000 C 
ATOM     21  C   UNL     1       1.287  12.614  19.759  0.00  0.00    +0.000 C 
BRANCH  20  22
ATOM     22  C   UNL     1      -0.882  11.515  20.556  0.00  0.00    +0.000 C 
BRANCH  22  29
ATOM     23  C   UNL     1      -4.586  12.525  25.032  0.00  0.00    +0.000 C 
ATOM     24  C   UNL     1      -4.673  12.865  23.567  0.00  0.00    +0.000 C 
ATOM     25  O   UNL     1      -5.660  13.459  23.133  0.00  0.00    +0.000 OA
ATOM     26  N   UNL     1      -3.603  12.508  22.768  0.00  0.00    +0.000 N 
ATOM     27  C   UNL     1      -3.609  12.854  21.343  0.00  0.00    +0.000 C 
ATOM     28  C   UNL     1      -2.278  13.517  20.924  0.00  0.00    +0.000 C 
ATOM     29  N   UNL     1      -1.054  12.771  21.314  0.00  0.00    +0.000 NA
ATOM     30  C   UNL     1      -1.132  12.499  22.773  0.00  0.00    +0.000 C 
ATOM     31  C   UNL     1      -2.420  11.773  23.218  0.00  0.00    +0.000 C 
ENDBRANCH  22  29
ENDBRANCH  20  22
ENDBRANCH   1  20
TORSDOF 5
ENDMDL
MODEL 3
REMARK VINA RESULT:      -7.9      2.197      2.778
REMARK  Name = 
REMARK  8 active torsions:
REMARK  status: ('A' for Active; 'I' for Inactive)
REMARK    1  A    between atoms: C_1  and  C_2
REMARK    2  A    between atoms: N_7  and  C_8
REMARK    3  A    between atoms: C_8  and  C_9
REMARK    4  A    between atoms: C_9  and  C_10
REMARK    5  A    between atoms: C_9  and  N_11
REMARK    6  A    between atoms: C_12  and  C_14
REMARK    7  A    between atoms: C_17  and  C_18
REMARK    8  A    between atoms: N_25  and  C_26
REMARK                            x       y       z     vdW  Elec       q    Type
REMARK                         _______ _______ _______ _____ _____    ______ ____
ROOT
ATOM      1  N   UNL     1       1.081  10.002  20.062  0.00  0.00    +0.000 N 
ATOM      2  C   UNL     1       1.410   9.301  18.918  0.00  0.00    +0.000 C 
ATOM      3  O   UNL     1       1.184   9.745  17.796  0.00  0.00    +0.000 OA
ATOM      4  H   UNL     1       1.217   9.531  20.948  0.00  0.00    +0.000 HD
ENDROOT
BRANCH   2   5
ATOM      5  C   UNL     1       2.025   7.998  19.156  0.00  0.00    +0.000 A 
ATOM      6  C   UNL     1       3.027   7.355  18.412  0.00  0.00    +0.000 A 
ATOM      7  C   UNL     1       3.270   6.089  18.958  0.00  0.00    +0.000 A 
ATOM      8  C   UNL     1       4.057   4.958  18.687  0.00  0.00    +0.000 A 
ATOM      9  N   UNL     1       3.740   3.990  19.592  0.00  0.00    +0.000 NA
ATOM     10  N   UNL     1       2.792   4.548  20.387  0.00  0.00    +0.000 N 
ATOM     11  C   UNL     1       2.126   3.782  21.408  0.00  0.00    +0.000 C 
ATOM     12  C   UNL     1       2.514   5.813  20.022  0.00  0.00    +0.000 A 
ATOM     13  S   UNL     1       1.485   7.012  20.500  0.00  0.00    +0.000 S 
BRANCH   8  14
ATOM     14  C   UNL     1       5.049   4.693  17.639  0.00  0.00    +0.000 A 
ATOM     15  C   UNL     1       4.674   4.361  16.332  0.00  0.00    +0.000 A 
ATOM     16  C   UNL     1       5.645   4.119  15.351  0.00  0.00    +0.000 A 
ATOM     17  C   UNL     1       6.998   4.218  15.664  0.00  0.00    +0.000 A 
ATOM     18  C   UNL     1       7.387   4.559  16.952  0.00  0.00    +0.000 A 
ATOM     19  C   UNL     1       6.421   4.799  17.932  0.00  0.00    +0.000 A 
ENDBRANCH   8  14
ENDBRANCH   2   5
BRANCH   1  20
ATOM     20  C   UNL     1       0.390  11.287  20.059  0.00  0.00    +0.000 C 
ATOM     21  C   UNL     1       1.430  12.406  19.978  0.00  0.00    +0.000 C 
BRANCH  20  22
ATOM     22  C   UNL     1      -0.510  11.414  21.320  0.00  0.00    +0.000 C 
BRANCH  22  29
ATOM     23  C   UNL     1      -5.481  13.017  24.059  0.00  0.00    +0.000 C 
ATOM     24  C   UNL     1      -5.086  13.049  22.606  0.00  0.00    +0.000 C 
ATOM     25  O   UNL     1      -5.880  13.467  21.764  0.00  0.00    +0.000 OA
ATOM     26  N   UNL     1      -3.812  12.621  22.284  0.00  0.00    +0.000 N 
ATOM     27  C   UNL     1      -3.353  12.673  20.892  0.00  0.00    +0.000 C 
ATOM     28  C   UNL     1      -1.963  13.338  20.787  0.00  0.00    +0.000 C 
ATOM     29  N   UNL     1      -0.929  12.780  21.695  0.00  0.00    +0.000 NA
ATOM     30  C   UNL     1      -1.478  12.802  23.077  0.00  0.00    +0.000 C 
ATOM     31  C   UNL     1      -2.835  12.084  23.234  0.00  0.00    +0.000 C 
ENDBRANCH  22  29
ENDBRANCH  20  22
ENDBRANCH   1  20
TORSDOF 5
ENDMDL
MODEL 4
REMARK VINA RESULT:      -7.8      0.948      1.437
REMARK  Name = 
REMARK  8 active torsions:
REMARK  status: ('A' for Active; 'I' for Inactive)
REMARK    1  A    between atoms: C_1  and  C_2
REMARK    2  A    between atoms: N_7  and  C_8
REMARK    3  A    between atoms: C_8  and  C_9
REMARK    4  A    between atoms: C_9  and  C_10
REMARK    5  A    between atoms: C_9  and  N_11
REMARK    6  A    between atoms: C_12  and  C_14
REMARK    7  A    between atoms: C_17  and  C_18
REMARK    8  A    between atoms: N_25  and  C_26
REMARK                            x       y       z     vdW  Elec       q    Type
REMARK                         _______ _______ _______ _____ _____    ______ ____
ROOT
ATOM      1  N   UNL     1       0.619   9.387  20.322  0.00  0.00    +0.000 N 
ATOM      2  C   UNL     1       1.472   9.046  19.290  0.00  0.00    +0.000 C 
ATOM      3  O   UNL     1       1.677   9.799  18.342  0.00  0.00    +0.000 OA
ATOM      4  H   UNL     1       0.433   8.678  21.021  0.00  0.00    +0.000 HD
ENDROOT
BRANCH   2   5
ATOM      5  C   UNL     1       2.086   7.728  19.415  0.00  0.00    +0.000 A 
ATOM      6  C   UNL     1       3.079   7.145  18.612  0.00  0.00    +0.000 A 
ATOM      7  C   UNL     1       3.323   5.839  19.051  0.00  0.00    +0.000 A 
ATOM      8  C   UNL     1       4.105   4.733  18.680  0.00  0.00    +0.000 A 
ATOM      9  N   UNL     1       3.794   3.695  19.506  0.00  0.00    +0.000 NA
ATOM     10  N   UNL     1       2.856   4.188  20.353  0.00  0.00    +0.000 N 
ATOM     11  C   UNL     1       2.197   3.341  21.315  0.00  0.00    +0.000 C 
ATOM     12  C   UNL     1       2.577   5.478  20.095  0.00  0.00    +0.000 A 
ATOM     13  S   UNL     1       1.556   6.636  20.679  0.00  0.00    +0.000 S 
BRANCH   8  14
ATOM     14  C   UNL     1       5.087   4.552  17.605  0.00  0.00    +0.000 A 
ATOM     15  C   UNL     1       4.703   4.204  16.304  0.00  0.00    +0.000 A 
ATOM     16  C   UNL     1       5.664   4.044  15.296  0.00  0.00    +0.000 A 
ATOM     17  C   UNL     1       7.013   4.242  15.575  0.00  0.00    +0.000 A 
ATOM     18  C   UNL     1       7.409   4.601  16.857  0.00  0.00    +0.000 A 
ATOM     19  C   UNL     1       6.454   4.759  17.864  0.00  0.00    +0.000 A 
ENDBRANCH   8  14
ENDBRANCH   2   5
BRANCH   1  20
ATOM     20  C   UNL     1      -0.159  10.621  20.363  0.00  0.00    +0.000 C 
ATOM     21  C   UNL     1      -0.585  10.887  21.807  0.00  0.00    +0.000 C 
BRANCH  20  22
ATOM     22  C   UNL     1      -1.377  10.519  19.402  0.00  0.00    +0.000 C 
BRANCH  22  29
ATOM     23  C   UNL     1      -6.383  13.635  19.318  0.00  0.00    +0.000 C 
ATOM     24  C   UNL     1      -5.848  12.579  18.386  0.00  0.00    +0.000 C 
ATOM     25  O   UNL     1      -6.505  12.238  17.404  0.00  0.00    +0.000 OA
ATOM     26  N   UNL     1      -4.603  12.051  18.673  0.00  0.00    +0.000 N 
ATOM     27  C   UNL     1      -4.009  11.053  17.777  0.00  0.00    +0.000 C 
ATOM     28  C   UNL     1      -2.550  11.419  17.425  0.00  0.00    +0.000 C 
ATOM     29  N   UNL     1      -1.677  11.715  18.590  0.00  0.00    +0.000 NA
ATOM     30  C   UNL     1      -2.352  12.754  19.411  0.00  0.00    +0.000 C 
ATOM     31  C   UNL     1      -3.789  12.391  19.842  0.00  0.00    +0.000 C 
ENDBRANCH  22  29
ENDBRANCH  20  22
ENDBRANCH   1  20
TORSDOF 5
ENDMDL
MODEL 5
REMARK VINA RESULT:      -7.8      2.391      2.929
REMARK  Name = 
REMARK  8 active torsions:
REMARK  status: ('A' for Active; 'I' for Inactive)
REMARK    1  A    between atoms: C_1  and  C_2
REMARK    2  A    between atoms: N_7  and  C_8
REMARK    3  A    between atoms: C_8  and  C_9
REMARK    4  A    between atoms: C_9  and  C_10
REMARK    5  A    between atoms: C_9  and  N_11
REMARK    6  A    between atoms: C_12  and  C_14
REMARK    7  A    between atoms: C_17  and  C_18
REMARK    8  A    between atoms: N_25  and  C_26
REMARK                            x       y       z     vdW  Elec       q    Type
REMARK                         _______ _______ _______ _____ _____    ______ ____
ROOT
ATOM      1  N   UNL     1       1.678  10.967  19.320  0.00  0.00    +0.000 N 
ATOM      2  C   UNL     1       1.169   9.930  18.563  0.00  0.00    +0.000 C 
ATOM      3  O   UNL     1       0.230  10.092  17.788  0.00  0.00    +0.000 OA
ATOM      4  H   UNL     1       2.392  10.735  20.000  0.00  0.00    +0.000 HD
ENDROOT
BRANCH   2   5
ATOM      5  C   UNL     1       1.822   8.642  18.773  0.00  0.00    +0.000 A 
ATOM      6  C   UNL     1       2.694   7.953  17.915  0.00  0.00    +0.000 A 
ATOM      7  C   UNL     1       3.030   6.720  18.486  0.00  0.00    +0.000 A 
ATOM      8  C   UNL     1       3.771   5.574  18.156  0.00  0.00    +0.000 A 
ATOM      9  N   UNL     1       3.611   4.661  19.155  0.00  0.00    +0.000 NA
ATOM     10  N   UNL     1       2.801   5.267  20.060  0.00  0.00    +0.000 N 
ATOM     11  C   UNL     1       2.314   4.563  21.218  0.00  0.00    +0.000 C 
ATOM     12  C   UNL     1       2.459   6.509  19.672  0.00  0.00    +0.000 A 
ATOM     13  S   UNL     1       1.514   7.737  20.241  0.00  0.00    +0.000 S 
BRANCH   8  14
ATOM     14  C   UNL     1       4.581   5.245  16.979  0.00  0.00    +0.000 A 
ATOM     15  C   UNL     1       5.066   6.235  16.115  0.00  0.00    +0.000 A 
ATOM     16  C   UNL     1       5.844   5.890  15.001  0.00  0.00    +0.000 A 
ATOM     17  C   UNL     1       6.153   4.557  14.746  0.00  0.00    +0.000 A 
ATOM     18  C   UNL     1       5.691   3.565  15.601  0.00  0.00    +0.000 A 
ATOM     19  C   UNL     1       4.915   3.905  16.711  0.00  0.00    +0.000 A 
ENDBRANCH   8  14
ENDBRANCH   2   5
BRANCH   1  20
ATOM     20  C   UNL     1       1.128  12.319  19.326  0.00  0.00    +0.000 C 
ATOM     21  C   UNL     1       2.282  13.320  19.396  0.00  0.00    +0.000 C 
BRANCH  20  22
ATOM     22  C   UNL     1       0.134  12.487  20.510  0.00  0.00    +0.000 C 
BRANCH  22  29
ATOM     23  C   UNL     1      -5.274  13.254  22.733  0.00  0.00    +0.000 C 
ATOM     24  C   UNL     1      -4.032  12.637  23.319  0.00  0.00    +0.000 C 
ATOM     25  O   UNL     1      -4.052  12.185  24.464  0.00  0.00    +0.000 OA
ATOM     26  N   UNL     1      -2.909  12.582  22.514  0.00  0.00    +0.000 N 
ATOM     27  C   UNL     1      -1.683  11.950  23.012  0.00  0.00    +0.000 C 
ATOM     28  C   UNL     1      -1.114  10.948  21.984  0.00  0.00    +0.000 C 
ATOM     29  N   UNL     1      -0.947  11.486  20.609  0.00  0.00    +0.000 NA
ATOM     30  C   UNL     1      -2.247  12.071  20.189  0.00  0.00    +0.000 C 
ATOM     31  C   UNL     1      -2.812  13.130  21.160  0.00  0.00    +0.000 C 
ENDBRANCH  22  29
ENDBRANCH  20  22
ENDBRANCH   1  20
TORSDOF 5
ENDMDL
MODEL 6
REMARK VINA RESULT:      -7.7      0.978      1.379
REMARK  Name = 
REMARK  8 active torsions:
REMARK  status: ('A' for Active; 'I' for Inactive)
REMARK    1  A    between atoms: C_1  and  C_2
REMARK    2  A    between atoms: N_7  and  C_8
REMARK    3  A    between atoms: C_8  and  C_9
REMARK    4  A    between atoms: C_9  and  C_10
REMARK    5  A    between atoms: C_9  and  N_11
REMARK    6  A    between atoms: C_12  and  C_14
REMARK    7  A    between atoms: C_17  and  C_18
REMARK    8  A    between atoms: N_25  and  C_26
REMARK                            x       y       z     vdW  Elec       q    Type
REMARK                         _______ _______ _______ _____ _____    ______ ____
ROOT
ATOM      1  N   UNL     1       1.221   8.680  20.611  0.00  0.00    +0.000 N 
ATOM      2  C   UNL     1       1.861   8.527  19.396  0.00  0.00    +0.000 C 
ATOM      3  O   UNL     1       1.914   9.435  18.572  0.00  0.00    +0.000 OA
ATOM      4  H   UNL     1       1.142   7.858  21.198  0.00  0.00    +0.000 HD
ENDROOT
BRANCH   2   5
ATOM      5  C   UNL     1       2.445   7.208  19.175  0.00  0.00    +0.000 A 
ATOM      6  C   UNL     1       3.368   6.812  18.194  0.00  0.00    +0.000 A 
ATOM      7  C   UNL     1       3.604   5.437  18.306  0.00  0.00    +0.000 A 
ATOM      8  C   UNL     1       4.330   4.436  17.640  0.00  0.00    +0.000 A 
ATOM      9  N   UNL     1       4.043   3.240  18.228  0.00  0.00    +0.000 NA
ATOM     10  N   UNL     1       3.175   3.537  19.227  0.00  0.00    +0.000 N 
ATOM     11  C   UNL     1       2.556   2.501  20.013  0.00  0.00    +0.000 C 
ATOM     12  C   UNL     1       2.916   4.856  19.289  0.00  0.00    +0.000 A 
ATOM     13  S   UNL     1       1.967   5.862  20.191  0.00  0.00    +0.000 S 
BRANCH   8  14
ATOM     14  C   UNL     1       5.235   4.494  16.488  0.00  0.00    +0.000 A 
ATOM     15  C   UNL     1       4.850   4.039  15.221  0.00  0.00    +0.000 A 
ATOM     16  C   UNL     1       5.735   4.115  14.137  0.00  0.00    +0.000 A 
ATOM     17  C   UNL     1       7.008   4.653  14.306  0.00  0.00    +0.000 A 
ATOM     18  C   UNL     1       7.400   5.121  15.553  0.00  0.00    +0.000 A 
ATOM     19  C   UNL     1       6.520   5.046  16.635  0.00  0.00    +0.000 A 
ENDBRANCH   8  14
ENDBRANCH   2   5
BRANCH   1  20
ATOM     20  C   UNL     1       0.503   9.887  21.008  0.00  0.00    +0.000 C 
ATOM     21  C   UNL     1       0.227   9.824  22.510  0.00  0.00    +0.000 C 
BRANCH  20  22
ATOM     22  C   UNL     1      -0.804  10.031  20.178  0.00  0.00    +0.000 C 
BRANCH  22  29
ATOM     23  C   UNL     1      -5.557  12.680  17.906  0.00  0.00    +0.000 C 
ATOM     24  C   UNL     1      -4.661  11.598  17.362  0.00  0.00    +0.000 C 
ATOM     25  O   UNL     1      -4.884  11.118  16.251  0.00  0.00    +0.000 OA
ATOM     26  N   UNL     1      -3.591  11.207  18.145  0.00  0.00    +0.000 N 
ATOM     27  C   UNL     1      -2.656  10.192  17.649  0.00  0.00    +0.000 C 
ATOM     28  C   UNL     1      -1.191  10.652  17.819  0.00  0.00    +0.000 C 
ATOM     29  N   UNL     1      -0.835  11.122  19.183  0.00  0.00    +0.000 NA
ATOM     30  C   UNL     1      -1.818  12.165  19.576  0.00  0.00    +0.000 C 
ATOM     31  C   UNL     1      -3.293  11.716  19.485  0.00  0.00    +0.000 C 
ENDBRANCH  22  29
ENDBRANCH  20  22
ENDBRANCH   1  20
TORSDOF 5
ENDMDL
MODEL 7
REMARK VINA RESULT:      -7.6      2.389      2.988
REMARK  Name = 
REMARK  8 active torsions:
REMARK  status: ('A' for Active; 'I' for Inactive)
REMARK    1  A    between atoms: C_1  and  C_2
REMARK    2  A    between atoms: N_7  and  C_8
REMARK    3  A    between atoms: C_8  and  C_9
REMARK    4  A    between atoms: C_9  and  C_10
REMARK    5  A    between atoms: C_9  and  N_11
REMARK    6  A    between atoms: C_12  and  C_14
REMARK    7  A    between atoms: C_17  and  C_18
REMARK    8  A    between atoms: N_25  and  C_26
REMARK                            x       y       z     vdW  Elec       q    Type
REMARK                         _______ _______ _______ _____ _____    ______ ____
ROOT
ATOM      1  N   UNL     1       1.848  10.845  18.895  0.00  0.00    +0.000 N 
ATOM      2  C   UNL     1       1.197   9.711  18.450  0.00  0.00    +0.000 C 
ATOM      3  O   UNL     1       0.115   9.768  17.872  0.00  0.00    +0.000 OA
ATOM      4  H   UNL     1       2.690  10.710  19.441  0.00  0.00    +0.000 HD
ENDROOT
BRANCH   2   5
ATOM      5  C   UNL     1       1.889   8.458  18.736  0.00  0.00    +0.000 A 
ATOM      6  C   UNL     1       2.875   7.810  17.975  0.00  0.00    +0.000 A 
ATOM      7  C   UNL     1       3.212   6.597  18.589  0.00  0.00    +0.000 A 
ATOM      8  C   UNL     1       4.037   5.487  18.344  0.00  0.00    +0.000 A 
ATOM      9  N   UNL     1       3.823   4.572  19.331  0.00  0.00    +0.000 NA
ATOM     10  N   UNL     1       2.899   5.141  20.145  0.00  0.00    +0.000 N 
ATOM     11  C   UNL     1       2.334   4.419  21.256  0.00  0.00    +0.000 C 
ATOM     12  C   UNL     1       2.537   6.363  19.714  0.00  0.00    +0.000 A 
ATOM     13  S   UNL     1       1.481   7.545  20.175  0.00  0.00    +0.000 S 
BRANCH   8  14
ATOM     14  C   UNL     1       4.976   5.194  17.256  0.00  0.00    +0.000 A 
ATOM     15  C   UNL     1       4.738   4.173  16.329  0.00  0.00    +0.000 A 
ATOM     16  C   UNL     1       5.651   3.921  15.296  0.00  0.00    +0.000 A 
ATOM     17  C   UNL     1       6.803   4.692  15.174  0.00  0.00    +0.000 A 
ATOM     18  C   UNL     1       7.048   5.718  16.077  0.00  0.00    +0.000 A 
ATOM     19  C   UNL     1       6.140   5.971  17.108  0.00  0.00    +0.000 A 
ENDBRANCH   8  14
ENDBRANCH   2   5
BRANCH   1  20
ATOM     20  C   UNL     1       1.302  12.194  18.786  0.00  0.00    +0.000 C 
ATOM     21  C   UNL     1       2.377  13.114  18.205  0.00  0.00    +0.000 C 
BRANCH  20  22
ATOM     22  C   UNL     1       0.798  12.683  20.173  0.00  0.00    +0.000 C 
BRANCH  22  29
ATOM     23  C   UNL     1      -3.362  13.562  24.259  0.00  0.00    +0.000 C 
ATOM     24  C   UNL     1      -3.401  12.854  22.929  0.00  0.00    +0.000 C 
ATOM     25  O   UNL     1      -4.447  12.333  22.542  0.00  0.00    +0.000 OA
ATOM     26  N   UNL     1      -2.240  12.848  22.179  0.00  0.00    +0.000 N 
ATOM     27  C   UNL     1      -2.229  12.216  20.855  0.00  0.00    +0.000 C 
ATOM     28  C   UNL     1      -1.598  13.148  19.798  0.00  0.00    +0.000 C 
ATOM     29  N   UNL     1      -0.269  13.704  20.163  0.00  0.00    +0.000 NA
ATOM     30  C   UNL     1      -0.396  14.346  21.498  0.00  0.00    +0.000 C 
ATOM     31  C   UNL     1      -0.960  13.421  22.598  0.00  0.00    +0.000 C 
ENDBRANCH  22  29
ENDBRANCH  20  22
ENDBRANCH   1  20
TORSDOF 5
ENDMDL
MODEL 8
REMARK VINA RESULT:      -7.6      2.990      3.779
REMARK  Name = 
REMARK  8 active torsions:
REMARK  status: ('A' for Active; 'I' for Inactive)
REMARK    1  A    between atoms: C_1  and  C_2
REMARK    2  A    between atoms: N_7  and  C_8
REMARK    3  A    between atoms: C_8  and  C_9
REMARK    4  A    between atoms: C_9  and  C_10
REMARK    5  A    between atoms: C_9  and  N_11
REMARK    6  A    between atoms: C_12  and  C_14
REMARK    7  A    between atoms: C_17  and  C_18
REMARK    8  A    between atoms: N_25  and  C_26
REMARK                            x       y       z     vdW  Elec       q    Type
REMARK                         _______ _______ _______ _____ _____    ______ ____
ROOT
ATOM      1  N   UNL     1       0.855   9.020  19.276  0.00  0.00    +0.000 N 
ATOM      2  C   UNL     1       1.450   8.367  20.339  0.00  0.00    +0.000 C 
ATOM      3  O   UNL     1       1.468   8.848  21.468  0.00  0.00    +0.000 OA
ATOM      4  H   UNL     1       0.960   8.601  18.360  0.00  0.00    +0.000 HD
ENDROOT
BRANCH   2   5
ATOM      5  C   UNL     1       2.059   7.084  20.004  0.00  0.00    +0.000 A 
ATOM      6  C   UNL     1       3.053   6.810  19.051  0.00  0.00    +0.000 A 
ATOM      7  C   UNL     1       3.292   5.431  19.013  0.00  0.00    +0.000 A 
ATOM      8  C   UNL     1       4.072   4.517  18.286  0.00  0.00    +0.000 A 
ATOM      9  N   UNL     1       3.755   3.259  18.703  0.00  0.00    +0.000 NA
ATOM     10  N   UNL     1       2.815   3.434  19.666  0.00  0.00    +0.000 N 
ATOM     11  C   UNL     1       2.151   2.311  20.276  0.00  0.00    +0.000 C 
ATOM     12  C   UNL     1       2.542   4.735  19.868  0.00  0.00    +0.000 A 
ATOM     13  S   UNL     1       1.522   5.625  20.813  0.00  0.00    +0.000 S 
BRANCH   8  14
ATOM     14  C   UNL     1       5.056   4.714  17.216  0.00  0.00    +0.000 A 
ATOM     15  C   UNL     1       6.183   5.526  17.388  0.00  0.00    +0.000 A 
ATOM     16  C   UNL     1       7.110   5.690  16.350  0.00  0.00    +0.000 A 
ATOM     17  C   UNL     1       6.925   5.036  15.135  0.00  0.00    +0.000 A 
ATOM     18  C   UNL     1       5.820   4.216  14.952  0.00  0.00    +0.000 A 
ATOM     19  C   UNL     1       4.894   4.052  15.986  0.00  0.00    +0.000 A 
ENDBRANCH   8  14
ENDBRANCH   2   5
BRANCH   1  20
ATOM     20  C   UNL     1       0.255  10.347  19.367  0.00  0.00    +0.000 C 
ATOM     21  C   UNL     1      -0.916  10.426  18.387  0.00  0.00    +0.000 C 
BRANCH  20  22
ATOM     22  C   UNL     1       1.326  11.439  19.091  0.00  0.00    +0.000 C 
BRANCH  22  29
ATOM     23  C   UNL     1      -0.477  17.045  18.773  0.00  0.00    +0.000 C 
ATOM     24  C   UNL     1       0.877  16.419  18.569  0.00  0.00    +0.000 C 
ATOM     25  O   UNL     1       1.843  17.125  18.279  0.00  0.00    +0.000 OA
ATOM     26  N   UNL     1       0.978  15.052  18.748  0.00  0.00    +0.000 N 
ATOM     27  C   UNL     1       2.280  14.390  18.609  0.00  0.00    +0.000 C 
ATOM     28  C   UNL     1       2.561  13.455  19.805  0.00  0.00    +0.000 C 
ATOM     29  N   UNL     1       1.475  12.491  20.118  0.00  0.00    +0.000 NA
ATOM     30  C   UNL     1       0.212  13.261  20.269  0.00  0.00    +0.000 C 
ATOM     31  C   UNL     1      -0.137  14.155  19.060  0.00  0.00    +0.000 C 
ENDBRANCH  22  29
ENDBRANCH  20  22
ENDBRANCH   1  20
TORSDOF 5
ENDMDL
MODEL 9
REMARK VINA RESULT:      -7.6      2.134      2.714
REMARK  Name = 
REMARK  8 active torsions:
REMARK  status: ('A' for Active; 'I' for Inactive)
REMARK    1  A    between atoms: C_1  and  C_2
REMARK    2  A    between atoms: N_7  and  C_8
REMARK    3  A    between atoms: C_8  and  C_9
REMARK    4  A    between atoms: C_9  and  C_10
REMARK    5  A    between atoms: C_9  and  N_11
REMARK    6  A    between atoms: C_12  and  C_14
REMARK    7  A    between atoms: C_17  and  C_18
REMARK    8  A    between atoms: N_25  and  C_26
REMARK                            x       y       z     vdW  Elec       q    Type
REMARK                         _______ _______ _______ _____ _____    ______ ____
ROOT
ATOM      1  N   UNL     1       1.861  10.707  18.935  0.00  0.00    +0.000 N 
ATOM      2  C   UNL     1       1.313   9.579  18.355  0.00  0.00    +0.000 C 
ATOM      3  O   UNL     1       0.326   9.637  17.627  0.00  0.00    +0.000 OA
ATOM      4  H   UNL     1       2.618  10.566  19.593  0.00  0.00    +0.000 HD
ENDROOT
BRANCH   2   5
ATOM      5  C   UNL     1       1.989   8.330  18.690  0.00  0.00    +0.000 A 
ATOM      6  C   UNL     1       2.994   7.659  17.975  0.00  0.00    +0.000 A 
ATOM      7  C   UNL     1       3.307   6.460  18.626  0.00  0.00    +0.000 A 
ATOM      8  C   UNL     1       4.133   5.341  18.433  0.00  0.00    +0.000 A 
ATOM      9  N   UNL     1       3.884   4.450  19.433  0.00  0.00    +0.000 NA
ATOM     10  N   UNL     1       2.938   5.042  20.205  0.00  0.00    +0.000 N 
ATOM     11  C   UNL     1       2.336   4.348  21.315  0.00  0.00    +0.000 C 
ATOM     12  C   UNL     1       2.596   6.255  19.736  0.00  0.00    +0.000 A 
ATOM     13  S   UNL     1       1.533   7.452  20.136  0.00  0.00    +0.000 S 
BRANCH   8  14
ATOM     14  C   UNL     1       5.103   5.019  17.381  0.00  0.00    +0.000 A 
ATOM     15  C   UNL     1       6.474   4.922  17.644  0.00  0.00    +0.000 A 
ATOM     16  C   UNL     1       7.377   4.606  16.619  0.00  0.00    +0.000 A 
ATOM     17  C   UNL     1       6.916   4.374  15.326  0.00  0.00    +0.000 A 
ATOM     18  C   UNL     1       5.558   4.453  15.051  0.00  0.00    +0.000 A 
ATOM     19  C   UNL     1       4.657   4.769  16.071  0.00  0.00    +0.000 A 
ENDBRANCH   8  14
ENDBRANCH   2   5
BRANCH   1  20
ATOM     20  C   UNL     1       1.301  12.047  18.799  0.00  0.00    +0.000 C 
ATOM     21  C   UNL     1       2.416  13.006  18.380  0.00  0.00    +0.000 C 
BRANCH  20  22
ATOM     22  C   UNL     1       0.622  12.482  20.128  0.00  0.00    +0.000 C 
BRANCH  22  29
ATOM     23  C   UNL     1      -5.159  12.762  21.256  0.00  0.00    +0.000 C 
ATOM     24  C   UNL     1      -3.958  13.015  22.129  0.00  0.00    +0.000 C 
ATOM     25  O   UNL     1      -4.112  13.346  23.304  0.00  0.00    +0.000 OA
ATOM     26  N   UNL     1      -2.711  12.832  21.561  0.00  0.00    +0.000 N 
ATOM     27  C   UNL     1      -1.504  13.017  22.374  0.00  0.00    +0.000 C 
ATOM     28  C   UNL     1      -0.533  11.828  22.210  0.00  0.00    +0.000 C 
ATOM     29  N   UNL     1      -0.211  11.468  20.805  0.00  0.00    +0.000 NA
ATOM     30  C   UNL     1      -1.494  11.272  20.080  0.00  0.00    +0.000 C 
ATOM     31  C   UNL     1      -2.462  12.472  20.164  0.00  0.00    +0.000 C 
ENDBRANCH  22  29
ENDBRANCH  20  22
ENDBRANCH   1  20
TORSDOF 5
ENDMDL
