MODEL 1
REMARK VINA RESULT:      -8.7      0.000      0.000
REMARK  Name = 
REMARK  10 active torsions:
REMARK  status: ('A' for Active; 'I' for Inactive)
REMARK    1  A    between atoms: C_1  and  C_2
REMARK    2  A    between atoms: C_2  and  C_3
REMARK    3  A    between atoms: C_3  and  N_4
REMARK    4  A    between atoms: C_10  and  S_11
REMARK    5  A    between atoms: S_11  and  N_14
REMARK    6  A    between atoms: C_17  and  C_18
REMARK    7  A    between atoms: C_18  and  C_19
REMARK    8  A    between atoms: N_21  and  C_22
REMARK    9  A    between atoms: C_24  and  C_25
REMARK   10  A    between atoms: C_28  and  C_29
REMARK                            x       y       z     vdW  Elec       q    Type
REMARK                         _______ _______ _______ _____ _____    ______ ____
ROOT
ATOM      1  N   UNL     1       3.669   5.011  19.224  0.00  0.00    +0.000 NA
ATOM      2  C   UNL     1       2.976   4.826  20.521  0.00  0.00    +0.000 C 
ATOM      3  C   UNL     1       1.515   5.227  20.422  0.00  0.00    +0.000 C 
ATOM      4  C   UNL     1       1.328   6.669  19.923  0.00  0.00    +0.000 C 
ATOM      5  C   UNL     1       1.996   6.764  18.545  0.00  0.00    +0.000 C 
ATOM      6  C   UNL     1       3.461   6.319  18.532  0.00  0.00    +0.000 C 
ENDROOT
BRANCH   1   7
ATOM      7  S   UNL     1       5.276   4.418  19.182  0.00  0.00    +0.000 S 
ATOM      8  O   UNL     1       5.263   3.050  19.712  0.00  0.00    +0.000 OA
ATOM      9  O   UNL     1       6.157   5.421  19.738  0.00  0.00    +0.000 OA
BRANCH   7  16
ATOM     10  N   UNL     1       6.625   4.293  13.457  0.00  0.00    +0.000 N 
ATOM     11  C   UNL     1       7.613   5.249  13.484  0.00  0.00    +0.000 A 
ATOM     12  O   UNL     1       8.276   5.646  12.532  0.00  0.00    +0.000 OA
ATOM     13  O   UNL     1       7.801   5.751  14.791  0.00  0.00    +0.000 OA
ATOM     14  C   UNL     1       6.885   5.017  15.535  0.00  0.00    +0.000 A 
ATOM     15  C   UNL     1       6.653   5.147  16.893  0.00  0.00    +0.000 A 
ATOM     16  C   UNL     1       5.662   4.329  17.442  0.00  0.00    +0.000 A 
ATOM     17  C   UNL     1       4.979   3.381  16.650  0.00  0.00    +0.000 A 
ATOM     18  C   UNL     1       5.269   3.243  15.286  0.00  0.00    +0.000 A 
ATOM     19  C   UNL     1       6.196   4.106  14.748  0.00  0.00    +0.000 A 
BRANCH  10  20
ATOM     20  C   UNL     1       6.196   3.554  12.283  0.00  0.00    +0.000 C 
BRANCH  20  22
ATOM     21  C   UNL     1       4.095   3.535  10.817  0.00  0.00    +0.000 C 
ATOM     22  C   UNL     1       4.688   3.262  12.187  0.00  0.00    +0.000 C 
ENDBRANCH  20  22
ENDBRANCH  10  20
ENDBRANCH   7  16
ENDBRANCH   1   7
BRANCH   4  23
ATOM     23  C   UNL     1       1.812   7.747  20.923  0.00  0.00    +0.000 C 
BRANCH  23  24
ATOM     24  C   UNL     1       0.731   8.792  21.185  0.00  0.00    +0.000 C 
ATOM     25  O   UNL     1      -0.059   8.670  22.117  0.00  0.00    +0.000 OA
ATOM     26  N   UNL     1       0.708   9.834  20.263  0.00  0.00    +0.000 N 
ATOM     27  H   UNL     1       1.023   9.612  19.328  0.00  0.00    +0.000 HD
BRANCH  26  28
ATOM     28  C   UNL     1      -0.267  10.855  20.393  0.00  0.00    +0.000 A 
ATOM     29  C   UNL     1      -0.346  11.566  21.599  0.00  0.00    +0.000 A 
ATOM     30  C   UNL     1      -1.375  12.487  21.831  0.00  0.00    +0.000 A 
ATOM     31  C   UNL     1      -1.532  13.133  23.176  0.00  0.00    +0.000 C 
ATOM     32  C   UNL     1      -2.304  12.727  20.817  0.00  0.00    +0.000 A 
ATOM     33  C   UNL     1      -2.202  12.059  19.593  0.00  0.00    +0.000 A 
ATOM     34  C   UNL     1      -1.188  11.112  19.365  0.00  0.00    +0.000 A 
ATOM     35  C   UNL     1      -1.218  10.306  18.098  0.00  0.00    +0.000 C 
ENDBRANCH  26  28
ENDBRANCH  23  24
ENDBRANCH   4  23
TORSDOF 7
ENDMDL
MODEL 2
REMARK VINA RESULT:      -8.3      4.220     12.409
REMARK  Name = 
REMARK  10 active torsions:
REMARK  status: ('A' for Active; 'I' for Inactive)
REMARK    1  A    between atoms: C_1  and  C_2
REMARK    2  A    between atoms: C_2  and  C_3
REMARK    3  A    between atoms: C_3  and  N_4
REMARK    4  A    between atoms: C_10  and  S_11
REMARK    5  A    between atoms: S_11  and  N_14
REMARK    6  A    between atoms: C_17  and  C_18
REMARK    7  A    between atoms: C_18  and  C_19
REMARK    8  A    between atoms: N_21  and  C_22
REMARK    9  A    between atoms: C_24  and  C_25
REMARK   10  A    between atoms: C_28  and  C_29
REMARK                            x       y       z     vdW  Elec       q    Type
REMARK                         _______ _______ _______ _____ _____    ______ ____
ROOT
ATOM      1  N   UNL     1      -0.468  12.021  20.856  0.00  0.00    +0.000 NA
ATOM      2  C   UNL     1       0.833  12.414  20.266  0.00  0.00    +0.000 C 
ATOM      3  C   UNL     1       0.914  12.014  18.803  0.00  0.00    +0.000 C 
ATOM      4  C   UNL     1       0.665  10.513  18.584  0.00  0.00    +0.000 C 
ATOM      5  C   UNL     1      -0.728  10.195  19.143  0.00  0.00    +0.000 C 
ATOM      6  C   UNL     1      -0.926  10.621  20.601  0.00  0.00    +0.000 C 
ENDROOT
BRANCH   1   7
ATOM      7  S   UNL     1      -0.729  12.587  22.453  0.00  0.00    +0.000 S 
ATOM      8  O   UNL     1       0.037  13.828  22.618  0.00  0.00    +0.000 OA
ATOM      9  O   UNL     1      -0.560  11.483  23.371  0.00  0.00    +0.000 OA
BRANCH   7  16
ATOM     10  N   UNL     1      -6.482  13.797  22.663  0.00  0.00    +0.000 N 
ATOM     11  C   UNL     1      -6.805  12.954  23.698  0.00  0.00    +0.000 A 
ATOM     12  O   UNL     1      -7.917  12.788  24.192  0.00  0.00    +0.000 OA
ATOM     13  O   UNL     1      -5.666  12.263  24.169  0.00  0.00    +0.000 OA
ATOM     14  C   UNL     1      -4.651  12.767  23.366  0.00  0.00    +0.000 A 
ATOM     15  C   UNL     1      -3.320  12.391  23.408  0.00  0.00    +0.000 A 
ATOM     16  C   UNL     1      -2.464  13.003  22.489  0.00  0.00    +0.000 A 
ATOM     17  C   UNL     1      -2.935  13.996  21.604  0.00  0.00    +0.000 A 
ATOM     18  C   UNL     1      -4.281  14.387  21.616  0.00  0.00    +0.000 A 
ATOM     19  C   UNL     1      -5.123  13.723  22.478  0.00  0.00    +0.000 A 
BRANCH  10  20
ATOM     20  C   UNL     1      -7.406  14.675  21.966  0.00  0.00    +0.000 C 
BRANCH  20  22
ATOM     21  C   UNL     1      -7.638  12.885  20.149  0.00  0.00    +0.000 C 
ATOM     22  C   UNL     1      -7.632  14.367  20.476  0.00  0.00    +0.000 C 
ENDBRANCH  20  22
ENDBRANCH  10  20
ENDBRANCH   7  16
ENDBRANCH   1   7
BRANCH   4  23
ATOM     23  C   UNL     1       1.782   9.603  19.151  0.00  0.00    +0.000 C 
BRANCH  23  24
ATOM     24  C   UNL     1       1.904   8.307  18.354  0.00  0.00    +0.000 C 
ATOM     25  O   UNL     1       1.358   8.177  17.261  0.00  0.00    +0.000 OA
ATOM     26  N   UNL     1       2.633   7.309  18.994  0.00  0.00    +0.000 N 
ATOM     27  H   UNL     1       2.610   7.316  20.005  0.00  0.00    +0.000 HD
BRANCH  26  28
ATOM     28  C   UNL     1       2.796   6.052  18.359  0.00  0.00    +0.000 A 
ATOM     29  C   UNL     1       1.866   5.035  18.623  0.00  0.00    +0.000 A 
ATOM     30  C   UNL     1       2.054   3.737  18.134  0.00  0.00    +0.000 A 
ATOM     31  C   UNL     1       1.132   2.626  18.541  0.00  0.00    +0.000 C 
ATOM     32  C   UNL     1       3.166   3.476  17.330  0.00  0.00    +0.000 A 
ATOM     33  C   UNL     1       4.069   4.497  17.020  0.00  0.00    +0.000 A 
ATOM     34  C   UNL     1       3.902   5.795  17.533  0.00  0.00    +0.000 A 
ATOM     35  C   UNL     1       4.983   6.811  17.305  0.00  0.00    +0.000 C 
ENDBRANCH  26  28
ENDBRANCH  23  24
ENDBRANCH   4  23
TORSDOF 7
ENDMDL
MODEL 3
REMARK VINA RESULT:      -8.3      1.479      1.650
REMARK  Name = 
REMARK  10 active torsions:
REMARK  status: ('A' for Active; 'I' for Inactive)
REMARK    1  A    between atoms: C_1  and  C_2
REMARK    2  A    between atoms: C_2  and  C_3
REMARK    3  A    between atoms: C_3  and  N_4
REMARK    4  A    between atoms: C_10  and  S_11
REMARK    5  A    between atoms: S_11  and  N_14
REMARK    6  A    between atoms: C_17  and  C_18
REMARK    7  A    between atoms: C_18  and  C_19
REMARK    8  A    between atoms: N_21  and  C_22
REMARK    9  A    between atoms: C_24  and  C_25
REMARK   10  A    between atoms: C_28  and  C_29
REMARK                            x       y       z     vdW  Elec       q    Type
REMARK                         _______ _______ _______ _____ _____    ______ ____
ROOT
ATOM      1  N   UNL     1       3.618   5.155  19.211  0.00  0.00    +0.000 NA
ATOM      2  C   UNL     1       2.901   4.956  20.493  0.00  0.00    +0.000 C 
ATOM      3  C   UNL     1       1.455   5.410  20.387  0.00  0.00    +0.000 C 
ATOM      4  C   UNL     1       1.324   6.871  19.928  0.00  0.00    +0.000 C 
ATOM      5  C   UNL     1       2.014   6.983  18.563  0.00  0.00    +0.000 C 
ATOM      6  C   UNL     1       3.464   6.489  18.555  0.00  0.00    +0.000 C 
ENDROOT
BRANCH   1   7
ATOM      7  S   UNL     1       5.204   4.509  19.173  0.00  0.00    +0.000 S 
ATOM      8  O   UNL     1       5.144   3.142  19.704  0.00  0.00    +0.000 OA
ATOM      9  O   UNL     1       6.117   5.482  19.730  0.00  0.00    +0.000 OA
BRANCH   7  16
ATOM     10  N   UNL     1       6.567   4.334  13.453  0.00  0.00    +0.000 N 
ATOM     11  C   UNL     1       7.620   5.216  13.491  0.00  0.00    +0.000 A 
ATOM     12  O   UNL     1       8.314   5.574  12.545  0.00  0.00    +0.000 OA
ATOM     13  O   UNL     1       7.838   5.694  14.804  0.00  0.00    +0.000 OA
ATOM     14  C   UNL     1       6.868   5.021  15.537  0.00  0.00    +0.000 A 
ATOM     15  C   UNL     1       6.639   5.156  16.895  0.00  0.00    +0.000 A 
ATOM     16  C   UNL     1       5.591   4.406  17.434  0.00  0.00    +0.000 A 
ATOM     17  C   UNL     1       4.845   3.516  16.632  0.00  0.00    +0.000 A 
ATOM     18  C   UNL     1       5.131   3.369  15.268  0.00  0.00    +0.000 A 
ATOM     19  C   UNL     1       6.120   4.167  14.741  0.00  0.00    +0.000 A 
BRANCH  10  20
ATOM     20  C   UNL     1       6.091   3.636  12.271  0.00  0.00    +0.000 C 
BRANCH  20  22
ATOM     21  C   UNL     1       6.179   1.337  11.144  0.00  0.00    +0.000 C 
ATOM     22  C   UNL     1       6.965   2.467  11.784  0.00  0.00    +0.000 C 
ENDBRANCH  20  22
ENDBRANCH  10  20
ENDBRANCH   7  16
ENDBRANCH   1   7
BRANCH   4  23
ATOM     23  C   UNL     1       1.830   7.903  20.965  0.00  0.00    +0.000 C 
BRANCH  23  24
ATOM     24  C   UNL     1       1.270   9.295  20.688  0.00  0.00    +0.000 C 
ATOM     25  O   UNL     1       0.876  10.016  21.601  0.00  0.00    +0.000 OA
ATOM     26  N   UNL     1       1.211   9.630  19.338  0.00  0.00    +0.000 N 
ATOM     27  H   UNL     1       1.083   8.862  18.692  0.00  0.00    +0.000 HD
BRANCH  26  28
ATOM     28  C   UNL     1       0.689  10.891  18.957  0.00  0.00    +0.000 A 
ATOM     29  C   UNL     1       1.501  12.027  19.089  0.00  0.00    +0.000 A 
ATOM     30  C   UNL     1       0.992  13.311  18.858  0.00  0.00    +0.000 A 
ATOM     31  C   UNL     1       1.827  14.525  19.142  0.00  0.00    +0.000 C 
ATOM     32  C   UNL     1      -0.334  13.445  18.443  0.00  0.00    +0.000 A 
ATOM     33  C   UNL     1      -1.134  12.313  18.260  0.00  0.00    +0.000 A 
ATOM     34  C   UNL     1      -0.638  11.023  18.519  0.00  0.00    +0.000 A 
ATOM     35  C   UNL     1      -1.583   9.857  18.464  0.00  0.00    +0.000 C 
ENDBRANCH  26  28
ENDBRANCH  23  24
ENDBRANCH   4  23
TORSDOF 7
ENDMDL
MODEL 4
REMARK VINA RESULT:      -8.3      0.985      1.723
REMARK  Name = 
REMARK  10 active torsions:
REMARK  status: ('A' for Active; 'I' for Inactive)
REMARK    1  A    between atoms: C_1  and  C_2
REMARK    2  A    between atoms: C_2  and  C_3
REMARK    3  A    between atoms: C_3  and  N_4
REMARK    4  A    between atoms: C_10  and  S_11
REMARK    5  A    between atoms: S_11  and  N_14
REMARK    6  A    between atoms: C_17  and  C_18
REMARK    7  A    between atoms: C_18  and  C_19
REMARK    8  A    between atoms: N_21  and  C_22
REMARK    9  A    between atoms: C_24  and  C_25
REMARK   10  A    between atoms: C_28  and  C_29
REMARK                            x       y       z     vdW  Elec       q    Type
REMARK                         _______ _______ _______ _____ _____    ______ ____
ROOT
ATOM      1  N   UNL     1       3.655   4.930  19.256  0.00  0.00    +0.000 NA
ATOM      2  C   UNL     1       3.050   4.799  20.603  0.00  0.00    +0.000 C 
ATOM      3  C   UNL     1       1.567   5.123  20.570  0.00  0.00    +0.000 C 
ATOM      4  C   UNL     1       1.277   6.518  19.993  0.00  0.00    +0.000 C 
ATOM      5  C   UNL     1       1.856   6.553  18.573  0.00  0.00    +0.000 C 
ATOM      6  C   UNL     1       3.340   6.178  18.496  0.00  0.00    +0.000 C 
ENDROOT
BRANCH   1   7
ATOM      7  S   UNL     1       5.285   4.413  19.152  0.00  0.00    +0.000 S 
ATOM      8  O   UNL     1       5.353   3.039  19.665  0.00  0.00    +0.000 OA
ATOM      9  O   UNL     1       6.138   5.448  19.690  0.00  0.00    +0.000 OA
BRANCH   7  16
ATOM     10  N   UNL     1       6.469   4.400  13.389  0.00  0.00    +0.000 N 
ATOM     11  C   UNL     1       7.570   5.221  13.430  0.00  0.00    +0.000 A 
ATOM     12  O   UNL     1       8.256   5.578  12.478  0.00  0.00    +0.000 OA
ATOM     13  O   UNL     1       7.853   5.630  14.753  0.00  0.00    +0.000 OA
ATOM     14  C   UNL     1       6.869   4.982  15.489  0.00  0.00    +0.000 A 
ATOM     15  C   UNL     1       6.688   5.073  16.858  0.00  0.00    +0.000 A 
ATOM     16  C   UNL     1       5.614   4.361  17.398  0.00  0.00    +0.000 A 
ATOM     17  C   UNL     1       4.796   3.547  16.585  0.00  0.00    +0.000 A 
ATOM     18  C   UNL     1       5.034   3.442  15.208  0.00  0.00    +0.000 A 
ATOM     19  C   UNL     1       6.050   4.205  14.683  0.00  0.00    +0.000 A 
BRANCH  10  20
ATOM     20  C   UNL     1       5.920   3.780  12.196  0.00  0.00    +0.000 C 
BRANCH  20  22
ATOM     21  C   UNL     1       7.413   2.027  11.074  0.00  0.00    +0.000 C 
ATOM     22  C   UNL     1       6.243   2.288  12.005  0.00  0.00    +0.000 C 
ENDBRANCH  20  22
ENDBRANCH  10  20
ENDBRANCH   7  16
ENDBRANCH   1   7
BRANCH   4  23
ATOM     23  C   UNL     1       1.763   7.682  20.890  0.00  0.00    +0.000 C 
BRANCH  23  24
ATOM     24  C   UNL     1       0.760   8.831  20.907  0.00  0.00    +0.000 C 
ATOM     25  O   UNL     1       0.006   9.005  21.861  0.00  0.00    +0.000 OA
ATOM     26  N   UNL     1       0.757   9.605  19.750  0.00  0.00    +0.000 N 
ATOM     27  H   UNL     1       1.015   9.132  18.895  0.00  0.00    +0.000 HD
BRANCH  26  28
ATOM     28  C   UNL     1      -0.148  10.690  19.642  0.00  0.00    +0.000 A 
ATOM     29  C   UNL     1      -1.378  10.483  18.999  0.00  0.00    +0.000 A 
ATOM     30  C   UNL     1      -2.249  11.549  18.743  0.00  0.00    +0.000 A 
ATOM     31  C   UNL     1      -3.492  11.340  17.929  0.00  0.00    +0.000 C 
ATOM     32  C   UNL     1      -1.897  12.826  19.183  0.00  0.00    +0.000 A 
ATOM     33  C   UNL     1      -0.697  13.031  19.870  0.00  0.00    +0.000 A 
ATOM     34  C   UNL     1       0.195  11.971  20.104  0.00  0.00    +0.000 A 
ATOM     35  C   UNL     1       1.541  12.271  20.700  0.00  0.00    +0.000 C 
ENDBRANCH  26  28
ENDBRANCH  23  24
ENDBRANCH   4  23
TORSDOF 7
ENDMDL
MODEL 5
REMARK VINA RESULT:      -8.2      4.714      9.106
REMARK  Name = 
REMARK  10 active torsions:
REMARK  status: ('A' for Active; 'I' for Inactive)
REMARK    1  A    between atoms: C_1  and  C_2
REMARK    2  A    between atoms: C_2  and  C_3
REMARK    3  A    between atoms: C_3  and  N_4
REMARK    4  A    between atoms: C_10  and  S_11
REMARK    5  A    between atoms: S_11  and  N_14
REMARK    6  A    between atoms: C_17  and  C_18
REMARK    7  A    between atoms: C_18  and  C_19
REMARK    8  A    between atoms: N_21  and  C_22
REMARK    9  A    between atoms: C_24  and  C_25
REMARK   10  A    between atoms: C_28  and  C_29
REMARK                            x       y       z     vdW  Elec       q    Type
REMARK                         _______ _______ _______ _____ _____    ______ ____
ROOT
ATOM      1  N   UNL     1       5.347   5.206  18.049  0.00  0.00    +0.000 NA
ATOM      2  C   UNL     1       5.550   5.978  16.799  0.00  0.00    +0.000 C 
ATOM      3  C   UNL     1       7.028   6.199  16.527  0.00  0.00    +0.000 C 
ATOM      4  C   UNL     1       7.750   6.887  17.697  0.00  0.00    +0.000 C 
ATOM      5  C   UNL     1       7.568   5.995  18.932  0.00  0.00    +0.000 C 
ATOM      6  C   UNL     1       6.107   5.664  19.252  0.00  0.00    +0.000 C 
ENDROOT
BRANCH   1   7
ATOM      7  S   UNL     1       3.724   4.749  18.350  0.00  0.00    +0.000 S 
ATOM      8  O   UNL     1       3.711   3.909  19.554  0.00  0.00    +0.000 OA
ATOM      9  O   UNL     1       3.134   4.284  17.115  0.00  0.00    +0.000 OA
BRANCH   7  16
ATOM     10  N   UNL     1       0.950   9.731  19.799  0.00  0.00    +0.000 N 
ATOM     11  C   UNL     1       0.743   9.442  21.126  0.00  0.00    +0.000 A 
ATOM     12  O   UNL     1       0.187  10.155  21.955  0.00  0.00    +0.000 OA
ATOM     13  O   UNL     1       1.269   8.174  21.461  0.00  0.00    +0.000 OA
ATOM     14  C   UNL     1       1.819   7.746  20.259  0.00  0.00    +0.000 A 
ATOM     15  C   UNL     1       2.447   6.532  20.041  0.00  0.00    +0.000 A 
ATOM     16  C   UNL     1       2.905   6.285  18.744  0.00  0.00    +0.000 A 
ATOM     17  C   UNL     1       2.778   7.258  17.729  0.00  0.00    +0.000 A 
ATOM     18  C   UNL     1       2.177   8.496  17.994  0.00  0.00    +0.000 A 
ATOM     19  C   UNL     1       1.668   8.693  19.257  0.00  0.00    +0.000 A 
BRANCH  10  20
ATOM     20  C   UNL     1       0.562  10.960  19.130  0.00  0.00    +0.000 C 
BRANCH  20  22
ATOM     21  C   UNL     1      -1.906  11.643  19.202  0.00  0.00    +0.000 C 
ATOM     22  C   UNL     1      -0.807  10.940  18.427  0.00  0.00    +0.000 C 
ENDBRANCH  20  22
ENDBRANCH  10  20
ENDBRANCH   7  16
ENDBRANCH   1   7
BRANCH   4  23
ATOM     23  C   UNL     1       7.318   8.356  17.925  0.00  0.00    +0.000 C 
BRANCH  23  24
ATOM     24  C   UNL     1       8.491   9.219  18.382  0.00  0.00    +0.000 C 
ATOM     25  O   UNL     1       9.466   8.723  18.941  0.00  0.00    +0.000 OA
ATOM     26  N   UNL     1       8.326  10.580  18.147  0.00  0.00    +0.000 N 
ATOM     27  H   UNL     1       7.374  10.923  18.155  0.00  0.00    +0.000 HD
BRANCH  26  28
ATOM     28  C   UNL     1       9.342  11.483  18.549  0.00  0.00    +0.000 A 
ATOM     29  C   UNL     1      10.192  12.022  17.571  0.00  0.00    +0.000 A 
ATOM     30  C   UNL     1      11.295  12.808  17.925  0.00  0.00    +0.000 A 
ATOM     31  C   UNL     1      12.278  13.258  16.885  0.00  0.00    +0.000 C 
ATOM     32  C   UNL     1      11.513  13.092  19.275  0.00  0.00    +0.000 A 
ATOM     33  C   UNL     1      10.641  12.601  20.250  0.00  0.00    +0.000 A 
ATOM     34  C   UNL     1       9.548  11.787  19.904  0.00  0.00    +0.000 A 
ATOM     35  C   UNL     1       8.738  11.153  20.998  0.00  0.00    +0.000 C 
ENDBRANCH  26  28
ENDBRANCH  23  24
ENDBRANCH   4  23
TORSDOF 7
ENDMDL
MODEL 6
REMARK VINA RESULT:      -8.0      1.212      1.398
REMARK  Name = 
REMARK  10 active torsions:
REMARK  status: ('A' for Active; 'I' for Inactive)
REMARK    1  A    between atoms: C_1  and  C_2
REMARK    2  A    between atoms: C_2  and  C_3
REMARK    3  A    between atoms: C_3  and  N_4
REMARK    4  A    between atoms: C_10  and  S_11
REMARK    5  A    between atoms: S_11  and  N_14
REMARK    6  A    between atoms: C_17  and  C_18
REMARK    7  A    between atoms: C_18  and  C_19
REMARK    8  A    between atoms: N_21  and  C_22
REMARK    9  A    between atoms: C_24  and  C_25
REMARK   10  A    between atoms: C_28  and  C_29
REMARK                            x       y       z     vdW  Elec       q    Type
REMARK                         _______ _______ _______ _____ _____    ______ ____
ROOT
ATOM      1  N   UNL     1       3.594   5.113  19.204  0.00  0.00    +0.000 NA
ATOM      2  C   UNL     1       2.944   4.965  20.528  0.00  0.00    +0.000 C 
ATOM      3  C   UNL     1       1.471   5.331  20.457  0.00  0.00    +0.000 C 
ATOM      4  C   UNL     1       1.237   6.747  19.907  0.00  0.00    +0.000 C 
ATOM      5  C   UNL     1       1.863   6.801  18.507  0.00  0.00    +0.000 C 
ATOM      6  C   UNL     1       3.337   6.387  18.467  0.00  0.00    +0.000 C 
ENDROOT
BRANCH   1   7
ATOM      7  S   UNL     1       5.212   4.553  19.137  0.00  0.00    +0.000 S 
ATOM      8  O   UNL     1       5.236   3.187  19.673  0.00  0.00    +0.000 OA
ATOM      9  O   UNL     1       6.081   5.576  19.674  0.00  0.00    +0.000 OA
BRANCH   7  16
ATOM     10  N   UNL     1       6.491   4.417  13.396  0.00  0.00    +0.000 N 
ATOM     11  C   UNL     1       7.595   5.234  13.439  0.00  0.00    +0.000 A 
ATOM     12  O   UNL     1       8.299   5.568  12.491  0.00  0.00    +0.000 OA
ATOM     13  O   UNL     1       7.858   5.669  14.757  0.00  0.00    +0.000 OA
ATOM     14  C   UNL     1       6.859   5.040  15.490  0.00  0.00    +0.000 A 
ATOM     15  C   UNL     1       6.656   5.160  16.854  0.00  0.00    +0.000 A 
ATOM     16  C   UNL     1       5.570   4.464  17.391  0.00  0.00    +0.000 A 
ATOM     17  C   UNL     1       4.763   3.636  16.581  0.00  0.00    +0.000 A 
ATOM     18  C   UNL     1       5.022   3.501  15.211  0.00  0.00    +0.000 A 
ATOM     19  C   UNL     1       6.051   4.250  14.687  0.00  0.00    +0.000 A 
BRANCH  10  20
ATOM     20  C   UNL     1       5.960   3.773  12.208  0.00  0.00    +0.000 C 
BRANCH  20  22
ATOM     21  C   UNL     1       7.404   2.004  11.047  0.00  0.00    +0.000 C 
ATOM     22  C   UNL     1       6.294   2.280  12.045  0.00  0.00    +0.000 C 
ENDBRANCH  20  22
ENDBRANCH  10  20
ENDBRANCH   7  16
ENDBRANCH   1   7
BRANCH   4  23
ATOM     23  C   UNL     1       1.727   7.875  20.848  0.00  0.00    +0.000 C 
BRANCH  23  24
ATOM     24  C   UNL     1       0.747   9.044  20.875  0.00  0.00    +0.000 C 
ATOM     25  O   UNL     1      -0.220   9.083  20.118  0.00  0.00    +0.000 OA
ATOM     26  N   UNL     1       1.076  10.046  21.782  0.00  0.00    +0.000 N 
ATOM     27  H   UNL     1       2.062  10.169  21.975  0.00  0.00    +0.000 HD
BRANCH  26  28
ATOM     28  C   UNL     1       0.250  11.194  21.882  0.00  0.00    +0.000 A 
ATOM     29  C   UNL     1      -0.860  11.155  22.739  0.00  0.00    +0.000 A 
ATOM     30  C   UNL     1      -1.786  12.205  22.773  0.00  0.00    +0.000 A 
ATOM     31  C   UNL     1      -3.042  12.089  23.584  0.00  0.00    +0.000 C 
ATOM     32  C   UNL     1      -1.561  13.326  21.970  0.00  0.00    +0.000 A 
ATOM     33  C   UNL     1      -0.430  13.393  21.152  0.00  0.00    +0.000 A 
ATOM     34  C   UNL     1       0.487  12.329  21.092  0.00  0.00    +0.000 A 
ATOM     35  C   UNL     1       1.596  12.382  20.079  0.00  0.00    +0.000 C 
ENDBRANCH  26  28
ENDBRANCH  23  24
ENDBRANCH   4  23
TORSDOF 7
ENDMDL
MODEL 7
REMARK VINA RESULT:      -7.9      3.164      6.202
REMARK  Name = 
REMARK  10 active torsions:
REMARK  status: ('A' for Active; 'I' for Inactive)
REMARK    1  A    between atoms: C_1  and  C_2
REMARK    2  A    between atoms: C_2  and  C_3
REMARK    3  A    between atoms: C_3  and  N_4
REMARK    4  A    between atoms: C_10  and  S_11
REMARK    5  A    between atoms: S_11  and  N_14
REMARK    6  A    between atoms: C_17  and  C_18
REMARK    7  A    between atoms: C_18  and  C_19
REMARK    8  A    between atoms: N_21  and  C_22
REMARK    9  A    between atoms: C_24  and  C_25
REMARK   10  A    between atoms: C_28  and  C_29
REMARK                            x       y       z     vdW  Elec       q    Type
REMARK                         _______ _______ _______ _____ _____    ______ ____
ROOT
ATOM      1  N   UNL     1       0.230  10.273  20.460  0.00  0.00    +0.000 NA
ATOM      2  C   UNL     1      -1.228  10.512  20.340  0.00  0.00    +0.000 C 
ATOM      3  C   UNL     1      -1.519  11.647  19.373  0.00  0.00    +0.000 C 
ATOM      4  C   UNL     1      -0.799  12.950  19.755  0.00  0.00    +0.000 C 
ATOM      5  C   UNL     1       0.705  12.649  19.779  0.00  0.00    +0.000 C 
ATOM      6  C   UNL     1       1.091  11.474  20.683  0.00  0.00    +0.000 C 
ENDROOT
BRANCH   1   7
ATOM      7  S   UNL     1       0.654   8.896  21.387  0.00  0.00    +0.000 S 
ATOM      8  O   UNL     1      -0.579   8.152  21.674  0.00  0.00    +0.000 OA
ATOM      9  O   UNL     1       1.537   9.309  22.455  0.00  0.00    +0.000 OA
BRANCH   7  16
ATOM     10  N   UNL     1       3.965   5.538  17.870  0.00  0.00    +0.000 N 
ATOM     11  C   UNL     1       3.982   4.414  18.660  0.00  0.00    +0.000 A 
ATOM     12  O   UNL     1       4.546   3.352  18.414  0.00  0.00    +0.000 OA
ATOM     13  O   UNL     1       3.241   4.611  19.846  0.00  0.00    +0.000 OA
ATOM     14  C   UNL     1       2.766   5.908  19.696  0.00  0.00    +0.000 A 
ATOM     15  C   UNL     1       1.992   6.600  20.611  0.00  0.00    +0.000 A 
ATOM     16  C   UNL     1       1.645   7.911  20.277  0.00  0.00    +0.000 A 
ATOM     17  C   UNL     1       2.023   8.472  19.038  0.00  0.00    +0.000 A 
ATOM     18  C   UNL     1       2.770   7.729  18.114  0.00  0.00    +0.000 A 
ATOM     19  C   UNL     1       3.163   6.466  18.490  0.00  0.00    +0.000 A 
BRANCH  10  20
ATOM     20  C   UNL     1       4.602   5.670  16.572  0.00  0.00    +0.000 C 
BRANCH  20  22
ATOM     21  C   UNL     1       6.968   6.266  17.353  0.00  0.00    +0.000 C 
ATOM     22  C   UNL     1       5.777   6.660  16.497  0.00  0.00    +0.000 C 
ENDBRANCH  20  22
ENDBRANCH  10  20
ENDBRANCH   7  16
ENDBRANCH   1   7
BRANCH   4  23
ATOM     23  C   UNL     1      -1.322  13.598  21.060  0.00  0.00    +0.000 C 
BRANCH  23  24
ATOM     24  C   UNL     1      -2.831  13.820  21.007  0.00  0.00    +0.000 C 
ATOM     25  O   UNL     1      -3.305  14.877  20.598  0.00  0.00    +0.000 OA
ATOM     26  N   UNL     1      -3.583  12.756  21.496  0.00  0.00    +0.000 N 
ATOM     27  H   UNL     1      -3.149  12.195  22.218  0.00  0.00    +0.000 HD
BRANCH  26  28
ATOM     28  C   UNL     1      -4.997  12.856  21.517  0.00  0.00    +0.000 A 
ATOM     29  C   UNL     1      -5.630  13.244  22.706  0.00  0.00    +0.000 A 
ATOM     30  C   UNL     1      -7.025  13.227  22.823  0.00  0.00    +0.000 A 
ATOM     31  C   UNL     1      -7.685  13.504  24.142  0.00  0.00    +0.000 C 
ATOM     32  C   UNL     1      -7.789  12.860  21.713  0.00  0.00    +0.000 A 
ATOM     33  C   UNL     1      -7.166  12.521  20.508  0.00  0.00    +0.000 A 
ATOM     34  C   UNL     1      -5.765  12.508  20.394  0.00  0.00    +0.000 A 
ATOM     35  C   UNL     1      -5.143  11.982  19.132  0.00  0.00    +0.000 C 
ENDBRANCH  26  28
ENDBRANCH  23  24
ENDBRANCH   4  23
TORSDOF 7
ENDMDL
MODEL 8
REMARK VINA RESULT:      -7.9      4.423      9.081
REMARK  Name = 
REMARK  10 active torsions:
REMARK  status: ('A' for Active; 'I' for Inactive)
REMARK    1  A    between atoms: C_1  and  C_2
REMARK    2  A    between atoms: C_2  and  C_3
REMARK    3  A    between atoms: C_3  and  N_4
REMARK    4  A    between atoms: C_10  and  S_11
REMARK    5  A    between atoms: S_11  and  N_14
REMARK    6  A    between atoms: C_17  and  C_18
REMARK    7  A    between atoms: C_18  and  C_19
REMARK    8  A    between atoms: N_21  and  C_22
REMARK    9  A    between atoms: C_24  and  C_25
REMARK   10  A    between atoms: C_28  and  C_29
REMARK                            x       y       z     vdW  Elec       q    Type
REMARK                         _______ _______ _______ _____ _____    ______ ____
ROOT
ATOM      1  N   UNL     1       4.805   5.377  17.692  0.00  0.00    +0.000 NA
ATOM      2  C   UNL     1       4.973   6.836  17.499  0.00  0.00    +0.000 C 
ATOM      3  C   UNL     1       6.181   7.138  16.629  0.00  0.00    +0.000 C 
ATOM      4  C   UNL     1       7.478   6.525  17.182  0.00  0.00    +0.000 C 
ATOM      5  C   UNL     1       7.261   5.009  17.277  0.00  0.00    +0.000 C 
ATOM      6  C   UNL     1       6.024   4.607  18.087  0.00  0.00    +0.000 C 
ENDROOT
BRANCH   1   7
ATOM      7  S   UNL     1       3.369   4.925  18.509  0.00  0.00    +0.000 S 
ATOM      8  O   UNL     1       3.755   4.251  19.754  0.00  0.00    +0.000 OA
ATOM      9  O   UNL     1       2.478   4.287  17.566  0.00  0.00    +0.000 OA
BRANCH   7  16
ATOM     10  N   UNL     1       0.804   9.976  20.094  0.00  0.00    +0.000 N 
ATOM     11  C   UNL     1       0.799   9.758  21.451  0.00  0.00    +0.000 A 
ATOM     12  O   UNL     1       0.367  10.513  22.315  0.00  0.00    +0.000 OA
ATOM     13  O   UNL     1       1.379   8.509  21.768  0.00  0.00    +0.000 OA
ATOM     14  C   UNL     1       1.747   8.018  20.522  0.00  0.00    +0.000 A 
ATOM     15  C   UNL     1       2.344   6.794  20.276  0.00  0.00    +0.000 A 
ATOM     16  C   UNL     1       2.606   6.480  18.940  0.00  0.00    +0.000 A 
ATOM     17  C   UNL     1       2.322   7.398  17.907  0.00  0.00    +0.000 A 
ATOM     18  C   UNL     1       1.757   8.647  18.193  0.00  0.00    +0.000 A 
ATOM     19  C   UNL     1       1.441   8.911  19.506  0.00  0.00    +0.000 A 
BRANCH  10  20
ATOM     20  C   UNL     1       0.310  11.169  19.428  0.00  0.00    +0.000 C 
BRANCH  20  22
ATOM     21  C   UNL     1      -1.723  12.587  18.779  0.00  0.00    +0.000 C 
ATOM     22  C   UNL     1      -1.205  11.211  19.161  0.00  0.00    +0.000 C 
ENDBRANCH  20  22
ENDBRANCH  10  20
ENDBRANCH   7  16
ENDBRANCH   1   7
BRANCH   4  23
ATOM     23  C   UNL     1       7.961   7.166  18.505  0.00  0.00    +0.000 C 
BRANCH  23  24
ATOM     24  C   UNL     1       8.336   8.633  18.311  0.00  0.00    +0.000 C 
ATOM     25  O   UNL     1       8.085   9.220  17.262  0.00  0.00    +0.000 OA
ATOM     26  N   UNL     1       9.007   9.200  19.390  0.00  0.00    +0.000 N 
ATOM     27  H   UNL     1       9.573   8.571  19.945  0.00  0.00    +0.000 HD
BRANCH  26  28
ATOM     28  C   UNL     1       9.424  10.552  19.316  0.00  0.00    +0.000 A 
ATOM     29  C   UNL     1       9.996  11.019  18.124  0.00  0.00    +0.000 A 
ATOM     30  C   UNL     1      10.549  12.303  18.040  0.00  0.00    +0.000 A 
ATOM     31  C   UNL     1      11.285  12.738  16.808  0.00  0.00    +0.000 C 
ATOM     32  C   UNL     1      10.481  13.139  19.157  0.00  0.00    +0.000 A 
ATOM     33  C   UNL     1       9.867  12.698  20.333  0.00  0.00    +0.000 A 
ATOM     34  C   UNL     1       9.336  11.400  20.432  0.00  0.00    +0.000 A 
ATOM     35  C   UNL     1       8.834  10.920  21.763  0.00  0.00    +0.000 C 
ENDBRANCH  26  28
ENDBRANCH  23  24
ENDBRANCH   4  23
TORSDOF 7
ENDMDL
MODEL 9
REMARK VINA RESULT:      -7.9      4.770     10.160
REMARK  Name = 
REMARK  10 active torsions:
REMARK  status: ('A' for Active; 'I' for Inactive)
REMARK    1  A    between atoms: C_1  and  C_2
REMARK    2  A    between atoms: C_2  and  C_3
REMARK    3  A    between atoms: C_3  and  N_4
REMARK    4  A    between atoms: C_10  and  S_11
REMARK    5  A    between atoms: S_11  and  N_14
REMARK    6  A    between atoms: C_17  and  C_18
REMARK    7  A    between atoms: C_18  and  C_19
REMARK    8  A    between atoms: N_21  and  C_22
REMARK    9  A    between atoms: C_24  and  C_25
REMARK   10  A    between atoms: C_28  and  C_29
REMARK                            x       y       z     vdW  Elec       q    Type
REMARK                         _______ _______ _______ _____ _____    ______ ____
ROOT
ATOM      1  N   UNL     1      -0.910  11.621  21.650  0.00  0.00    +0.000 NA
ATOM      2  C   UNL     1      -0.559  11.262  20.256  0.00  0.00    +0.000 C 
ATOM      3  C   UNL     1      -0.811   9.788  19.990  0.00  0.00    +0.000 C 
ATOM      4  C   UNL     1      -0.067   8.872  20.975  0.00  0.00    +0.000 C 
ATOM      5  C   UNL     1      -0.539   9.243  22.387  0.00  0.00    +0.000 C 
ATOM      6  C   UNL     1      -0.382  10.728  22.727  0.00  0.00    +0.000 C 
ENDROOT
BRANCH   1   7
ATOM      7  S   UNL     1      -0.831  13.297  21.998  0.00  0.00    +0.000 S 
ATOM      8  O   UNL     1      -0.375  13.445  23.385  0.00  0.00    +0.000 OA
ATOM      9  O   UNL     1      -2.053  13.924  21.547  0.00  0.00    +0.000 OA
BRANCH   7  16
ATOM     10  N   UNL     1       3.301  15.392  18.373  0.00  0.00    +0.000 N 
ATOM     11  C   UNL     1       2.600  16.480  17.910  0.00  0.00    +0.000 A 
ATOM     12  O   UNL     1       2.989  17.313  17.098  0.00  0.00    +0.000 OA
ATOM     13  O   UNL     1       1.319  16.549  18.501  0.00  0.00    +0.000 OA
ATOM     14  C   UNL     1       1.317  15.454  19.356  0.00  0.00    +0.000 A 
ATOM     15  C   UNL     1       0.266  15.056  20.162  0.00  0.00    +0.000 A 
ATOM     16  C   UNL     1       0.462  13.903  20.927  0.00  0.00    +0.000 A 
ATOM     17  C   UNL     1       1.697  13.220  20.912  0.00  0.00    +0.000 A 
ATOM     18  C   UNL     1       2.757  13.675  20.117  0.00  0.00    +0.000 A 
ATOM     19  C   UNL     1       2.522  14.769  19.317  0.00  0.00    +0.000 A 
BRANCH  10  20
ATOM     20  C   UNL     1       4.658  15.037  17.995  0.00  0.00    +0.000 C 
BRANCH  20  22
ATOM     21  C   UNL     1       5.890  15.761  20.121  0.00  0.00    +0.000 C 
ATOM     22  C   UNL     1       5.775  15.896  18.613  0.00  0.00    +0.000 C 
ENDBRANCH  20  22
ENDBRANCH  10  20
ENDBRANCH   7  16
ENDBRANCH   1   7
BRANCH   4  23
ATOM     23  C   UNL     1       1.472   8.892  20.811  0.00  0.00    +0.000 C 
BRANCH  23  24
ATOM     24  C   UNL     1       1.929   7.938  19.712  0.00  0.00    +0.000 C 
ATOM     25  O   UNL     1       1.856   8.251  18.526  0.00  0.00    +0.000 OA
ATOM     26  N   UNL     1       2.377   6.705  20.175  0.00  0.00    +0.000 N 
ATOM     27  H   UNL     1       1.961   6.372  21.034  0.00  0.00    +0.000 HD
BRANCH  26  28
ATOM     28  C   UNL     1       2.808   5.727  19.243  0.00  0.00    +0.000 A 
ATOM     29  C   UNL     1       3.825   6.059  18.337  0.00  0.00    +0.000 A 
ATOM     30  C   UNL     1       4.194   5.183  17.308  0.00  0.00    +0.000 A 
ATOM     31  C   UNL     1       5.179   5.607  16.260  0.00  0.00    +0.000 C 
ATOM     32  C   UNL     1       3.562   3.940  17.225  0.00  0.00    +0.000 A 
ATOM     33  C   UNL     1       2.583   3.582  18.157  0.00  0.00    +0.000 A 
ATOM     34  C   UNL     1       2.189   4.469  19.173  0.00  0.00    +0.000 A 
ATOM     35  C   UNL     1       1.023   4.102  20.046  0.00  0.00    +0.000 C 
ENDBRANCH  26  28
ENDBRANCH  23  24
ENDBRANCH   4  23
TORSDOF 7
ENDMDL
