MODEL 1
REMARK VINA RESULT:      -8.6      0.000      0.000
REMARK  Name = 
REMARK  5 active torsions:
REMARK  status: ('A' for Active; 'I' for Inactive)
REMARK    1  A    between atoms: C_2  and  C_22
REMARK    2  A    between atoms: N_3  and  C_4
REMARK    3  A    between atoms: N_12  and  C_13
REMARK    4  A    between atoms: C_24  and  C_25
REMARK    5  A    between atoms: C_25  and  N_26
REMARK                            x       y       z     vdW  Elec       q    Type
REMARK                         _______ _______ _______ _____ _____    ______ ____
ROOT
ATOM      1  C   UNL     1       1.876   7.009  19.905  0.00  0.00    +0.000 A 
ATOM      2  C   UNL     1       1.565   6.135  20.942  0.00  0.00    +0.000 A 
ATOM      3  C   UNL     1       2.059   4.829  20.940  0.00  0.00    +0.000 A 
ATOM      4  C   UNL     1       2.903   4.369  19.944  0.00  0.00    +0.000 A 
ATOM      5  N   UNL     1       3.398   3.134  20.062  0.00  0.00    +0.000 NA
ATOM      6  C   UNL     1       4.254   2.747  19.116  0.00  0.00    +0.000 A 
ATOM      7  N   UNL     1       4.652   3.475  18.072  0.00  0.00    +0.000 NA
ATOM      8  C   UNL     1       4.143   4.715  17.952  0.00  0.00    +0.000 A 
ATOM      9  N   UNL     1       4.586   5.551  16.886  0.00  0.00    +0.000 N 
ATOM     10  C   UNL     1       3.218   5.229  18.883  0.00  0.00    +0.000 A 
ATOM     11  C   UNL     1       2.642   6.530  18.840  0.00  0.00    +0.000 A 
ATOM     12  H   UNL     1       4.866   6.445  17.277  0.00  0.00    +0.000 HD
ENDROOT
BRANCH   9  13
ATOM     13  C   UNL     1       5.436   5.201  15.807  0.00  0.00    +0.000 A 
ATOM     14  C   UNL     1       6.823   5.389  15.843  0.00  0.00    +0.000 A 
ATOM     15  C   UNL     1       7.635   5.025  14.765  0.00  0.00    +0.000 A 
ATOM     16  C   UNL     1       7.074   4.417  13.648  0.00  0.00    +0.000 A 
ATOM     17  C   UNL     1       5.707   4.159  13.627  0.00  0.00    +0.000 A 
ATOM     18 BR   UNL     1       4.945   3.290  12.129  0.00  0.00    +0.000 Br
ATOM     19  C   UNL     1       4.893   4.533  14.699  0.00  0.00    +0.000 A 
ENDBRANCH   9  13
BRANCH   1  22
ATOM     20  O   UNL     1       1.280   8.757  22.187  0.00  0.00    +0.000 OA
ATOM     21  C   UNL     1       1.281   9.135  21.027  0.00  0.00    +0.000 C 
ATOM     22  N   UNL     1       1.513   8.371  19.900  0.00  0.00    +0.000 N 
ATOM     23  H   UNL     1       1.606   8.892  19.034  0.00  0.00    +0.000 HD
BRANCH  21  24
ATOM     24  C   UNL     1       1.046  10.574  20.777  0.00  0.00    +0.000 C 
ATOM     25  O   UNL     1       0.509  11.379  21.834  0.00  0.00    +0.000 OA
ATOM     26  C   UNL     1      -0.372  11.102  20.737  0.00  0.00    +0.000 C 
BRANCH  26  27
ATOM     27  C   UNL     1      -0.677  12.178  19.740  0.00  0.00    +0.000 C 
BRANCH  27  28
ATOM     28  N   UNL     1      -1.467  11.759  18.569  0.00  0.00    +0.000 NA
ATOM     29  C   UNL     1      -1.136  10.385  18.155  0.00  0.00    +0.000 C 
ATOM     30  C   UNL     1      -1.965   9.955  16.944  0.00  0.00    +0.000 C 
ATOM     31  C   UNL     1      -3.456  10.031  17.241  0.00  0.00    +0.000 C 
ATOM     32  C   UNL     1      -3.820  11.414  17.764  0.00  0.00    +0.000 C 
ATOM     33  C   UNL     1      -2.905  11.845  18.913  0.00  0.00    +0.000 C 
ENDBRANCH  27  28
ENDBRANCH  26  27
ENDBRANCH  21  24
ENDBRANCH   1  22
TORSDOF 5
ENDMDL
MODEL 2
REMARK VINA RESULT:      -8.5      1.873      2.307
REMARK  Name = 
REMARK  5 active torsions:
REMARK  status: ('A' for Active; 'I' for Inactive)
REMARK    1  A    between atoms: C_2  and  C_22
REMARK    2  A    between atoms: N_3  and  C_4
REMARK    3  A    between atoms: N_12  and  C_13
REMARK    4  A    between atoms: C_24  and  C_25
REMARK    5  A    between atoms: C_25  and  N_26
REMARK                            x       y       z     vdW  Elec       q    Type
REMARK                         _______ _______ _______ _____ _____    ______ ____
ROOT
ATOM      1  C   UNL     1       1.930   6.267  20.247  0.00  0.00    +0.000 A 
ATOM      2  C   UNL     1       1.339   5.219  20.945  0.00  0.00    +0.000 A 
ATOM      3  C   UNL     1       1.540   3.897  20.542  0.00  0.00    +0.000 A 
ATOM      4  C   UNL     1       2.361   3.577  19.475  0.00  0.00    +0.000 A 
ATOM      5  N   UNL     1       2.567   2.284  19.209  0.00  0.00    +0.000 NA
ATOM      6  C   UNL     1       3.410   2.012  18.211  0.00  0.00    +0.000 A 
ATOM      7  N   UNL     1       4.056   2.908  17.464  0.00  0.00    +0.000 NA
ATOM      8  C   UNL     1       3.838   4.208  17.730  0.00  0.00    +0.000 A 
ATOM      9  N   UNL     1       4.552   5.200  16.996  0.00  0.00    +0.000 N 
ATOM     10  C   UNL     1       2.956   4.618  18.750  0.00  0.00    +0.000 A 
ATOM     11  C   UNL     1       2.678   5.968  19.106  0.00  0.00    +0.000 A 
ATOM     12  H   UNL     1       4.977   5.842  17.658  0.00  0.00    +0.000 HD
ENDROOT
BRANCH   9  13
ATOM     13  C   UNL     1       5.410   5.005  15.886  0.00  0.00    +0.000 A 
ATOM     14  C   UNL     1       6.773   5.326  15.914  0.00  0.00    +0.000 A 
ATOM     15  C   UNL     1       7.595   5.112  14.805  0.00  0.00    +0.000 A 
ATOM     16  C   UNL     1       7.074   4.523  13.658  0.00  0.00    +0.000 A 
ATOM     17  C   UNL     1       5.738   4.133  13.639  0.00  0.00    +0.000 A 
ATOM     18 BR   UNL     1       5.035   3.289  12.099  0.00  0.00    +0.000 Br
ATOM     19  C   UNL     1       4.914   4.357  14.744  0.00  0.00    +0.000 A 
ENDBRANCH   9  13
BRANCH   1  22
ATOM     20  O   UNL     1      -0.326   7.716  21.443  0.00  0.00    +0.000 OA
ATOM     21  C   UNL     1       0.772   8.213  21.252  0.00  0.00    +0.000 C 
ATOM     22  N   UNL     1       1.869   7.613  20.665  0.00  0.00    +0.000 N 
ATOM     23  H   UNL     1       2.733   8.141  20.719  0.00  0.00    +0.000 HD
BRANCH  21  24
ATOM     24  C   UNL     1       0.989   9.597  21.729  0.00  0.00    +0.000 C 
ATOM     25  O   UNL     1       0.729   9.900  23.105  0.00  0.00    +0.000 OA
ATOM     26  C   UNL     1      -0.199  10.434  22.150  0.00  0.00    +0.000 C 
BRANCH  26  27
ATOM     27  C   UNL     1      -0.164  11.895  21.817  0.00  0.00    +0.000 C 
BRANCH  27  28
ATOM     28  N   UNL     1      -1.440  12.615  21.966  0.00  0.00    +0.000 NA
ATOM     29  C   UNL     1      -2.223  12.595  20.717  0.00  0.00    +0.000 C 
ATOM     30  C   UNL     1      -3.549  13.338  20.882  0.00  0.00    +0.000 C 
ATOM     31  C   UNL     1      -4.389  12.730  21.996  0.00  0.00    +0.000 C 
ATOM     32  C   UNL     1      -3.577  12.646  23.282  0.00  0.00    +0.000 C 
ATOM     33  C   UNL     1      -2.218  11.980  23.053  0.00  0.00    +0.000 C 
ENDBRANCH  27  28
ENDBRANCH  26  27
ENDBRANCH  21  24
ENDBRANCH   1  22
TORSDOF 5
ENDMDL
MODEL 3
REMARK VINA RESULT:      -8.4      1.251      1.504
REMARK  Name = 
REMARK  5 active torsions:
REMARK  status: ('A' for Active; 'I' for Inactive)
REMARK    1  A    between atoms: C_2  and  C_22
REMARK    2  A    between atoms: N_3  and  C_4
REMARK    3  A    between atoms: N_12  and  C_13
REMARK    4  A    between atoms: C_24  and  C_25
REMARK    5  A    between atoms: C_25  and  N_26
REMARK                            x       y       z     vdW  Elec       q    Type
REMARK                         _______ _______ _______ _____ _____    ______ ____
ROOT
ATOM      1  C   UNL     1       1.999   6.282  20.246  0.00  0.00    +0.000 A 
ATOM      2  C   UNL     1       1.382   5.240  20.931  0.00  0.00    +0.000 A 
ATOM      3  C   UNL     1       1.548   3.919  20.509  0.00  0.00    +0.000 A 
ATOM      4  C   UNL     1       2.357   3.592  19.435  0.00  0.00    +0.000 A 
ATOM      5  N   UNL     1       2.527   2.298  19.151  0.00  0.00    +0.000 NA
ATOM      6  C   UNL     1       3.360   2.018  18.147  0.00  0.00    +0.000 A 
ATOM      7  N   UNL     1       4.028   2.906  17.411  0.00  0.00    +0.000 NA
ATOM      8  C   UNL     1       3.845   4.208  17.695  0.00  0.00    +0.000 A 
ATOM      9  N   UNL     1       4.583   5.191  16.973  0.00  0.00    +0.000 N 
ATOM     10  C   UNL     1       2.977   4.627  18.723  0.00  0.00    +0.000 A 
ATOM     11  C   UNL     1       2.736   5.979  19.099  0.00  0.00    +0.000 A 
ATOM     12  H   UNL     1       5.026   5.813  17.642  0.00  0.00    +0.000 HD
ENDROOT
BRANCH   9  13
ATOM     13  C   UNL     1       5.433   4.989  15.857  0.00  0.00    +0.000 A 
ATOM     14  C   UNL     1       6.802   5.278  15.884  0.00  0.00    +0.000 A 
ATOM     15  C   UNL     1       7.615   5.058  14.769  0.00  0.00    +0.000 A 
ATOM     16  C   UNL     1       7.077   4.494  13.618  0.00  0.00    +0.000 A 
ATOM     17  C   UNL     1       5.733   4.135  13.599  0.00  0.00    +0.000 A 
ATOM     18 BR   UNL     1       5.005   3.324  12.052  0.00  0.00    +0.000 Br
ATOM     19  C   UNL     1       4.917   4.365  14.710  0.00  0.00    +0.000 A 
ENDBRANCH   9  13
BRANCH   1  22
ATOM     20  O   UNL     1      -0.265   7.828  21.298  0.00  0.00    +0.000 OA
ATOM     21  C   UNL     1       0.868   8.270  21.198  0.00  0.00    +0.000 C 
ATOM     22  N   UNL     1       1.975   7.623  20.682  0.00  0.00    +0.000 N 
ATOM     23  H   UNL     1       2.858   8.104  20.810  0.00  0.00    +0.000 HD
BRANCH  21  24
ATOM     24  C   UNL     1       1.118   9.634  21.714  0.00  0.00    +0.000 C 
ATOM     25  O   UNL     1       0.779   9.928  23.075  0.00  0.00    +0.000 OA
ATOM     26  C   UNL     1      -0.055  10.522  22.069  0.00  0.00    +0.000 C 
BRANCH  26  27
ATOM     27  C   UNL     1       0.075  11.984  21.767  0.00  0.00    +0.000 C 
BRANCH  27  28
ATOM     28  N   UNL     1      -0.631  12.453  20.561  0.00  0.00    +0.000 NA
ATOM     29  C   UNL     1       0.261  12.487  19.390  0.00  0.00    +0.000 C 
ATOM     30  C   UNL     1      -0.481  12.967  18.142  0.00  0.00    +0.000 C 
ATOM     31  C   UNL     1      -1.669  12.069  17.826  0.00  0.00    +0.000 C 
ATOM     32  C   UNL     1      -2.566  11.932  19.049  0.00  0.00    +0.000 C 
ATOM     33  C   UNL     1      -1.769  11.543  20.296  0.00  0.00    +0.000 C 
ENDBRANCH  27  28
ENDBRANCH  26  27
ENDBRANCH  21  24
ENDBRANCH   1  22
TORSDOF 5
ENDMDL
MODEL 4
REMARK VINA RESULT:      -8.3      1.128      1.194
REMARK  Name = 
REMARK  5 active torsions:
REMARK  status: ('A' for Active; 'I' for Inactive)
REMARK    1  A    between atoms: C_2  and  C_22
REMARK    2  A    between atoms: N_3  and  C_4
REMARK    3  A    between atoms: N_12  and  C_13
REMARK    4  A    between atoms: C_24  and  C_25
REMARK    5  A    between atoms: C_25  and  N_26
REMARK                            x       y       z     vdW  Elec       q    Type
REMARK                         _______ _______ _______ _____ _____    ______ ____
ROOT
ATOM      1  C   UNL     1       2.019   7.115  19.795  0.00  0.00    +0.000 A 
ATOM      2  C   UNL     1       1.573   6.223  20.765  0.00  0.00    +0.000 A 
ATOM      3  C   UNL     1       1.900   4.868  20.685  0.00  0.00    +0.000 A 
ATOM      4  C   UNL     1       2.707   4.370  19.678  0.00  0.00    +0.000 A 
ATOM      5  N   UNL     1       3.041   3.078  19.722  0.00  0.00    +0.000 NA
ATOM      6  C   UNL     1       3.868   2.646  18.769  0.00  0.00    +0.000 A 
ATOM      7  N   UNL     1       4.383   3.384  17.785  0.00  0.00    +0.000 NA
ATOM      8  C   UNL     1       4.036   4.683  17.738  0.00  0.00    +0.000 A 
ATOM      9  N   UNL     1       4.608   5.523  16.739  0.00  0.00    +0.000 N 
ATOM     10  C   UNL     1       3.156   5.249  18.683  0.00  0.00    +0.000 A 
ATOM     11  C   UNL     1       2.748   6.612  18.715  0.00  0.00    +0.000 A 
ATOM     12  H   UNL     1       4.987   6.347  17.194  0.00  0.00    +0.000 HD
ENDROOT
BRANCH   9  13
ATOM     13  C   UNL     1       5.437   5.138  15.656  0.00  0.00    +0.000 A 
ATOM     14  C   UNL     1       6.831   5.276  15.681  0.00  0.00    +0.000 A 
ATOM     15  C   UNL     1       7.621   4.878  14.599  0.00  0.00    +0.000 A 
ATOM     16  C   UNL     1       7.031   4.286  13.488  0.00  0.00    +0.000 A 
ATOM     17  C   UNL     1       5.655   4.077  13.478  0.00  0.00    +0.000 A 
ATOM     18 BR   UNL     1       4.852   3.231  11.989  0.00  0.00    +0.000 Br
ATOM     19  C   UNL     1       4.863   4.485  14.554  0.00  0.00    +0.000 A 
ENDBRANCH   9  13
BRANCH   1  22
ATOM     20  O   UNL     1       1.136   8.968  17.695  0.00  0.00    +0.000 OA
ATOM     21  C   UNL     1       1.376   9.309  18.842  0.00  0.00    +0.000 C 
ATOM     22  N   UNL     1       1.829   8.510  19.874  0.00  0.00    +0.000 N 
ATOM     23  H   UNL     1       1.840   8.947  20.789  0.00  0.00    +0.000 HD
BRANCH  21  24
ATOM     24  C   UNL     1       1.127  10.723  19.201  0.00  0.00    +0.000 C 
ATOM     25  O   UNL     1       1.007  11.071  20.585  0.00  0.00    +0.000 OA
ATOM     26  C   UNL     1      -0.201  11.113  19.813  0.00  0.00    +0.000 C 
BRANCH  26  27
ATOM     27  C   UNL     1      -0.780  12.436  19.412  0.00  0.00    +0.000 C 
BRANCH  27  28
ATOM     28  N   UNL     1      -2.050  12.378  18.667  0.00  0.00    +0.000 NA
ATOM     29  C   UNL     1      -2.074  11.247  17.724  0.00  0.00    +0.000 C 
ATOM     30  C   UNL     1      -3.398  11.190  16.960  0.00  0.00    +0.000 C 
ATOM     31  C   UNL     1      -4.579  11.060  17.912  0.00  0.00    +0.000 C 
ATOM     32  C   UNL     1      -4.533  12.160  18.963  0.00  0.00    +0.000 C 
ATOM     33  C   UNL     1      -3.161  12.245  19.637  0.00  0.00    +0.000 C 
ENDBRANCH  27  28
ENDBRANCH  26  27
ENDBRANCH  21  24
ENDBRANCH   1  22
TORSDOF 5
ENDMDL
MODEL 5
REMARK VINA RESULT:      -8.2      2.015      2.572
REMARK  Name = 
REMARK  5 active torsions:
REMARK  status: ('A' for Active; 'I' for Inactive)
REMARK    1  A    between atoms: C_2  and  C_22
REMARK    2  A    between atoms: N_3  and  C_4
REMARK    3  A    between atoms: N_12  and  C_13
REMARK    4  A    between atoms: C_24  and  C_25
REMARK    5  A    between atoms: C_25  and  N_26
REMARK                            x       y       z     vdW  Elec       q    Type
REMARK                         _______ _______ _______ _____ _____    ______ ____
ROOT
ATOM      1  C   UNL     1       1.836   5.728  20.408  0.00  0.00    +0.000 A 
ATOM      2  C   UNL     1       1.218   4.612  20.965  0.00  0.00    +0.000 A 
ATOM      3  C   UNL     1       1.435   3.341  20.429  0.00  0.00    +0.000 A 
ATOM      4  C   UNL     1       2.296   3.135  19.366  0.00  0.00    +0.000 A 
ATOM      5  N   UNL     1       2.512   1.878  18.968  0.00  0.00    +0.000 NA
ATOM      6  C   UNL     1       3.392   1.713  17.980  0.00  0.00    +0.000 A 
ATOM      7  N   UNL     1       4.066   2.681  17.360  0.00  0.00    +0.000 NA
ATOM      8  C   UNL     1       3.837   3.946  17.756  0.00  0.00    +0.000 A 
ATOM      9  N   UNL     1       4.579   5.009  17.162  0.00  0.00    +0.000 N 
ATOM     10  C   UNL     1       2.918   4.247  18.781  0.00  0.00    +0.000 A 
ATOM     11  C   UNL     1       2.626   5.551  19.270  0.00  0.00    +0.000 A 
ATOM     12  H   UNL     1       4.978   5.574  17.905  0.00  0.00    +0.000 HD
ENDROOT
BRANCH   9  13
ATOM     13  C   UNL     1       5.479   4.932  16.070  0.00  0.00    +0.000 A 
ATOM     14  C   UNL     1       6.803   5.380  16.145  0.00  0.00    +0.000 A 
ATOM     15  C   UNL     1       7.668   5.281  15.052  0.00  0.00    +0.000 A 
ATOM     16  C   UNL     1       7.234   4.682  13.875  0.00  0.00    +0.000 A 
ATOM     17  C   UNL     1       5.943   4.168  13.807  0.00  0.00    +0.000 A 
ATOM     18 BR   UNL     1       5.361   3.312  12.224  0.00  0.00    +0.000 Br
ATOM     19  C   UNL     1       5.074   4.277  14.896  0.00  0.00    +0.000 A 
ENDBRANCH   9  13
BRANCH   1  22
ATOM     20  O   UNL     1       1.578   8.308  19.032  0.00  0.00    +0.000 OA
ATOM     21  C   UNL     1       1.604   8.189  20.245  0.00  0.00    +0.000 C 
ATOM     22  N   UNL     1       1.758   7.020  20.967  0.00  0.00    +0.000 N 
ATOM     23  H   UNL     1       1.617   7.105  21.967  0.00  0.00    +0.000 HD
BRANCH  21  24
ATOM     24  C   UNL     1       1.412   9.411  21.057  0.00  0.00    +0.000 C 
ATOM     25  O   UNL     1       0.852   9.285  22.370  0.00  0.00    +0.000 OA
ATOM     26  C   UNL     1       0.009   9.881  21.375  0.00  0.00    +0.000 C 
BRANCH  26  27
ATOM     27  C   UNL     1      -0.232  11.360  21.396  0.00  0.00    +0.000 C 
BRANCH  27  28
ATOM     28  N   UNL     1      -1.611  11.779  21.704  0.00  0.00    +0.000 NA
ATOM     29  C   UNL     1      -1.822  11.925  23.154  0.00  0.00    +0.000 C 
ATOM     30  C   UNL     1      -3.253  12.367  23.464  0.00  0.00    +0.000 C 
ATOM     31  C   UNL     1      -3.583  13.689  22.785  0.00  0.00    +0.000 C 
ATOM     32  C   UNL     1      -3.284  13.605  21.294  0.00  0.00    +0.000 C 
ATOM     33  C   UNL     1      -1.875  13.069  21.027  0.00  0.00    +0.000 C 
ENDBRANCH  27  28
ENDBRANCH  26  27
ENDBRANCH  21  24
ENDBRANCH   1  22
TORSDOF 5
ENDMDL
MODEL 6
REMARK VINA RESULT:      -8.2      0.564      1.032
REMARK  Name = 
REMARK  5 active torsions:
REMARK  status: ('A' for Active; 'I' for Inactive)
REMARK    1  A    between atoms: C_2  and  C_22
REMARK    2  A    between atoms: N_3  and  C_4
REMARK    3  A    between atoms: N_12  and  C_13
REMARK    4  A    between atoms: C_24  and  C_25
REMARK    5  A    between atoms: C_25  and  N_26
REMARK                            x       y       z     vdW  Elec       q    Type
REMARK                         _______ _______ _______ _____ _____    ______ ____
ROOT
ATOM      1  C   UNL     1       1.792   6.923  19.883  0.00  0.00    +0.000 A 
ATOM      2  C   UNL     1       1.551   6.078  20.962  0.00  0.00    +0.000 A 
ATOM      3  C   UNL     1       2.131   4.809  21.011  0.00  0.00    +0.000 A 
ATOM      4  C   UNL     1       2.992   4.361  20.025  0.00  0.00    +0.000 A 
ATOM      5  N   UNL     1       3.569   3.168  20.191  0.00  0.00    +0.000 NA
ATOM      6  C   UNL     1       4.438   2.796  19.250  0.00  0.00    +0.000 A 
ATOM      7  N   UNL     1       4.776   3.501  18.170  0.00  0.00    +0.000 NA
ATOM      8  C   UNL     1       4.184   4.698  18.003  0.00  0.00    +0.000 A 
ATOM      9  N   UNL     1       4.559   5.512  16.894  0.00  0.00    +0.000 N 
ATOM     10  C   UNL     1       3.237   5.191  18.923  0.00  0.00    +0.000 A 
ATOM     11  C   UNL     1       2.576   6.448  18.830  0.00  0.00    +0.000 A 
ATOM     12  H   UNL     1       4.783   6.440  17.242  0.00  0.00    +0.000 HD
ENDROOT
BRANCH   9  13
ATOM     13  C   UNL     1       5.418   5.171  15.820  0.00  0.00    +0.000 A 
ATOM     14  C   UNL     1       6.806   5.351  15.872  0.00  0.00    +0.000 A 
ATOM     15  C   UNL     1       7.626   4.995  14.799  0.00  0.00    +0.000 A 
ATOM     16  C   UNL     1       7.074   4.404  13.668  0.00  0.00    +0.000 A 
ATOM     17  C   UNL     1       5.706   4.153  13.630  0.00  0.00    +0.000 A 
ATOM     18 BR   UNL     1       4.954   3.307  12.114  0.00  0.00    +0.000 Br
ATOM     19  C   UNL     1       4.883   4.519  14.698  0.00  0.00    +0.000 A 
ENDBRANCH   9  13
BRANCH   1  22
ATOM     20  O   UNL     1       1.477   8.854  22.073  0.00  0.00    +0.000 OA
ATOM     21  C   UNL     1       1.251   9.115  20.903  0.00  0.00    +0.000 C 
ATOM     22  N   UNL     1       1.339   8.257  19.823  0.00  0.00    +0.000 N 
ATOM     23  H   UNL     1       1.245   8.694  18.913  0.00  0.00    +0.000 HD
BRANCH  21  24
ATOM     24  C   UNL     1       0.877  10.508  20.572  0.00  0.00    +0.000 C 
ATOM     25  O   UNL     1       0.536  11.401  21.640  0.00  0.00    +0.000 OA
ATOM     26  C   UNL     1      -0.546  10.971  20.801  0.00  0.00    +0.000 C 
BRANCH  26  27
ATOM     27  C   UNL     1      -1.130  11.919  19.798  0.00  0.00    +0.000 C 
BRANCH  27  28
ATOM     28  N   UNL     1      -2.276  11.408  19.027  0.00  0.00    +0.000 NA
ATOM     29  C   UNL     1      -3.516  12.135  19.352  0.00  0.00    +0.000 C 
ATOM     30  C   UNL     1      -4.699  11.603  18.542  0.00  0.00    +0.000 C 
ATOM     31  C   UNL     1      -4.441  11.718  17.046  0.00  0.00    +0.000 C 
ATOM     32  C   UNL     1      -3.116  11.059  16.687  0.00  0.00    +0.000 C 
ATOM     33  C   UNL     1      -1.977  11.550  17.584  0.00  0.00    +0.000 C 
ENDBRANCH  27  28
ENDBRANCH  26  27
ENDBRANCH  21  24
ENDBRANCH   1  22
TORSDOF 5
ENDMDL
MODEL 7
REMARK VINA RESULT:      -8.1      1.249      1.537
REMARK  Name = 
REMARK  5 active torsions:
REMARK  status: ('A' for Active; 'I' for Inactive)
REMARK    1  A    between atoms: C_2  and  C_22
REMARK    2  A    between atoms: N_3  and  C_4
REMARK    3  A    between atoms: N_12  and  C_13
REMARK    4  A    between atoms: C_24  and  C_25
REMARK    5  A    between atoms: C_25  and  N_26
REMARK                            x       y       z     vdW  Elec       q    Type
REMARK                         _______ _______ _______ _____ _____    ______ ____
ROOT
ATOM      1  C   UNL     1       1.922   7.174  19.724  0.00  0.00    +0.000 A 
ATOM      2  C   UNL     1       1.624   6.337  20.795  0.00  0.00    +0.000 A 
ATOM      3  C   UNL     1       2.127   5.035  20.837  0.00  0.00    +0.000 A 
ATOM      4  C   UNL     1       2.967   4.544  19.853  0.00  0.00    +0.000 A 
ATOM      5  N   UNL     1       3.471   3.318  20.012  0.00  0.00    +0.000 NA
ATOM      6  C   UNL     1       4.322   2.901  19.074  0.00  0.00    +0.000 A 
ATOM      7  N   UNL     1       4.708   3.593  18.001  0.00  0.00    +0.000 NA
ATOM      8  C   UNL     1       4.190   4.824  17.840  0.00  0.00    +0.000 A 
ATOM      9  N   UNL     1       4.618   5.623  16.740  0.00  0.00    +0.000 N 
ATOM     10  C   UNL     1       3.268   5.366  18.758  0.00  0.00    +0.000 A 
ATOM     11  C   UNL     1       2.683   6.661  18.671  0.00  0.00    +0.000 A 
ATOM     12  H   UNL     1       4.896   6.533  17.096  0.00  0.00    +0.000 HD
ENDROOT
BRANCH   9  13
ATOM     13  C   UNL     1       5.462   5.240  15.668  0.00  0.00    +0.000 A 
ATOM     14  C   UNL     1       6.848   5.443  15.683  0.00  0.00    +0.000 A 
ATOM     15  C   UNL     1       7.654   5.045  14.614  0.00  0.00    +0.000 A 
ATOM     16  C   UNL     1       7.090   4.386  13.527  0.00  0.00    +0.000 A 
ATOM     17  C   UNL     1       5.725   4.113  13.529  0.00  0.00    +0.000 A 
ATOM     18 BR   UNL     1       4.959   3.177  12.074  0.00  0.00    +0.000 Br
ATOM     19  C   UNL     1       4.917   4.521  14.593  0.00  0.00    +0.000 A 
ENDBRANCH   9  13
BRANCH   1  22
ATOM     20  O   UNL     1       2.028   9.018  17.442  0.00  0.00    +0.000 OA
ATOM     21  C   UNL     1       1.600   9.327  18.542  0.00  0.00    +0.000 C 
ATOM     22  N   UNL     1       1.550   8.533  19.672  0.00  0.00    +0.000 N 
ATOM     23  H   UNL     1       1.035   8.922  20.453  0.00  0.00    +0.000 HD
BRANCH  21  24
ATOM     24  C   UNL     1       1.031  10.684  18.698  0.00  0.00    +0.000 C 
ATOM     25  O   UNL     1       1.205  11.364  19.947  0.00  0.00    +0.000 OA
ATOM     26  C   UNL     1      -0.121  10.902  19.655  0.00  0.00    +0.000 C 
BRANCH  26  27
ATOM     27  C   UNL     1      -1.176  11.886  19.247  0.00  0.00    +0.000 C 
BRANCH  27  28
ATOM     28  N   UNL     1      -2.364  11.313  18.591  0.00  0.00    +0.000 NA
ATOM     29  C   UNL     1      -3.591  12.042  18.958  0.00  0.00    +0.000 C 
ATOM     30  C   UNL     1      -4.818  11.446  18.266  0.00  0.00    +0.000 C 
ATOM     31  C   UNL     1      -4.666  11.473  16.752  0.00  0.00    +0.000 C 
ATOM     32  C   UNL     1      -3.358  10.811  16.342  0.00  0.00    +0.000 C 
ATOM     33  C   UNL     1      -2.168  11.370  17.124  0.00  0.00    +0.000 C 
ENDBRANCH  27  28
ENDBRANCH  26  27
ENDBRANCH  21  24
ENDBRANCH   1  22
TORSDOF 5
ENDMDL
MODEL 8
REMARK VINA RESULT:      -8.0      7.701     10.979
REMARK  Name = 
REMARK  5 active torsions:
REMARK  status: ('A' for Active; 'I' for Inactive)
REMARK    1  A    between atoms: C_2  and  C_22
REMARK    2  A    between atoms: N_3  and  C_4
REMARK    3  A    between atoms: N_12  and  C_13
REMARK    4  A    between atoms: C_24  and  C_25
REMARK    5  A    between atoms: C_25  and  N_26
REMARK                            x       y       z     vdW  Elec       q    Type
REMARK                         _______ _______ _______ _____ _____    ______ ____
ROOT
ATOM      1  C   UNL     1       9.283  10.218  19.035  0.00  0.00    +0.000 A 
ATOM      2  C   UNL     1      10.029  10.900  18.079  0.00  0.00    +0.000 A 
ATOM      3  C   UNL     1      10.490  12.194  18.331  0.00  0.00    +0.000 A 
ATOM      4  C   UNL     1      10.265  12.826  19.541  0.00  0.00    +0.000 A 
ATOM      5  N   UNL     1      10.812  14.030  19.731  0.00  0.00    +0.000 NA
ATOM      6  C   UNL     1      10.623  14.583  20.930  0.00  0.00    +0.000 A 
ATOM      7  N   UNL     1       9.942  14.046  21.943  0.00  0.00    +0.000 NA
ATOM      8  C   UNL     1       9.384  12.839  21.744  0.00  0.00    +0.000 A 
ATOM      9  N   UNL     1       8.697  12.201  22.817  0.00  0.00    +0.000 N 
ATOM     10  C   UNL     1       9.503  12.162  20.513  0.00  0.00    +0.000 A 
ATOM     11  C   UNL     1       8.958  10.880  20.221  0.00  0.00    +0.000 A 
ATOM     12  H   UNL     1       9.060  11.257  22.912  0.00  0.00    +0.000 HD
ENDROOT
BRANCH   9  13
ATOM     13  C   UNL     1       8.395  12.739  24.093  0.00  0.00    +0.000 A 
ATOM     14  C   UNL     1       8.561  14.094  24.403  0.00  0.00    +0.000 A 
ATOM     15  C   UNL     1       8.245  14.595  25.669  0.00  0.00    +0.000 A 
ATOM     16  C   UNL     1       7.707  13.753  26.635  0.00  0.00    +0.000 A 
ATOM     17  C   UNL     1       7.470  12.418  26.320  0.00  0.00    +0.000 A 
ATOM     18 BR   UNL     1       6.696  11.277  27.614  0.00  0.00    +0.000 Br
ATOM     19  C   UNL     1       7.796  11.914  25.058  0.00  0.00    +0.000 A 
ENDBRANCH   9  13
BRANCH   1  22
ATOM     20  O   UNL     1       7.287   9.067  17.215  0.00  0.00    +0.000 OA
ATOM     21  C   UNL     1       7.959   8.405  17.989  0.00  0.00    +0.000 C 
ATOM     22  N   UNL     1       8.888   8.871  18.899  0.00  0.00    +0.000 N 
ATOM     23  H   UNL     1       9.443   8.157  19.358  0.00  0.00    +0.000 HD
BRANCH  21  24
ATOM     24  C   UNL     1       7.807   6.934  17.940  0.00  0.00    +0.000 C 
ATOM     25  O   UNL     1       7.526   6.312  16.680  0.00  0.00    +0.000 OA
ATOM     26  C   UNL     1       6.452   6.334  17.630  0.00  0.00    +0.000 C 
BRANCH  26  27
ATOM     27  C   UNL     1       6.075   5.078  18.354  0.00  0.00    +0.000 C 
BRANCH  27  28
ATOM     28  N   UNL     1       4.635   4.895  18.611  0.00  0.00    +0.000 NA
ATOM     29  C   UNL     1       3.821   5.837  17.823  0.00  0.00    +0.000 C 
ATOM     30  C   UNL     1       2.328   5.636  18.089  0.00  0.00    +0.000 C 
ATOM     31  C   UNL     1       1.894   4.216  17.757  0.00  0.00    +0.000 C 
ATOM     32  C   UNL     1       2.779   3.211  18.481  0.00  0.00    +0.000 C 
ATOM     33  C   UNL     1       4.266   3.504  18.265  0.00  0.00    +0.000 C 
ENDBRANCH  27  28
ENDBRANCH  26  27
ENDBRANCH  21  24
ENDBRANCH   1  22
TORSDOF 5
ENDMDL
MODEL 9
REMARK VINA RESULT:      -8.0      7.379     10.691
REMARK  Name = 
REMARK  5 active torsions:
REMARK  status: ('A' for Active; 'I' for Inactive)
REMARK    1  A    between atoms: C_2  and  C_22
REMARK    2  A    between atoms: N_3  and  C_4
REMARK    3  A    between atoms: N_12  and  C_13
REMARK    4  A    between atoms: C_24  and  C_25
REMARK    5  A    between atoms: C_25  and  N_26
REMARK                            x       y       z     vdW  Elec       q    Type
REMARK                         _______ _______ _______ _____ _____    ______ ____
ROOT
ATOM      1  C   UNL     1       9.146   9.961  18.992  0.00  0.00    +0.000 A 
ATOM      2  C   UNL     1       9.916  10.747  18.141  0.00  0.00    +0.000 A 
ATOM      3  C   UNL     1      10.338  12.018  18.539  0.00  0.00    +0.000 A 
ATOM      4  C   UNL     1      10.050  12.522  19.795  0.00  0.00    +0.000 A 
ATOM      5  N   UNL     1      10.564  13.710  20.126  0.00  0.00    +0.000 NA
ATOM      6  C   UNL     1      10.315  14.138  21.365  0.00  0.00    +0.000 A 
ATOM      7  N   UNL     1       9.604  13.492  22.290  0.00  0.00    +0.000 NA
ATOM      8  C   UNL     1       9.081  12.301  21.949  0.00  0.00    +0.000 A 
ATOM      9  N   UNL     1       8.365  11.547  22.924  0.00  0.00    +0.000 N 
ATOM     10  C   UNL     1       9.264  11.752  20.663  0.00  0.00    +0.000 A 
ATOM     11  C   UNL     1       8.759  10.496  20.223  0.00  0.00    +0.000 A 
ATOM     12  H   UNL     1       8.744  10.605  22.941  0.00  0.00    +0.000 HD
ENDROOT
BRANCH   9  13
ATOM     13  C   UNL     1       8.000  11.950  24.233  0.00  0.00    +0.000 A 
ATOM     14  C   UNL     1       8.688  12.945  24.940  0.00  0.00    +0.000 A 
ATOM     15  C   UNL     1       8.296  13.326  26.226  0.00  0.00    +0.000 A 
ATOM     16  C   UNL     1       7.174  12.750  26.809  0.00  0.00    +0.000 A 
ATOM     17  C   UNL     1       6.438  11.812  26.092  0.00  0.00    +0.000 A 
ATOM     18 BR   UNL     1       4.883  11.058  26.862  0.00  0.00    +0.000 Br
ATOM     19  C   UNL     1       6.836  11.422  24.810  0.00  0.00    +0.000 A 
ENDBRANCH   9  13
BRANCH   1  22
ATOM     20  O   UNL     1       7.014   8.974  17.231  0.00  0.00    +0.000 OA
ATOM     21  C   UNL     1       7.784   8.246  17.835  0.00  0.00    +0.000 C 
ATOM     22  N   UNL     1       8.785   8.628  18.707  0.00  0.00    +0.000 N 
ATOM     23  H   UNL     1       9.409   7.886  19.005  0.00  0.00    +0.000 HD
BRANCH  21  24
ATOM     24  C   UNL     1       7.679   6.790  17.594  0.00  0.00    +0.000 C 
ATOM     25  O   UNL     1       7.724   6.309  16.246  0.00  0.00    +0.000 OA
ATOM     26  C   UNL     1       6.452   6.236  16.903  0.00  0.00    +0.000 C 
BRANCH  26  27
ATOM     27  C   UNL     1       5.936   4.910  17.375  0.00  0.00    +0.000 C 
BRANCH  27  28
ATOM     28  N   UNL     1       4.488   4.693  17.211  0.00  0.00    +0.000 NA
ATOM     29  C   UNL     1       4.109   3.304  17.525  0.00  0.00    +0.000 C 
ATOM     30  C   UNL     1       2.604   3.089  17.359  0.00  0.00    +0.000 C 
ATOM     31  C   UNL     1       1.810   4.027  18.255  0.00  0.00    +0.000 C 
ATOM     32  C   UNL     1       2.245   5.469  18.026  0.00  0.00    +0.000 C 
ATOM     33  C   UNL     1       3.765   5.623  18.108  0.00  0.00    +0.000 C 
ENDBRANCH  27  28
ENDBRANCH  26  27
ENDBRANCH  21  24
ENDBRANCH   1  22
TORSDOF 5
ENDMDL
