MODEL 1
REMARK VINA RESULT:      -8.0      0.000      0.000
REMARK  Name = 
REMARK  6 active torsions:
REMARK  status: ('A' for Active; 'I' for Inactive)
REMARK    1  A    between atoms: C_1  and  C_2
REMARK    2  A    between atoms: C_2  and  C_3
REMARK    3  A    between atoms: P_11  and  O_13
REMARK    4  A    between atoms: O_13  and  C_14
REMARK    5  A    between atoms: C_14  and  C_15
REMARK    6  A    between atoms: C_15  and  C_16
REMARK                            x       y       z     vdW  Elec       q    Type
REMARK                         _______ _______ _______ _____ _____    ______ ____
ROOT
ATOM      1  C   UNL     1       2.361   4.330  17.742  0.00  0.00    +0.000 A 
ATOM      2  C   UNL     1       2.219   5.635  18.230  0.00  0.00    +0.000 A 
ATOM      3  C   UNL     1       3.308   6.504  18.234  0.00  0.00    +0.000 A 
ATOM      4  C   UNL     1       4.539   6.072  17.747  0.00  0.00    +0.000 A 
ATOM      5  C   UNL     1       4.699   4.794  17.206  0.00  0.00    +0.000 A 
ATOM      6  C   UNL     1       3.600   3.921  17.222  0.00  0.00    +0.000 A 
ATOM      7  C   UNL     1       6.022   4.325  16.661  0.00  0.00    +0.000 C 
ATOM      8  O   UNL     1       6.928   5.394  16.424  0.00  0.00    +0.000 OA
ATOM      9  P   UNL     1       7.096   6.422  17.662  0.00  0.00    +0.000 P 
ATOM     10  S   UNL     1       7.943   5.718  19.261  0.00  0.00    +0.000 S 
ATOM     11  O   UNL     1       5.578   6.955  17.823  0.00  0.00    +0.000 OA
ENDROOT
BRANCH   1  13
ATOM     12  C   UNL     1       1.463   2.339  18.946  0.00  0.00    +0.000 C 
ATOM     13  C   UNL     1       1.214   3.357  17.842  0.00  0.00    +0.000 C 
ENDBRANCH   1  13
BRANCH   9  14
ATOM     14  O   UNL     1       7.794   7.702  16.950  0.00  0.00    +0.000 OA
BRANCH  14  15
ATOM     15  C   UNL     1       7.754   8.947  17.629  0.00  0.00    +0.000 C 
BRANCH  15  16
ATOM     16  C   UNL     1       8.819   8.981  18.721  0.00  0.00    +0.000 C 
BRANCH  16  17
ATOM     17  C   UNL     1       9.261  10.394  19.011  0.00  0.00    +0.000 A 
ATOM     18  C   UNL     1       9.546  11.276  17.961  0.00  0.00    +0.000 A 
ATOM     19  C   UNL     1       9.984  12.576  18.227  0.00  0.00    +0.000 A 
ATOM     20  C   UNL     1      10.150  13.001  19.543  0.00  0.00    +0.000 A 
ATOM     21  C   UNL     1       9.881  12.126  20.597  0.00  0.00    +0.000 A 
ATOM     22  C   UNL     1       9.442  10.828  20.332  0.00  0.00    +0.000 A 
ENDBRANCH  16  17
ENDBRANCH  15  16
ENDBRANCH  14  15
ENDBRANCH   9  14
TORSDOF 5
ENDMDL
MODEL 2
REMARK VINA RESULT:      -7.8      1.771      2.210
REMARK  Name = 
REMARK  6 active torsions:
REMARK  status: ('A' for Active; 'I' for Inactive)
REMARK    1  A    between atoms: C_1  and  C_2
REMARK    2  A    between atoms: C_2  and  C_3
REMARK    3  A    between atoms: P_11  and  O_13
REMARK    4  A    between atoms: O_13  and  C_14
REMARK    5  A    between atoms: C_14  and  C_15
REMARK    6  A    between atoms: C_15  and  C_16
REMARK                            x       y       z     vdW  Elec       q    Type
REMARK                         _______ _______ _______ _____ _____    ______ ____
ROOT
ATOM      1  C   UNL     1       2.436   4.026  19.803  0.00  0.00    +0.000 A 
ATOM      2  C   UNL     1       3.602   3.290  20.050  0.00  0.00    +0.000 A 
ATOM      3  C   UNL     1       4.807   3.666  19.461  0.00  0.00    +0.000 A 
ATOM      4  C   UNL     1       4.850   4.779  18.625  0.00  0.00    +0.000 A 
ATOM      5  C   UNL     1       3.716   5.564  18.400  0.00  0.00    +0.000 A 
ATOM      6  C   UNL     1       2.504   5.166  18.986  0.00  0.00    +0.000 A 
ATOM      7  C   UNL     1       3.757   6.780  17.513  0.00  0.00    +0.000 C 
ATOM      8  O   UNL     1       5.081   7.228  17.258  0.00  0.00    +0.000 OA
ATOM      9  P   UNL     1       6.103   6.071  16.773  0.00  0.00    +0.000 P 
ATOM     10  S   UNL     1       5.757   5.287  15.030  0.00  0.00    +0.000 S 
ATOM     11  O   UNL     1       6.049   5.068  18.040  0.00  0.00    +0.000 OA
ENDROOT
BRANCH   1  13
ATOM     12  C   UNL     1       1.317   2.672  21.574  0.00  0.00    +0.000 C 
ATOM     13  C   UNL     1       1.114   3.553  20.350  0.00  0.00    +0.000 C 
ENDBRANCH   1  13
BRANCH   9  14
ATOM     14  O   UNL     1       7.548   6.772  17.002  0.00  0.00    +0.000 OA
BRANCH  14  15
ATOM     15  C   UNL     1       7.575   8.146  17.354  0.00  0.00    +0.000 C 
BRANCH  15  16
ATOM     16  C   UNL     1       8.531   8.366  18.523  0.00  0.00    +0.000 C 
BRANCH  16  17
ATOM     17  C   UNL     1       8.854   9.830  18.696  0.00  0.00    +0.000 A 
ATOM     18  C   UNL     1       8.529  10.750  17.692  0.00  0.00    +0.000 A 
ATOM     19  C   UNL     1       8.854  12.102  17.838  0.00  0.00    +0.000 A 
ATOM     20  C   UNL     1       9.516  12.541  18.982  0.00  0.00    +0.000 A 
ATOM     21  C   UNL     1       9.856  11.629  19.983  0.00  0.00    +0.000 A 
ATOM     22  C   UNL     1       9.530  10.281  19.840  0.00  0.00    +0.000 A 
ENDBRANCH  16  17
ENDBRANCH  15  16
ENDBRANCH  14  15
ENDBRANCH   9  14
TORSDOF 5
ENDMDL
MODEL 3
REMARK VINA RESULT:      -7.7      0.708      1.262
REMARK  Name = 
REMARK  6 active torsions:
REMARK  status: ('A' for Active; 'I' for Inactive)
REMARK    1  A    between atoms: C_1  and  C_2
REMARK    2  A    between atoms: C_2  and  C_3
REMARK    3  A    between atoms: P_11  and  O_13
REMARK    4  A    between atoms: O_13  and  C_14
REMARK    5  A    between atoms: C_14  and  C_15
REMARK    6  A    between atoms: C_15  and  C_16
REMARK                            x       y       z     vdW  Elec       q    Type
REMARK                         _______ _______ _______ _____ _____    ______ ____
ROOT
ATOM      1  C   UNL     1       2.962   3.574  17.574  0.00  0.00    +0.000 A 
ATOM      2  C   UNL     1       2.573   4.777  18.179  0.00  0.00    +0.000 A 
ATOM      3  C   UNL     1       3.486   5.820  18.314  0.00  0.00    +0.000 A 
ATOM      4  C   UNL     1       4.787   5.665  17.843  0.00  0.00    +0.000 A 
ATOM      5  C   UNL     1       5.190   4.498  17.189  0.00  0.00    +0.000 A 
ATOM      6  C   UNL     1       4.267   3.447  17.074  0.00  0.00    +0.000 A 
ATOM      7  C   UNL     1       6.590   4.329  16.661  0.00  0.00    +0.000 C 
ATOM      8  O   UNL     1       7.293   5.560  16.567  0.00  0.00    +0.000 OA
ATOM      9  P   UNL     1       7.241   6.470  17.904  0.00  0.00    +0.000 P 
ATOM     10  S   UNL     1       8.158   5.768  19.465  0.00  0.00    +0.000 S 
ATOM     11  O   UNL     1       5.647   6.706  18.048  0.00  0.00    +0.000 OA
ENDROOT
BRANCH   1  13
ATOM     12  C   UNL     1       1.042   2.453  18.707  0.00  0.00    +0.000 C 
ATOM     13  C   UNL     1       2.008   2.408  17.531  0.00  0.00    +0.000 C 
ENDBRANCH   1  13
BRANCH   9  14
ATOM     14  O   UNL     1       7.713   7.920  17.350  0.00  0.00    +0.000 OA
BRANCH  14  15
ATOM     15  C   UNL     1       8.435   8.767  18.229  0.00  0.00    +0.000 C 
BRANCH  15  16
ATOM     16  C   UNL     1       8.422  10.199  17.701  0.00  0.00    +0.000 C 
BRANCH  16  17
ATOM     17  C   UNL     1       9.286  11.102  18.547  0.00  0.00    +0.000 A 
ATOM     18  C   UNL     1       9.478  10.827  19.907  0.00  0.00    +0.000 A 
ATOM     19  C   UNL     1      10.254  11.678  20.699  0.00  0.00    +0.000 A 
ATOM     20  C   UNL     1      10.835  12.815  20.140  0.00  0.00    +0.000 A 
ATOM     21  C   UNL     1      10.639  13.104  18.789  0.00  0.00    +0.000 A 
ATOM     22  C   UNL     1       9.866  12.254  17.997  0.00  0.00    +0.000 A 
ENDBRANCH  16  17
ENDBRANCH  15  16
ENDBRANCH  14  15
ENDBRANCH   9  14
TORSDOF 5
ENDMDL
MODEL 4
REMARK VINA RESULT:      -7.5      4.958      7.082
REMARK  Name = 
REMARK  6 active torsions:
REMARK  status: ('A' for Active; 'I' for Inactive)
REMARK    1  A    between atoms: C_1  and  C_2
REMARK    2  A    between atoms: C_2  and  C_3
REMARK    3  A    between atoms: P_11  and  O_13
REMARK    4  A    between atoms: O_13  and  C_14
REMARK    5  A    between atoms: C_14  and  C_15
REMARK    6  A    between atoms: C_15  and  C_16
REMARK                            x       y       z     vdW  Elec       q    Type
REMARK                         _______ _______ _______ _____ _____    ______ ____
ROOT
ATOM      1  C   UNL     1       1.890   4.652  19.380  0.00  0.00    +0.000 A 
ATOM      2  C   UNL     1       2.134   6.015  19.166  0.00  0.00    +0.000 A 
ATOM      3  C   UNL     1       3.127   6.418  18.276  0.00  0.00    +0.000 A 
ATOM      4  C   UNL     1       3.876   5.461  17.596  0.00  0.00    +0.000 A 
ATOM      5  C   UNL     1       3.622   4.095  17.749  0.00  0.00    +0.000 A 
ATOM      6  C   UNL     1       2.630   3.700  18.660  0.00  0.00    +0.000 A 
ATOM      7  C   UNL     1       4.414   3.054  17.004  0.00  0.00    +0.000 C 
ATOM      8  O   UNL     1       5.142   3.596  15.911  0.00  0.00    +0.000 OA
ATOM      9  P   UNL     1       6.022   4.906  16.270  0.00  0.00    +0.000 P 
ATOM     10  S   UNL     1       7.524   4.636  17.470  0.00  0.00    +0.000 S 
ATOM     11  O   UNL     1       4.866   5.919  16.776  0.00  0.00    +0.000 OA
ENDROOT
BRANCH   1  13
ATOM     12  C   UNL     1       1.339   2.925  21.094  0.00  0.00    +0.000 C 
ATOM     13  C   UNL     1       0.894   4.218  20.424  0.00  0.00    +0.000 C 
ENDBRANCH   1  13
BRANCH   9  14
ATOM     14  O   UNL     1       6.340   5.518  14.801  0.00  0.00    +0.000 OA
BRANCH  14  15
ATOM     15  C   UNL     1       7.485   5.041  14.114  0.00  0.00    +0.000 C 
BRANCH  15  16
ATOM     16  C   UNL     1       7.258   5.116  12.607  0.00  0.00    +0.000 C 
BRANCH  16  17
ATOM     17  C   UNL     1       6.766   3.797  12.062  0.00  0.00    +0.000 A 
ATOM     18  C   UNL     1       5.400   3.489  12.083  0.00  0.00    +0.000 A 
ATOM     19  C   UNL     1       4.945   2.256  11.606  0.00  0.00    +0.000 A 
ATOM     20  C   UNL     1       5.852   1.319  11.116  0.00  0.00    +0.000 A 
ATOM     21  C   UNL     1       7.217   1.612  11.103  0.00  0.00    +0.000 A 
ATOM     22  C   UNL     1       7.672   2.843  11.576  0.00  0.00    +0.000 A 
ENDBRANCH  16  17
ENDBRANCH  15  16
ENDBRANCH  14  15
ENDBRANCH   9  14
TORSDOF 5
ENDMDL
MODEL 5
REMARK VINA RESULT:      -7.4      1.767      2.453
REMARK  Name = 
REMARK  6 active torsions:
REMARK  status: ('A' for Active; 'I' for Inactive)
REMARK    1  A    between atoms: C_1  and  C_2
REMARK    2  A    between atoms: C_2  and  C_3
REMARK    3  A    between atoms: P_11  and  O_13
REMARK    4  A    between atoms: O_13  and  C_14
REMARK    5  A    between atoms: C_14  and  C_15
REMARK    6  A    between atoms: C_15  and  C_16
REMARK                            x       y       z     vdW  Elec       q    Type
REMARK                         _______ _______ _______ _____ _____    ______ ____
ROOT
ATOM      1  C   UNL     1       2.511   3.560  19.726  0.00  0.00    +0.000 A 
ATOM      2  C   UNL     1       3.673   2.797  19.902  0.00  0.00    +0.000 A 
ATOM      3  C   UNL     1       4.883   3.227  19.363  0.00  0.00    +0.000 A 
ATOM      4  C   UNL     1       4.935   4.422  18.649  0.00  0.00    +0.000 A 
ATOM      5  C   UNL     1       3.806   5.231  18.501  0.00  0.00    +0.000 A 
ATOM      6  C   UNL     1       2.588   4.779  19.035  0.00  0.00    +0.000 A 
ATOM      7  C   UNL     1       3.857   6.533  17.747  0.00  0.00    +0.000 C 
ATOM      8  O   UNL     1       5.185   7.000  17.548  0.00  0.00    +0.000 OA
ATOM      9  P   UNL     1       6.205   5.896  16.950  0.00  0.00    +0.000 P 
ATOM     10  S   UNL     1       5.868   5.300  15.133  0.00  0.00    +0.000 S 
ATOM     11  O   UNL     1       6.140   4.765  18.105  0.00  0.00    +0.000 OA
ENDROOT
BRANCH   1  13
ATOM     12  C   UNL     1       1.226   2.757  21.708  0.00  0.00    +0.000 C 
ATOM     13  C   UNL     1       1.184   3.038  20.213  0.00  0.00    +0.000 C 
ENDBRANCH   1  13
BRANCH   9  14
ATOM     14  O   UNL     1       7.651   6.563  17.261  0.00  0.00    +0.000 OA
BRANCH  14  15
ATOM     15  C   UNL     1       7.726   7.975  17.365  0.00  0.00    +0.000 C 
BRANCH  15  16
ATOM     16  C   UNL     1       8.412   8.366  18.671  0.00  0.00    +0.000 C 
BRANCH  16  17
ATOM     17  C   UNL     1       8.806   9.823  18.667  0.00  0.00    +0.000 A 
ATOM     18  C   UNL     1       9.695  10.317  19.630  0.00  0.00    +0.000 A 
ATOM     19  C   UNL     1      10.039  11.672  19.646  0.00  0.00    +0.000 A 
ATOM     20  C   UNL     1       9.489  12.544  18.708  0.00  0.00    +0.000 A 
ATOM     21  C   UNL     1       8.592  12.063  17.753  0.00  0.00    +0.000 A 
ATOM     22  C   UNL     1       8.250  10.710  17.734  0.00  0.00    +0.000 A 
ENDBRANCH  16  17
ENDBRANCH  15  16
ENDBRANCH  14  15
ENDBRANCH   9  14
TORSDOF 5
ENDMDL
MODEL 6
REMARK VINA RESULT:      -7.4      1.593      2.196
REMARK  Name = 
REMARK  6 active torsions:
REMARK  status: ('A' for Active; 'I' for Inactive)
REMARK    1  A    between atoms: C_1  and  C_2
REMARK    2  A    between atoms: C_2  and  C_3
REMARK    3  A    between atoms: P_11  and  O_13
REMARK    4  A    between atoms: O_13  and  C_14
REMARK    5  A    between atoms: C_14  and  C_15
REMARK    6  A    between atoms: C_15  and  C_16
REMARK                            x       y       z     vdW  Elec       q    Type
REMARK                         _______ _______ _______ _____ _____    ______ ____
ROOT
ATOM      1  C   UNL     1       2.690   4.052  19.053  0.00  0.00    +0.000 A 
ATOM      2  C   UNL     1       3.825   3.494  19.656  0.00  0.00    +0.000 A 
ATOM      3  C   UNL     1       5.098   3.920  19.283  0.00  0.00    +0.000 A 
ATOM      4  C   UNL     1       5.239   4.907  18.310  0.00  0.00    +0.000 A 
ATOM      5  C   UNL     1       4.127   5.519  17.728  0.00  0.00    +0.000 A 
ATOM      6  C   UNL     1       2.849   5.070  18.099  0.00  0.00    +0.000 A 
ATOM      7  C   UNL     1       4.270   6.599  16.688  0.00  0.00    +0.000 C 
ATOM      8  O   UNL     1       5.577   7.155  16.652  0.00  0.00    +0.000 OA
ATOM      9  P   UNL     1       6.772   6.066  16.585  0.00  0.00    +0.000 P 
ATOM     10  S   UNL     1       6.895   5.016  14.956  0.00  0.00    +0.000 S 
ATOM     11  O   UNL     1       6.513   5.246  17.955  0.00  0.00    +0.000 OA
ENDROOT
BRANCH   1  13
ATOM     12  C   UNL     1       1.175   3.257  20.868  0.00  0.00    +0.000 C 
ATOM     13  C   UNL     1       1.321   3.512  19.375  0.00  0.00    +0.000 C 
ENDBRANCH   1  13
BRANCH   9  14
ATOM     14  O   UNL     1       8.066   6.952  17.001  0.00  0.00    +0.000 OA
BRANCH  14  15
ATOM     15  C   UNL     1       7.932   7.862  18.080  0.00  0.00    +0.000 C 
BRANCH  15  16
ATOM     16  C   UNL     1       7.986   9.297  17.563  0.00  0.00    +0.000 C 
BRANCH  16  17
ATOM     17  C   UNL     1       8.965  10.128  18.355  0.00  0.00    +0.000 A 
ATOM     18  C   UNL     1       8.977  10.063  19.754  0.00  0.00    +0.000 A 
ATOM     19  C   UNL     1       9.862  10.855  20.492  0.00  0.00    +0.000 A 
ATOM     20  C   UNL     1      10.733  11.723  19.838  0.00  0.00    +0.000 A 
ATOM     21  C   UNL     1      10.719  11.805  18.444  0.00  0.00    +0.000 A 
ATOM     22  C   UNL     1       9.838  11.014  17.707  0.00  0.00    +0.000 A 
ENDBRANCH  16  17
ENDBRANCH  15  16
ENDBRANCH  14  15
ENDBRANCH   9  14
TORSDOF 5
ENDMDL
MODEL 7
REMARK VINA RESULT:      -7.2      4.581      7.093
REMARK  Name = 
REMARK  6 active torsions:
REMARK  status: ('A' for Active; 'I' for Inactive)
REMARK    1  A    between atoms: C_1  and  C_2
REMARK    2  A    between atoms: C_2  and  C_3
REMARK    3  A    between atoms: P_11  and  O_13
REMARK    4  A    between atoms: O_13  and  C_14
REMARK    5  A    between atoms: C_14  and  C_15
REMARK    6  A    between atoms: C_15  and  C_16
REMARK                            x       y       z     vdW  Elec       q    Type
REMARK                         _______ _______ _______ _____ _____    ______ ____
ROOT
ATOM      1  C   UNL     1       3.008   4.287  19.617  0.00  0.00    +0.000 A 
ATOM      2  C   UNL     1       2.457   4.714  18.401  0.00  0.00    +0.000 A 
ATOM      3  C   UNL     1       3.288   5.098  17.351  0.00  0.00    +0.000 A 
ATOM      4  C   UNL     1       4.671   5.053  17.512  0.00  0.00    +0.000 A 
ATOM      5  C   UNL     1       5.251   4.583  18.693  0.00  0.00    +0.000 A 
ATOM      6  C   UNL     1       4.404   4.215  19.751  0.00  0.00    +0.000 A 
ATOM      7  C   UNL     1       6.745   4.514  18.870  0.00  0.00    +0.000 C 
ATOM      8  O   UNL     1       7.447   4.612  17.639  0.00  0.00    +0.000 OA
ATOM      9  P   UNL     1       6.990   5.846  16.697  0.00  0.00    +0.000 P 
ATOM     10  S   UNL     1       7.381   7.629  17.357  0.00  0.00    +0.000 S 
ATOM     11  O   UNL     1       5.430   5.488  16.464  0.00  0.00    +0.000 OA
ENDROOT
BRANCH   1  13
ATOM     12  C   UNL     1       0.814   3.332  20.321  0.00  0.00    +0.000 C 
ATOM     13  C   UNL     1       2.110   3.981  20.787  0.00  0.00    +0.000 C 
ENDBRANCH   1  13
BRANCH   9  14
ATOM     14  O   UNL     1       7.615   5.429  15.259  0.00  0.00    +0.000 OA
BRANCH  14  15
ATOM     15  C   UNL     1       6.719   5.195  14.184  0.00  0.00    +0.000 C 
BRANCH  15  16
ATOM     16  C   UNL     1       7.498   4.802  12.932  0.00  0.00    +0.000 C 
BRANCH  16  17
ATOM     17  C   UNL     1       6.847   3.638  12.225  0.00  0.00    +0.000 A 
ATOM     18  C   UNL     1       5.452   3.523  12.191  0.00  0.00    +0.000 A 
ATOM     19  C   UNL     1       4.847   2.430  11.563  0.00  0.00    +0.000 A 
ATOM     20  C   UNL     1       5.632   1.441  10.975  0.00  0.00    +0.000 A 
ATOM     21  C   UNL     1       7.024   1.540  11.016  0.00  0.00    +0.000 A 
ATOM     22  C   UNL     1       7.629   2.631  11.640  0.00  0.00    +0.000 A 
ENDBRANCH  16  17
ENDBRANCH  15  16
ENDBRANCH  14  15
ENDBRANCH   9  14
TORSDOF 5
ENDMDL
MODEL 8
REMARK VINA RESULT:      -7.2      5.172      6.964
REMARK  Name = 
REMARK  6 active torsions:
REMARK  status: ('A' for Active; 'I' for Inactive)
REMARK    1  A    between atoms: C_1  and  C_2
REMARK    2  A    between atoms: C_2  and  C_3
REMARK    3  A    between atoms: P_11  and  O_13
REMARK    4  A    between atoms: O_13  and  C_14
REMARK    5  A    between atoms: C_14  and  C_15
REMARK    6  A    between atoms: C_15  and  C_16
REMARK                            x       y       z     vdW  Elec       q    Type
REMARK                         _______ _______ _______ _____ _____    ______ ____
ROOT
ATOM      1  C   UNL     1       1.191   8.630  20.531  0.00  0.00    +0.000 A 
ATOM      2  C   UNL     1       1.555   9.069  19.251  0.00  0.00    +0.000 A 
ATOM      3  C   UNL     1       2.256   8.225  18.393  0.00  0.00    +0.000 A 
ATOM      4  C   UNL     1       2.592   6.940  18.810  0.00  0.00    +0.000 A 
ATOM      5  C   UNL     1       2.198   6.454  20.059  0.00  0.00    +0.000 A 
ATOM      6  C   UNL     1       1.506   7.319  20.922  0.00  0.00    +0.000 A 
ATOM      7  C   UNL     1       2.541   5.059  20.512  0.00  0.00    +0.000 C 
ATOM      8  O   UNL     1       2.949   4.220  19.440  0.00  0.00    +0.000 OA
ATOM      9  P   UNL     1       4.084   4.858  18.479  0.00  0.00    +0.000 P 
ATOM     10  S   UNL     1       5.835   5.131  19.272  0.00  0.00    +0.000 S 
ATOM     11  O   UNL     1       3.321   6.178  17.942  0.00  0.00    +0.000 OA
ENDROOT
BRANCH   1  13
ATOM     12  C   UNL     1      -0.478  10.467  20.783  0.00  0.00    +0.000 C 
ATOM     13  C   UNL     1       0.533   9.581  21.497  0.00  0.00    +0.000 C 
ENDBRANCH   1  13
BRANCH   9  14
ATOM     14  O   UNL     1       3.999   3.904  17.169  0.00  0.00    +0.000 OA
BRANCH  14  15
ATOM     15  C   UNL     1       5.172   3.732  16.392  0.00  0.00    +0.000 C 
BRANCH  15  16
ATOM     16  C   UNL     1       5.388   4.948  15.496  0.00  0.00    +0.000 C 
BRANCH  16  17
ATOM     17  C   UNL     1       6.003   4.553  14.176  0.00  0.00    +0.000 A 
ATOM     18  C   UNL     1       7.176   5.174  13.728  0.00  0.00    +0.000 A 
ATOM     19  C   UNL     1       7.731   4.831  12.492  0.00  0.00    +0.000 A 
ATOM     20  C   UNL     1       7.112   3.874  11.690  0.00  0.00    +0.000 A 
ATOM     21  C   UNL     1       5.936   3.259  12.122  0.00  0.00    +0.000 A 
ATOM     22  C   UNL     1       5.382   3.599  13.356  0.00  0.00    +0.000 A 
ENDBRANCH  16  17
ENDBRANCH  15  16
ENDBRANCH  14  15
ENDBRANCH   9  14
TORSDOF 5
ENDMDL
MODEL 9
REMARK VINA RESULT:      -7.2      5.205      6.960
REMARK  Name = 
REMARK  6 active torsions:
REMARK  status: ('A' for Active; 'I' for Inactive)
REMARK    1  A    between atoms: C_1  and  C_2
REMARK    2  A    between atoms: C_2  and  C_3
REMARK    3  A    between atoms: P_11  and  O_13
REMARK    4  A    between atoms: O_13  and  C_14
REMARK    5  A    between atoms: C_14  and  C_15
REMARK    6  A    between atoms: C_15  and  C_16
REMARK                            x       y       z     vdW  Elec       q    Type
REMARK                         _______ _______ _______ _____ _____    ______ ____
ROOT
ATOM      1  C   UNL     1       1.180   8.642  20.232  0.00  0.00    +0.000 A 
ATOM      2  C   UNL     1       1.554   8.990  18.928  0.00  0.00    +0.000 A 
ATOM      3  C   UNL     1       2.287   8.100  18.147  0.00  0.00    +0.000 A 
ATOM      4  C   UNL     1       2.646   6.859  18.667  0.00  0.00    +0.000 A 
ATOM      5  C   UNL     1       2.244   6.461  19.944  0.00  0.00    +0.000 A 
ATOM      6  C   UNL     1       1.519   7.373  20.728  0.00  0.00    +0.000 A 
ATOM      7  C   UNL     1       2.611   5.114  20.508  0.00  0.00    +0.000 C 
ATOM      8  O   UNL     1       3.055   4.205  19.510  0.00  0.00    +0.000 OA
ATOM      9  P   UNL     1       4.191   4.794  18.519  0.00  0.00    +0.000 P 
ATOM     10  S   UNL     1       5.922   5.170  19.313  0.00  0.00    +0.000 S 
ATOM     11  O   UNL     1       3.406   6.051  17.870  0.00  0.00    +0.000 OA
ENDROOT
BRANCH   1  13
ATOM     12  C   UNL     1       0.844   9.427  22.576  0.00  0.00    +0.000 C 
ATOM     13  C   UNL     1       0.485   9.648  21.113  0.00  0.00    +0.000 C 
ENDBRANCH   1  13
BRANCH   9  14
ATOM     14  O   UNL     1       4.148   3.741  17.285  0.00  0.00    +0.000 OA
BRANCH  14  15
ATOM     15  C   UNL     1       5.277   3.669  16.430  0.00  0.00    +0.000 C 
BRANCH  15  16
ATOM     16  C   UNL     1       5.292   4.866  15.484  0.00  0.00    +0.000 C 
BRANCH  16  17
ATOM     17  C   UNL     1       5.868   4.495  14.140  0.00  0.00    +0.000 A 
ATOM     18  C   UNL     1       5.137   3.694  13.254  0.00  0.00    +0.000 A 
ATOM     19  C   UNL     1       5.681   3.324  12.021  0.00  0.00    +0.000 A 
ATOM     20  C   UNL     1       6.963   3.742  11.669  0.00  0.00    +0.000 A 
ATOM     21  C   UNL     1       7.705   4.529  12.551  0.00  0.00    +0.000 A 
ATOM     22  C   UNL     1       7.162   4.901  13.781  0.00  0.00    +0.000 A 
ENDBRANCH  16  17
ENDBRANCH  15  16
ENDBRANCH  14  15
ENDBRANCH   9  14
TORSDOF 5
ENDMDL
