MODEL 1
REMARK VINA RESULT:      -7.7      0.000      0.000
REMARK  Name = 
REMARK  8 active torsions:
REMARK  status: ('A' for Active; 'I' for Inactive)
REMARK    1  A    between atoms: C_1  and  N_2
REMARK    2  A    between atoms: N_2  and  C_3
REMARK    3  A    between atoms: C_4  and  C_6
REMARK    4  A    between atoms: C_8  and  S_9
REMARK    5  A    between atoms: S_9  and  N_12
REMARK    6  A    between atoms: C_17  and  C_18
REMARK    7  A    between atoms: C_20  and  C_21
REMARK    8  A    between atoms: N_30  and  C_31
REMARK                            x       y       z     vdW  Elec       q    Type
REMARK                         _______ _______ _______ _____ _____    ______ ____
ROOT
ATOM      1  N   UNL     1       2.754   5.340  18.647  0.00  0.00    +0.000 NA
ATOM      2  C   UNL     1       2.125   4.432  17.656  0.00  0.00    +0.000 C 
ATOM      3  C   UNL     1       1.802   3.077  18.293  0.00  0.00    +0.000 C 
ATOM      4  C   UNL     1       2.994   2.445  18.999  0.00  0.00    +0.000 C 
ATOM      5  C   UNL     1       3.660   3.448  19.946  0.00  0.00    +0.000 C 
ATOM      6  C   UNL     1       4.020   4.776  19.240  0.00  0.00    +0.000 C 
ENDROOT
BRANCH   6   7
ATOM      7  C   UNL     1       5.128   4.544  18.233  0.00  0.00    +0.000 A 
ATOM      8  N   UNL     1       4.960   4.385  16.936  0.00  0.00    +0.000 NA
ATOM      9  C   UNL     1       6.207   4.323  16.372  0.00  0.00    +0.000 A 
ATOM     10  C   UNL     1       7.165   4.356  17.357  0.00  0.00    +0.000 A 
ATOM     11  N   UNL     1       6.468   4.468  18.534  0.00  0.00    +0.000 N 
ATOM     12  H   UNL     1       6.877   4.636  19.444  0.00  0.00    +0.000 HD
BRANCH   9  13
ATOM     13  C   UNL     1       6.397   4.295  14.935  0.00  0.00    +0.000 A 
ATOM     14  C   UNL     1       7.435   5.060  14.376  0.00  0.00    +0.000 A 
ATOM     15  C   UNL     1       7.662   5.068  13.001  0.00  0.00    +0.000 A 
ATOM     16  C   UNL     1       6.847   4.308  12.162  0.00  0.00    +0.000 A 
ATOM     17  C   UNL     1       5.817   3.541  12.708  0.00  0.00    +0.000 A 
ATOM     18  C   UNL     1       5.592   3.529  14.085  0.00  0.00    +0.000 A 
ENDBRANCH   9  13
ENDBRANCH   6   7
BRANCH   1  19
ATOM     19  S   UNL     1       2.843   6.984  18.260  0.00  0.00    +0.000 S 
ATOM     20  O   UNL     1       2.121   7.198  17.021  0.00  0.00    +0.000 OA
ATOM     21  O   UNL     1       4.228   7.383  18.366  0.00  0.00    +0.000 OA
BRANCH  19  24
ATOM     22  C   UNL     1       0.849   9.735  20.279  0.00  0.00    +0.000 A 
ATOM     23  C   UNL     1       1.653   9.354  19.207  0.00  0.00    +0.000 A 
ATOM     24  C   UNL     1       2.022   7.996  19.395  0.00  0.00    +0.000 A 
ATOM     25  C   UNL     1       1.493   7.592  20.605  0.00  0.00    +0.000 A 
ATOM     26  N   UNL     1       0.676   8.599  21.047  0.00  0.00    +0.000 N 
ATOM     27  C   UNL     1      -0.353   8.419  22.054  0.00  0.00    +0.000 C 
BRANCH  22  31
ATOM     28  C   UNL     1      -1.284  12.845  20.250  0.00  0.00    +0.000 C 
ATOM     29  N   UNL     1      -0.804  11.519  19.899  0.00  0.00    +0.000 N 
ATOM     30  C   UNL     1      -1.600  10.763  18.945  0.00  0.00    +0.000 C 
ATOM     31  C   UNL     1       0.265  11.018  20.642  0.00  0.00    +0.000 C 
ATOM     32  O   UNL     1       0.697  11.645  21.610  0.00  0.00    +0.000 OA
ENDBRANCH  22  31
ENDBRANCH  19  24
ENDBRANCH   1  19
TORSDOF 5
ENDMDL
MODEL 2
REMARK VINA RESULT:      -7.5      0.853      1.041
REMARK  Name = 
REMARK  8 active torsions:
REMARK  status: ('A' for Active; 'I' for Inactive)
REMARK    1  A    between atoms: C_1  and  N_2
REMARK    2  A    between atoms: N_2  and  C_3
REMARK    3  A    between atoms: C_4  and  C_6
REMARK    4  A    between atoms: C_8  and  S_9
REMARK    5  A    between atoms: S_9  and  N_12
REMARK    6  A    between atoms: C_17  and  C_18
REMARK    7  A    between atoms: C_20  and  C_21
REMARK    8  A    between atoms: N_30  and  C_31
REMARK                            x       y       z     vdW  Elec       q    Type
REMARK                         _______ _______ _______ _____ _____    ______ ____
ROOT
ATOM      1  N   UNL     1       3.002   5.536  18.449  0.00  0.00    +0.000 NA
ATOM      2  C   UNL     1       2.322   4.679  17.446  0.00  0.00    +0.000 C 
ATOM      3  C   UNL     1       1.923   3.335  18.065  0.00  0.00    +0.000 C 
ATOM      4  C   UNL     1       3.078   2.628  18.761  0.00  0.00    +0.000 C 
ATOM      5  C   UNL     1       3.800   3.578  19.721  0.00  0.00    +0.000 C 
ATOM      6  C   UNL     1       4.234   4.893  19.032  0.00  0.00    +0.000 C 
ENDROOT
BRANCH   6   7
ATOM      7  C   UNL     1       5.327   4.613  18.021  0.00  0.00    +0.000 A 
ATOM      8  N   UNL     1       5.148   4.466  16.724  0.00  0.00    +0.000 NA
ATOM      9  C   UNL     1       6.388   4.348  16.155  0.00  0.00    +0.000 A 
ATOM     10  C   UNL     1       7.350   4.332  17.137  0.00  0.00    +0.000 A 
ATOM     11  N   UNL     1       6.663   4.473  18.317  0.00  0.00    +0.000 N 
ATOM     12  H   UNL     1       7.083   4.619  19.227  0.00  0.00    +0.000 HD
BRANCH   9  13
ATOM     13  C   UNL     1       6.572   4.316  14.718  0.00  0.00    +0.000 A 
ATOM     14  C   UNL     1       7.562   5.131  14.145  0.00  0.00    +0.000 A 
ATOM     15  C   UNL     1       7.782   5.137  12.769  0.00  0.00    +0.000 A 
ATOM     16  C   UNL     1       7.006   4.325  11.943  0.00  0.00    +0.000 A 
ATOM     17  C   UNL     1       6.023   3.507  12.502  0.00  0.00    +0.000 A 
ATOM     18  C   UNL     1       5.807   3.497  13.880  0.00  0.00    +0.000 A 
ENDBRANCH   9  13
ENDBRANCH   6   7
BRANCH   1  19
ATOM     19  S   UNL     1       3.184   7.178  18.085  0.00  0.00    +0.000 S 
ATOM     20  O   UNL     1       2.764   7.387  16.713  0.00  0.00    +0.000 OA
ATOM     21  O   UNL     1       4.510   7.573  18.502  0.00  0.00    +0.000 OA
BRANCH  19  24
ATOM     22  C   UNL     1       0.521   9.722  19.520  0.00  0.00    +0.000 A 
ATOM     23  C   UNL     1       1.375   9.295  18.505  0.00  0.00    +0.000 A 
ATOM     24  C   UNL     1       2.130   8.199  18.999  0.00  0.00    +0.000 A 
ATOM     25  C   UNL     1       1.772   8.017  20.319  0.00  0.00    +0.000 A 
ATOM     26  N   UNL     1       0.707   8.841  20.569  0.00  0.00    +0.000 N 
ATOM     27  C   UNL     1      -0.200   8.672  21.688  0.00  0.00    +0.000 C 
BRANCH  22  31
ATOM     28  C   UNL     1      -1.003  13.068  20.357  0.00  0.00    +0.000 C 
ATOM     29  N   UNL     1      -0.005  12.020  20.229  0.00  0.00    +0.000 N 
ATOM     30  C   UNL     1       1.361  12.365  20.590  0.00  0.00    +0.000 C 
ATOM     31  C   UNL     1      -0.405  10.842  19.597  0.00  0.00    +0.000 C 
ATOM     32  O   UNL     1      -1.525  10.758  19.091  0.00  0.00    +0.000 OA
ENDBRANCH  22  31
ENDBRANCH  19  24
ENDBRANCH   1  19
TORSDOF 5
ENDMDL
MODEL 3
REMARK VINA RESULT:      -7.5      3.321     10.851
REMARK  Name = 
REMARK  8 active torsions:
REMARK  status: ('A' for Active; 'I' for Inactive)
REMARK    1  A    between atoms: C_1  and  N_2
REMARK    2  A    between atoms: N_2  and  C_3
REMARK    3  A    between atoms: C_4  and  C_6
REMARK    4  A    between atoms: C_8  and  S_9
REMARK    5  A    between atoms: S_9  and  N_12
REMARK    6  A    between atoms: C_17  and  C_18
REMARK    7  A    between atoms: C_20  and  C_21
REMARK    8  A    between atoms: N_30  and  C_31
REMARK                            x       y       z     vdW  Elec       q    Type
REMARK                         _______ _______ _______ _____ _____    ______ ____
ROOT
ATOM      1  N   UNL     1       0.493  10.046  20.170  0.00  0.00    +0.000 NA
ATOM      2  C   UNL     1      -0.782  10.075  19.411  0.00  0.00    +0.000 C 
ATOM      3  C   UNL     1      -0.753  11.176  18.346  0.00  0.00    +0.000 C 
ATOM      4  C   UNL     1      -0.366  12.540  18.902  0.00  0.00    +0.000 C 
ATOM      5  C   UNL     1       0.908  12.442  19.747  0.00  0.00    +0.000 C 
ATOM      6  C   UNL     1       0.804  11.357  20.845  0.00  0.00    +0.000 C 
ENDROOT
BRANCH   6   7
ATOM      7  C   UNL     1      -0.210  11.773  21.891  0.00  0.00    +0.000 A 
ATOM      8  N   UNL     1      -0.329  12.983  22.401  0.00  0.00    +0.000 NA
ATOM      9  C   UNL     1      -1.430  12.972  23.215  0.00  0.00    +0.000 A 
ATOM     10  C   UNL     1      -1.949  11.700  23.279  0.00  0.00    +0.000 A 
ATOM     11  N   UNL     1      -1.150  10.944  22.458  0.00  0.00    +0.000 N 
ATOM     12  H   UNL     1      -1.328   9.985  22.187  0.00  0.00    +0.000 HD
BRANCH   9  13
ATOM     13  C   UNL     1      -1.942  14.182  23.828  0.00  0.00    +0.000 A 
ATOM     14  C   UNL     1      -3.331  14.323  23.988  0.00  0.00    +0.000 A 
ATOM     15  C   UNL     1      -3.875  15.464  24.572  0.00  0.00    +0.000 A 
ATOM     16  C   UNL     1      -3.032  16.488  25.004  0.00  0.00    +0.000 A 
ATOM     17  C   UNL     1      -1.650  16.356  24.854  0.00  0.00    +0.000 A 
ATOM     18  C   UNL     1      -1.105  15.211  24.274  0.00  0.00    +0.000 A 
ENDBRANCH   9  13
ENDBRANCH   6   7
BRANCH   1  19
ATOM     19  S   UNL     1       0.810   8.684  21.121  0.00  0.00    +0.000 S 
ATOM     20  O   UNL     1      -0.436   7.969  21.319  0.00  0.00    +0.000 OA
ATOM     21  O   UNL     1       1.580   9.120  22.264  0.00  0.00    +0.000 OA
BRANCH  19  24
ATOM     22  C   UNL     1       2.712   5.545  19.656  0.00  0.00    +0.000 A 
ATOM     23  C   UNL     1       1.924   6.144  20.637  0.00  0.00    +0.000 A 
ATOM     24  C   UNL     1       1.829   7.529  20.339  0.00  0.00    +0.000 A 
ATOM     25  C   UNL     1       2.608   7.762  19.223  0.00  0.00    +0.000 A 
ATOM     26  N   UNL     1       3.009   6.542  18.745  0.00  0.00    +0.000 N 
ATOM     27  C   UNL     1       3.498   6.324  17.397  0.00  0.00    +0.000 C 
BRANCH  22  31
ATOM     28  C   UNL     1       2.875   1.847  18.935  0.00  0.00    +0.000 C 
ATOM     29  N   UNL     1       2.363   3.206  18.971  0.00  0.00    +0.000 N 
ATOM     30  C   UNL     1       1.113   3.457  18.272  0.00  0.00    +0.000 C 
ATOM     31  C   UNL     1       3.202   4.183  19.508  0.00  0.00    +0.000 C 
ATOM     32  O   UNL     1       4.356   3.899  19.835  0.00  0.00    +0.000 OA
ENDBRANCH  22  31
ENDBRANCH  19  24
ENDBRANCH   1  19
TORSDOF 5
ENDMDL
MODEL 4
REMARK VINA RESULT:      -7.4      4.762      8.246
REMARK  Name = 
REMARK  8 active torsions:
REMARK  status: ('A' for Active; 'I' for Inactive)
REMARK    1  A    between atoms: C_1  and  N_2
REMARK    2  A    between atoms: N_2  and  C_3
REMARK    3  A    between atoms: C_4  and  C_6
REMARK    4  A    between atoms: C_8  and  S_9
REMARK    5  A    between atoms: S_9  and  N_12
REMARK    6  A    between atoms: C_17  and  C_18
REMARK    7  A    between atoms: C_20  and  C_21
REMARK    8  A    between atoms: N_30  and  C_31
REMARK                            x       y       z     vdW  Elec       q    Type
REMARK                         _______ _______ _______ _____ _____    ______ ____
ROOT
ATOM      1  N   UNL     1       0.355  13.725  20.804  0.00  0.00    +0.000 NA
ATOM      2  C   UNL     1       1.834  13.632  20.887  0.00  0.00    +0.000 C 
ATOM      3  C   UNL     1       2.478  14.045  19.560  0.00  0.00    +0.000 C 
ATOM      4  C   UNL     1       1.905  13.304  18.358  0.00  0.00    +0.000 C 
ATOM      5  C   UNL     1       0.375  13.357  18.364  0.00  0.00    +0.000 C 
ATOM      6  C   UNL     1      -0.227  12.874  19.705  0.00  0.00    +0.000 C 
ENDROOT
BRANCH   6   7
ATOM      7  C   UNL     1       0.015  11.388  19.876  0.00  0.00    +0.000 A 
ATOM      8  N   UNL     1       0.839  10.660  19.150  0.00  0.00    +0.000 NA
ATOM      9  C   UNL     1       0.856   9.404  19.696  0.00  0.00    +0.000 A 
ATOM     10  C   UNL     1      -0.047   9.334  20.731  0.00  0.00    +0.000 A 
ATOM     11  N   UNL     1      -0.594  10.590  20.816  0.00  0.00    +0.000 N 
ATOM     12  H   UNL     1      -1.210  10.912  21.552  0.00  0.00    +0.000 HD
BRANCH   9  13
ATOM     13  C   UNL     1       1.772   8.379  19.233  0.00  0.00    +0.000 A 
ATOM     14  C   UNL     1       2.424   8.563  18.003  0.00  0.00    +0.000 A 
ATOM     15  C   UNL     1       3.315   7.611  17.512  0.00  0.00    +0.000 A 
ATOM     16  C   UNL     1       3.564   6.453  18.249  0.00  0.00    +0.000 A 
ATOM     17  C   UNL     1       2.924   6.263  19.475  0.00  0.00    +0.000 A 
ATOM     18  C   UNL     1       2.036   7.219  19.969  0.00  0.00    +0.000 A 
ENDBRANCH   9  13
ENDBRANCH   6   7
BRANCH   1  19
ATOM     19  S   UNL     1      -0.517  13.679  22.252  0.00  0.00    +0.000 S 
ATOM     20  O   UNL     1      -0.224  14.887  22.998  0.00  0.00    +0.000 OA
ATOM     21  O   UNL     1      -0.291  12.386  22.857  0.00  0.00    +0.000 OA
BRANCH  19  24
ATOM     22  C   UNL     1      -4.443  13.232  22.149  0.00  0.00    +0.000 A 
ATOM     23  C   UNL     1      -3.161  12.708  22.297  0.00  0.00    +0.000 A 
ATOM     24  C   UNL     1      -2.228  13.743  22.019  0.00  0.00    +0.000 A 
ATOM     25  C   UNL     1      -2.953  14.857  21.646  0.00  0.00    +0.000 A 
ATOM     26  N   UNL     1      -4.275  14.576  21.870  0.00  0.00    +0.000 N 
ATOM     27  C   UNL     1      -5.308  15.588  21.983  0.00  0.00    +0.000 C 
BRANCH  22  31
ATOM     28  C   UNL     1      -7.729  11.649  21.192  0.00  0.00    +0.000 C 
ATOM     29  N   UNL     1      -6.381  12.174  21.060  0.00  0.00    +0.000 N 
ATOM     30  C   UNL     1      -5.738  12.017  19.765  0.00  0.00    +0.000 C 
ATOM     31  C   UNL     1      -5.757  12.611  22.228  0.00  0.00    +0.000 C 
ATOM     32  O   UNL     1      -6.303  12.453  23.321  0.00  0.00    +0.000 OA
ENDBRANCH  22  31
ENDBRANCH  19  24
ENDBRANCH   1  19
TORSDOF 5
ENDMDL
MODEL 5
REMARK VINA RESULT:      -7.3      7.152     10.149
REMARK  Name = 
REMARK  8 active torsions:
REMARK  status: ('A' for Active; 'I' for Inactive)
REMARK    1  A    between atoms: C_1  and  N_2
REMARK    2  A    between atoms: N_2  and  C_3
REMARK    3  A    between atoms: C_4  and  C_6
REMARK    4  A    between atoms: C_8  and  S_9
REMARK    5  A    between atoms: S_9  and  N_12
REMARK    6  A    between atoms: C_17  and  C_18
REMARK    7  A    between atoms: C_20  and  C_21
REMARK    8  A    between atoms: N_30  and  C_31
REMARK                            x       y       z     vdW  Elec       q    Type
REMARK                         _______ _______ _______ _____ _____    ______ ____
ROOT
ATOM      1  N   UNL     1       0.255  11.986  21.572  0.00  0.00    +0.000 NA
ATOM      2  C   UNL     1      -0.747  11.290  22.417  0.00  0.00    +0.000 C 
ATOM      3  C   UNL     1      -0.365   9.819  22.610  0.00  0.00    +0.000 C 
ATOM      4  C   UNL     1      -0.091   9.093  21.299  0.00  0.00    +0.000 C 
ATOM      5  C   UNL     1       0.883   9.891  20.427  0.00  0.00    +0.000 C 
ATOM      6  C   UNL     1       0.421  11.352  20.214  0.00  0.00    +0.000 C 
ENDROOT
BRANCH   6   7
ATOM      7  C   UNL     1      -0.829  11.381  19.359  0.00  0.00    +0.000 A 
ATOM      8  N   UNL     1      -2.065  11.440  19.814  0.00  0.00    +0.000 NA
ATOM      9  C   UNL     1      -2.890  11.568  18.728  0.00  0.00    +0.000 A 
ATOM     10  C   UNL     1      -2.150  11.497  17.571  0.00  0.00    +0.000 A 
ATOM     11  N   UNL     1      -0.849  11.350  17.984  0.00  0.00    +0.000 N 
ATOM     12  H   UNL     1      -0.035  11.384  17.383  0.00  0.00    +0.000 HD
BRANCH   9  13
ATOM     13  C   UNL     1      -4.312  11.807  18.870  0.00  0.00    +0.000 A 
ATOM     14  C   UNL     1      -4.757  12.635  19.914  0.00  0.00    +0.000 A 
ATOM     15  C   UNL     1      -6.113  12.899  20.095  0.00  0.00    +0.000 A 
ATOM     16  C   UNL     1      -7.048  12.332  19.229  0.00  0.00    +0.000 A 
ATOM     17  C   UNL     1      -6.616  11.512  18.185  0.00  0.00    +0.000 A 
ATOM     18  C   UNL     1      -5.258  11.252  18.002  0.00  0.00    +0.000 A 
ENDBRANCH   9  13
ENDBRANCH   6   7
BRANCH   1  19
ATOM     19  S   UNL     1       0.225  13.677  21.549  0.00  0.00    +0.000 S 
ATOM     20  O   UNL     1      -0.014  14.107  20.185  0.00  0.00    +0.000 OA
ATOM     21  O   UNL     1       1.394  14.144  22.258  0.00  0.00    +0.000 OA
BRANCH  19  24
ATOM     22  C   UNL     1      -3.224  14.828  23.097  0.00  0.00    +0.000 A 
ATOM     23  C   UNL     1      -2.461  14.378  22.022  0.00  0.00    +0.000 A 
ATOM     24  C   UNL     1      -1.102  14.346  22.431  0.00  0.00    +0.000 A 
ATOM     25  C   UNL     1      -1.051  14.835  23.721  0.00  0.00    +0.000 A 
ATOM     26  N   UNL     1      -2.343  14.980  24.152  0.00  0.00    +0.000 N 
ATOM     27  C   UNL     1      -2.722  15.087  25.548  0.00  0.00    +0.000 C 
BRANCH  22  31
ATOM     28  C   UNL     1      -6.952  14.445  23.519  0.00  0.00    +0.000 C 
ATOM     29  N   UNL     1      -5.541  14.101  23.504  0.00  0.00    +0.000 N 
ATOM     30  C   UNL     1      -5.183  12.774  23.979  0.00  0.00    +0.000 C 
ATOM     31  C   UNL     1      -4.643  15.129  23.216  0.00  0.00    +0.000 C 
ATOM     32  O   UNL     1      -5.045  16.286  23.085  0.00  0.00    +0.000 OA
ENDBRANCH  22  31
ENDBRANCH  19  24
ENDBRANCH   1  19
TORSDOF 5
ENDMDL
MODEL 6
REMARK VINA RESULT:      -7.3      3.394     10.724
REMARK  Name = 
REMARK  8 active torsions:
REMARK  status: ('A' for Active; 'I' for Inactive)
REMARK    1  A    between atoms: C_1  and  N_2
REMARK    2  A    between atoms: N_2  and  C_3
REMARK    3  A    between atoms: C_4  and  C_6
REMARK    4  A    between atoms: C_8  and  S_9
REMARK    5  A    between atoms: S_9  and  N_12
REMARK    6  A    between atoms: C_17  and  C_18
REMARK    7  A    between atoms: C_20  and  C_21
REMARK    8  A    between atoms: N_30  and  C_31
REMARK                            x       y       z     vdW  Elec       q    Type
REMARK                         _______ _______ _______ _____ _____    ______ ____
ROOT
ATOM      1  N   UNL     1       0.312  10.146  20.170  0.00  0.00    +0.000 NA
ATOM      2  C   UNL     1      -0.852   9.956  19.269  0.00  0.00    +0.000 C 
ATOM      3  C   UNL     1      -0.878  11.037  18.184  0.00  0.00    +0.000 C 
ATOM      4  C   UNL     1      -0.787  12.452  18.742  0.00  0.00    +0.000 C 
ATOM      5  C   UNL     1       0.377  12.573  19.731  0.00  0.00    +0.000 C 
ATOM      6  C   UNL     1       0.323  11.496  20.839  0.00  0.00    +0.000 C 
ENDROOT
BRANCH   6   7
ATOM      7  C   UNL     1      -0.861  11.748  21.750  0.00  0.00    +0.000 A 
ATOM      8  N   UNL     1      -1.871  12.553  21.486  0.00  0.00    +0.000 NA
ATOM      9  C   UNL     1      -2.780  12.408  22.500  0.00  0.00    +0.000 A 
ATOM     10  C   UNL     1      -2.278  11.559  23.457  0.00  0.00    +0.000 A 
ATOM     11  N   UNL     1      -1.050  11.169  22.984  0.00  0.00    +0.000 N 
ATOM     12  H   UNL     1      -0.465  10.451  23.392  0.00  0.00    +0.000 HD
BRANCH   9  13
ATOM     13  C   UNL     1      -4.083  13.042  22.456  0.00  0.00    +0.000 A 
ATOM     14  C   UNL     1      -4.741  13.150  21.220  0.00  0.00    +0.000 A 
ATOM     15  C   UNL     1      -5.995  13.748  21.123  0.00  0.00    +0.000 A 
ATOM     16  C   UNL     1      -6.611  14.253  22.268  0.00  0.00    +0.000 A 
ATOM     17  C   UNL     1      -5.968  14.146  23.503  0.00  0.00    +0.000 A 
ATOM     18  C   UNL     1      -4.714  13.542  23.601  0.00  0.00    +0.000 A 
ENDBRANCH   9  13
ENDBRANCH   6   7
BRANCH   1  19
ATOM     19  S   UNL     1       0.732   8.863  21.189  0.00  0.00    +0.000 S 
ATOM     20  O   UNL     1      -0.474   8.128  21.515  0.00  0.00    +0.000 OA
ATOM     21  O   UNL     1       1.558   9.400  22.247  0.00  0.00    +0.000 OA
BRANCH  19  24
ATOM     22  C   UNL     1       2.596   5.683  19.763  0.00  0.00    +0.000 A 
ATOM     23  C   UNL     1       1.813   6.303  20.734  0.00  0.00    +0.000 A 
ATOM     24  C   UNL     1       1.739   7.686  20.423  0.00  0.00    +0.000 A 
ATOM     25  C   UNL     1       2.526   7.896  19.308  0.00  0.00    +0.000 A 
ATOM     26  N   UNL     1       2.912   6.667  18.845  0.00  0.00    +0.000 N 
ATOM     27  C   UNL     1       3.403   6.428  17.501  0.00  0.00    +0.000 C 
BRANCH  22  31
ATOM     28  C   UNL     1       2.729   1.990  19.013  0.00  0.00    +0.000 C 
ATOM     29  N   UNL     1       2.243   3.358  19.033  0.00  0.00    +0.000 N 
ATOM     30  C   UNL     1       1.044   3.641  18.261  0.00  0.00    +0.000 C 
ATOM     31  C   UNL     1       3.067   4.312  19.631  0.00  0.00    +0.000 C 
ATOM     32  O   UNL     1       4.192   4.002  20.025  0.00  0.00    +0.000 OA
ENDBRANCH  22  31
ENDBRANCH  19  24
ENDBRANCH   1  19
TORSDOF 5
ENDMDL
MODEL 7
REMARK VINA RESULT:      -7.3      2.914     10.688
REMARK  Name = 
REMARK  8 active torsions:
REMARK  status: ('A' for Active; 'I' for Inactive)
REMARK    1  A    between atoms: C_1  and  N_2
REMARK    2  A    between atoms: N_2  and  C_3
REMARK    3  A    between atoms: C_4  and  C_6
REMARK    4  A    between atoms: C_8  and  S_9
REMARK    5  A    between atoms: S_9  and  N_12
REMARK    6  A    between atoms: C_17  and  C_18
REMARK    7  A    between atoms: C_20  and  C_21
REMARK    8  A    between atoms: N_30  and  C_31
REMARK                            x       y       z     vdW  Elec       q    Type
REMARK                         _______ _______ _______ _____ _____    ______ ____
ROOT
ATOM      1  N   UNL     1       0.651   9.881  20.199  0.00  0.00    +0.000 NA
ATOM      2  C   UNL     1      -0.587   9.910  19.381  0.00  0.00    +0.000 C 
ATOM      3  C   UNL     1      -0.464  10.935  18.249  0.00  0.00    +0.000 C 
ATOM      4  C   UNL     1      -0.043  12.316  18.733  0.00  0.00    +0.000 C 
ATOM      5  C   UNL     1       1.187  12.224  19.640  0.00  0.00    +0.000 C 
ATOM      6  C   UNL     1       0.989  11.221  20.801  0.00  0.00    +0.000 C 
ENDROOT
BRANCH   6   7
ATOM      7  C   UNL     1      -0.050  11.747  21.770  0.00  0.00    +0.000 A 
ATOM      8  N   UNL     1      -0.067  12.959  22.287  0.00  0.00    +0.000 NA
ATOM      9  C   UNL     1      -1.224  13.072  23.012  0.00  0.00    +0.000 A 
ATOM     10  C   UNL     1      -1.892  11.870  23.013  0.00  0.00    +0.000 A 
ATOM     11  N   UNL     1      -1.123  11.030  22.246  0.00  0.00    +0.000 N 
ATOM     12  H   UNL     1      -1.390  10.101  21.946  0.00  0.00    +0.000 HD
BRANCH   9  13
ATOM     13  C   UNL     1      -1.639  14.330  23.602  0.00  0.00    +0.000 A 
ATOM     14  C   UNL     1      -2.678  14.322  24.547  0.00  0.00    +0.000 A 
ATOM     15  C   UNL     1      -3.113  15.503  25.146  0.00  0.00    +0.000 A 
ATOM     16  C   UNL     1      -2.513  16.714  24.801  0.00  0.00    +0.000 A 
ATOM     17  C   UNL     1      -1.476  16.731  23.867  0.00  0.00    +0.000 A 
ATOM     18  C   UNL     1      -1.037  15.549  23.272  0.00  0.00    +0.000 A 
ENDBRANCH   9  13
ENDBRANCH   6   7
BRANCH   1  19
ATOM     19  S   UNL     1       0.868   8.574  21.251  0.00  0.00    +0.000 S 
ATOM     20  O   UNL     1      -0.435   8.155  21.728  0.00  0.00    +0.000 OA
ATOM     21  O   UNL     1       1.898   8.941  22.196  0.00  0.00    +0.000 OA
BRANCH  19  24
ATOM     22  C   UNL     1       2.762   5.823  19.138  0.00  0.00    +0.000 A 
ATOM     23  C   UNL     1       2.340   7.136  19.328  0.00  0.00    +0.000 A 
ATOM     24  C   UNL     1       1.493   7.166  20.468  0.00  0.00    +0.000 A 
ATOM     25  C   UNL     1       1.363   5.867  20.914  0.00  0.00    +0.000 A 
ATOM     26  N   UNL     1       2.242   5.100  20.197  0.00  0.00    +0.000 N 
ATOM     27  C   UNL     1       2.695   3.787  20.614  0.00  0.00    +0.000 C 
BRANCH  22  31
ATOM     28  C   UNL     1       5.701   4.683  17.069  0.00  0.00    +0.000 C 
ATOM     29  N   UNL     1       4.955   5.232  18.188  0.00  0.00    +0.000 N 
ATOM     30  C   UNL     1       5.714   5.574  19.380  0.00  0.00    +0.000 C 
ATOM     31  C   UNL     1       3.563   5.205  18.092  0.00  0.00    +0.000 C 
ATOM     32  O   UNL     1       3.016   4.647  17.140  0.00  0.00    +0.000 OA
ENDBRANCH  22  31
ENDBRANCH  19  24
ENDBRANCH   1  19
TORSDOF 5
ENDMDL
MODEL 8
REMARK VINA RESULT:      -7.2      6.987     10.133
REMARK  Name = 
REMARK  8 active torsions:
REMARK  status: ('A' for Active; 'I' for Inactive)
REMARK    1  A    between atoms: C_1  and  N_2
REMARK    2  A    between atoms: N_2  and  C_3
REMARK    3  A    between atoms: C_4  and  C_6
REMARK    4  A    between atoms: C_8  and  S_9
REMARK    5  A    between atoms: S_9  and  N_12
REMARK    6  A    between atoms: C_17  and  C_18
REMARK    7  A    between atoms: C_20  and  C_21
REMARK    8  A    between atoms: N_30  and  C_31
REMARK                            x       y       z     vdW  Elec       q    Type
REMARK                         _______ _______ _______ _____ _____    ______ ____
ROOT
ATOM      1  N   UNL     1       0.269  11.998  21.157  0.00  0.00    +0.000 NA
ATOM      2  C   UNL     1      -0.494  10.996  21.942  0.00  0.00    +0.000 C 
ATOM      3  C   UNL     1       0.162   9.615  21.840  0.00  0.00    +0.000 C 
ATOM      4  C   UNL     1       0.415   9.174  20.405  0.00  0.00    +0.000 C 
ATOM      5  C   UNL     1       1.128  10.274  19.614  0.00  0.00    +0.000 C 
ATOM      6  C   UNL     1       0.393  11.633  19.700  0.00  0.00    +0.000 C 
ENDROOT
BRANCH   6   7
ATOM      7  C   UNL     1      -0.928  11.555  18.964  0.00  0.00    +0.000 A 
ATOM      8  N   UNL     1      -2.119  11.547  19.531  0.00  0.00    +0.000 NA
ATOM      9  C   UNL     1      -3.046  11.588  18.524  0.00  0.00    +0.000 A 
ATOM     10  C   UNL     1      -2.412  11.530  17.305  0.00  0.00    +0.000 A 
ATOM     11  N   UNL     1      -1.072  11.481  17.598  0.00  0.00    +0.000 N 
ATOM     12  H   UNL     1      -0.321  11.550  16.923  0.00  0.00    +0.000 HD
BRANCH   9  13
ATOM     13  C   UNL     1      -4.463  11.738  18.792  0.00  0.00    +0.000 A 
ATOM     14  C   UNL     1      -5.372  10.931  18.090  0.00  0.00    +0.000 A 
ATOM     15  C   UNL     1      -6.744  11.033  18.311  0.00  0.00    +0.000 A 
ATOM     16  C   UNL     1      -7.227  11.953  19.242  0.00  0.00    +0.000 A 
ATOM     17  C   UNL     1      -6.331  12.756  19.950  0.00  0.00    +0.000 A 
ATOM     18  C   UNL     1      -4.957  12.650  19.732  0.00  0.00    +0.000 A 
ENDBRANCH   9  13
ENDBRANCH   6   7
BRANCH   1  19
ATOM     19  S   UNL     1      -0.063  13.632  21.436  0.00  0.00    +0.000 S 
ATOM     20  O   UNL     1      -0.431  14.242  20.173  0.00  0.00    +0.000 OA
ATOM     21  O   UNL     1       1.032  14.175  22.207  0.00  0.00    +0.000 OA
BRANCH  19  24
ATOM     22  C   UNL     1      -3.440  13.544  23.487  0.00  0.00    +0.000 A 
ATOM     23  C   UNL     1      -2.664  13.149  22.400  0.00  0.00    +0.000 A 
ATOM     24  C   UNL     1      -1.450  13.884  22.435  0.00  0.00    +0.000 A 
ATOM     25  C   UNL     1      -1.532  14.757  23.502  0.00  0.00    +0.000 A 
ATOM     26  N   UNL     1      -2.664  14.438  24.203  0.00  0.00    +0.000 N 
ATOM     27  C   UNL     1      -2.904  14.839  25.576  0.00  0.00    +0.000 C 
BRANCH  22  31
ATOM     28  C   UNL     1      -7.155  13.688  24.119  0.00  0.00    +0.000 C 
ATOM     29  N   UNL     1      -5.846  14.054  23.607  0.00  0.00    +0.000 N 
ATOM     30  C   UNL     1      -5.790  15.179  22.687  0.00  0.00    +0.000 C 
ATOM     31  C   UNL     1      -4.791  13.186  23.893  0.00  0.00    +0.000 C 
ATOM     32  O   UNL     1      -5.005  12.116  24.465  0.00  0.00    +0.000 OA
ENDBRANCH  22  31
ENDBRANCH  19  24
ENDBRANCH   1  19
TORSDOF 5
ENDMDL
MODEL 9
REMARK VINA RESULT:      -7.2      2.434      8.176
REMARK  Name = 
REMARK  8 active torsions:
REMARK  status: ('A' for Active; 'I' for Inactive)
REMARK    1  A    between atoms: C_1  and  N_2
REMARK    2  A    between atoms: N_2  and  C_3
REMARK    3  A    between atoms: C_4  and  C_6
REMARK    4  A    between atoms: C_8  and  S_9
REMARK    5  A    between atoms: S_9  and  N_12
REMARK    6  A    between atoms: C_17  and  C_18
REMARK    7  A    between atoms: C_20  and  C_21
REMARK    8  A    between atoms: N_30  and  C_31
REMARK                            x       y       z     vdW  Elec       q    Type
REMARK                         _______ _______ _______ _____ _____    ______ ____
ROOT
ATOM      1  N   UNL     1       3.501   3.842  19.102  0.00  0.00    +0.000 NA
ATOM      2  C   UNL     1       3.007   3.238  20.364  0.00  0.00    +0.000 C 
ATOM      3  C   UNL     1       1.695   2.484  20.126  0.00  0.00    +0.000 C 
ATOM      4  C   UNL     1       0.639   3.324  19.420  0.00  0.00    +0.000 C 
ATOM      5  C   UNL     1       1.221   3.994  18.171  0.00  0.00    +0.000 C 
ATOM      6  C   UNL     1       2.511   4.791  18.477  0.00  0.00    +0.000 C 
ENDROOT
BRANCH   6   7
ATOM      7  C   UNL     1       2.184   5.999  19.331  0.00  0.00    +0.000 A 
ATOM      8  N   UNL     1       1.956   7.216  18.878  0.00  0.00    +0.000 NA
ATOM      9  C   UNL     1       1.583   7.983  19.950  0.00  0.00    +0.000 A 
ATOM     10  C   UNL     1       1.670   7.242  21.105  0.00  0.00    +0.000 A 
ATOM     11  N   UNL     1       2.079   5.995  20.703  0.00  0.00    +0.000 N 
ATOM     12  H   UNL     1       2.127   5.174  21.294  0.00  0.00    +0.000 HD
BRANCH   9  13
ATOM     13  C   UNL     1       1.117   9.346  19.791  0.00  0.00    +0.000 A 
ATOM     14  C   UNL     1       0.392   9.938  20.838  0.00  0.00    +0.000 A 
ATOM     15  C   UNL     1      -0.077  11.246  20.738  0.00  0.00    +0.000 A 
ATOM     16  C   UNL     1       0.171  11.982  19.579  0.00  0.00    +0.000 A 
ATOM     17  C   UNL     1       0.895  11.405  18.535  0.00  0.00    +0.000 A 
ATOM     18  C   UNL     1       1.369  10.097  18.637  0.00  0.00    +0.000 A 
ENDBRANCH   9  13
ENDBRANCH   6   7
BRANCH   1  19
ATOM     19  S   UNL     1       5.101   4.389  19.066  0.00  0.00    +0.000 S 
ATOM     20  O   UNL     1       5.974   3.251  19.277  0.00  0.00    +0.000 OA
ATOM     21  O   UNL     1       5.190   5.537  19.940  0.00  0.00    +0.000 OA
BRANCH  19  24
ATOM     22  C   UNL     1       6.337   5.073  15.375  0.00  0.00    +0.000 A 
ATOM     23  C   UNL     1       6.336   4.305  16.537  0.00  0.00    +0.000 A 
ATOM     24  C   UNL     1       5.580   4.996  17.520  0.00  0.00    +0.000 A 
ATOM     25  C   UNL     1       5.186   6.196  16.965  0.00  0.00    +0.000 A 
ATOM     26  N   UNL     1       5.524   6.161  15.638  0.00  0.00    +0.000 N 
ATOM     27  C   UNL     1       4.947   7.035  14.634  0.00  0.00    +0.000 C 
BRANCH  22  31
ATOM     28  C   UNL     1       7.212   3.852  11.916  0.00  0.00    +0.000 C 
ATOM     29  N   UNL     1       6.446   4.063  13.133  0.00  0.00    +0.000 N 
ATOM     30  C   UNL     1       5.085   3.551  13.150  0.00  0.00    +0.000 C 
ATOM     31  C   UNL     1       7.012   4.896  14.098  0.00  0.00    +0.000 C 
ATOM     32  O   UNL     1       8.064   5.492  13.865  0.00  0.00    +0.000 OA
ENDBRANCH  22  31
ENDBRANCH  19  24
ENDBRANCH   1  19
TORSDOF 5
ENDMDL
