MODEL 1
REMARK VINA RESULT:      -8.5      0.000      0.000
REMARK  Name = 
REMARK  4 active torsions:
REMARK  status: ('A' for Active; 'I' for Inactive)
REMARK    1  A    between atoms: C_1  and  O_2
REMARK    2  A    between atoms: O_2  and  C_3
REMARK    3  A    between atoms: C_10  and  C_11
REMARK    4  A    between atoms: C_18  and  C_19
REMARK                            x       y       z     vdW  Elec       q    Type
REMARK                         _______ _______ _______ _____ _____    ______ ____
ROOT
ATOM      1  C   UNL     1       2.735   5.837  19.671  0.00  0.00    +0.000 C 
ATOM      2  O   UNL     1       2.642   5.156  20.698  0.00  0.00    +0.000 OA
ATOM      3  N   UNL     1       2.194   7.126  19.632  0.00  0.00    +0.000 N 
ATOM      4  C   UNL     1       2.319   8.000  18.444  0.00  0.00    +0.000 C 
ATOM      5  C   UNL     1       1.707   9.413  18.425  0.00  0.00    +0.000 C 
ATOM      6  C   UNL     1       1.029   9.725  19.681  0.00  0.00    +0.000 A 
ATOM      7  N   UNL     1       0.400  10.884  20.017  0.00  0.00    +0.000 N 
ATOM      8  C   UNL     1      -0.043  10.757  21.317  0.00  0.00    +0.000 A 
ATOM      9  N   UNL     1       0.267   9.559  21.786  0.00  0.00    +0.000 NA
ATOM     10  C   UNL     1       0.919   8.906  20.769  0.00  0.00    +0.000 A 
ATOM     11  C   UNL     1       1.431   7.521  20.841  0.00  0.00    +0.000 C 
ATOM     12  H   UNL     1       0.314  11.714  19.448  0.00  0.00    +0.000 HD
ENDROOT
BRANCH   1  20
ATOM     13  C   UNL     1       5.824   4.916  18.095  0.00  0.00    +0.000 C 
ATOM     14  O   UNL     1       6.848   4.254  18.159  0.00  0.00    +0.000 OA
ATOM     15  N   UNL     1       4.597   4.499  18.582  0.00  0.00    +0.000 N 
ATOM     16  C   UNL     1       4.490   3.214  19.267  0.00  0.00    +0.000 C 
ATOM     17  C   UNL     1       3.477   2.304  18.576  0.00  0.00    +0.000 C 
ATOM     18  C   UNL     1       2.145   3.009  18.328  0.00  0.00    +0.000 C 
ATOM     19  C   UNL     1       2.356   4.344  17.612  0.00  0.00    +0.000 C 
ATOM     20  C   UNL     1       3.350   5.247  18.361  0.00  0.00    +0.000 C 
BRANCH  13  22
ATOM     21  C   UNL     1       6.996   6.845  17.422  0.00  0.00    +0.000 C 
ATOM     22  O   UNL     1       5.756   6.140  17.496  0.00  0.00    +0.000 OA
ENDBRANCH  13  22
ENDBRANCH   1  20
BRANCH   8  23
ATOM     23  C   UNL     1      -0.694  11.838  22.045  0.00  0.00    +0.000 A 
ATOM     24  C   UNL     1      -1.829  11.635  22.838  0.00  0.00    +0.000 A 
ATOM     25  C   UNL     1      -2.434  12.718  23.472  0.00  0.00    +0.000 A 
ATOM     26  C   UNL     1      -1.883  13.975  23.294  0.00  0.00    +0.000 A 
ATOM     27  N   UNL     1      -0.783  14.213  22.550  0.00  0.00    +0.000 NA
ATOM     28  C   UNL     1      -0.209  13.139  21.952  0.00  0.00    +0.000 A 
ENDBRANCH   8  23
TORSDOF 3
ENDMDL
MODEL 2
REMARK VINA RESULT:      -8.2      0.679      1.055
REMARK  Name = 
REMARK  4 active torsions:
REMARK  status: ('A' for Active; 'I' for Inactive)
REMARK    1  A    between atoms: C_1  and  O_2
REMARK    2  A    between atoms: O_2  and  C_3
REMARK    3  A    between atoms: C_10  and  C_11
REMARK    4  A    between atoms: C_18  and  C_19
REMARK                            x       y       z     vdW  Elec       q    Type
REMARK                         _______ _______ _______ _____ _____    ______ ____
ROOT
ATOM      1  C   UNL     1       2.727   5.808  19.377  0.00  0.00    +0.000 C 
ATOM      2  O   UNL     1       2.718   5.189  20.446  0.00  0.00    +0.000 OA
ATOM      3  N   UNL     1       2.234   7.116  19.319  0.00  0.00    +0.000 N 
ATOM      4  C   UNL     1       2.265   7.918  18.075  0.00  0.00    +0.000 C 
ATOM      5  C   UNL     1       1.707   9.353  18.037  0.00  0.00    +0.000 C 
ATOM      6  C   UNL     1       1.178   9.762  19.336  0.00  0.00    +0.000 A 
ATOM      7  N   UNL     1       0.631  10.963  19.667  0.00  0.00    +0.000 N 
ATOM      8  C   UNL     1       0.324  10.926  21.011  0.00  0.00    +0.000 A 
ATOM      9  N   UNL     1       0.636   9.743  21.515  0.00  0.00    +0.000 NA
ATOM     10  C   UNL     1       1.152   9.008  20.476  0.00  0.00    +0.000 A 
ATOM     11  C   UNL     1       1.618   7.608  20.575  0.00  0.00    +0.000 C 
ATOM     12  H   UNL     1       0.517  11.764  19.062  0.00  0.00    +0.000 HD
ENDROOT
BRANCH   1  20
ATOM     13  C   UNL     1       5.602   4.825  17.471  0.00  0.00    +0.000 C 
ATOM     14  O   UNL     1       6.647   4.194  17.447  0.00  0.00    +0.000 OA
ATOM     15  N   UNL     1       4.468   4.424  18.155  0.00  0.00    +0.000 N 
ATOM     16  C   UNL     1       4.498   3.200  18.951  0.00  0.00    +0.000 C 
ATOM     17  C   UNL     1       3.432   2.212  18.484  0.00  0.00    +0.000 C 
ATOM     18  C   UNL     1       2.056   2.863  18.365  0.00  0.00    +0.000 C 
ATOM     19  C   UNL     1       2.122   4.136  17.520  0.00  0.00    +0.000 C 
ATOM     20  C   UNL     1       3.178   5.122  18.048  0.00  0.00    +0.000 C 
BRANCH  13  22
ATOM     21  C   UNL     1       6.255   7.071  17.193  0.00  0.00    +0.000 C 
ATOM     22  O   UNL     1       5.413   5.991  16.788  0.00  0.00    +0.000 OA
ENDBRANCH  13  22
ENDBRANCH   1  20
BRANCH   8  23
ATOM     23  C   UNL     1      -0.206  12.073  21.738  0.00  0.00    +0.000 A 
ATOM     24  C   UNL     1       0.296  13.368  21.568  0.00  0.00    +0.000 A 
ATOM     25  C   UNL     1      -0.221  14.416  22.327  0.00  0.00    +0.000 A 
ATOM     26  C   UNL     1      -1.227  14.136  23.236  0.00  0.00    +0.000 A 
ATOM     27  N   UNL     1      -1.748  12.905  23.420  0.00  0.00    +0.000 NA
ATOM     28  C   UNL     1      -1.233  11.906  22.661  0.00  0.00    +0.000 A 
ENDBRANCH   8  23
TORSDOF 3
ENDMDL
MODEL 3
REMARK VINA RESULT:      -7.7      2.119      2.428
REMARK  Name = 
REMARK  4 active torsions:
REMARK  status: ('A' for Active; 'I' for Inactive)
REMARK    1  A    between atoms: C_1  and  O_2
REMARK    2  A    between atoms: O_2  and  C_3
REMARK    3  A    between atoms: C_10  and  C_11
REMARK    4  A    between atoms: C_18  and  C_19
REMARK                            x       y       z     vdW  Elec       q    Type
REMARK                         _______ _______ _______ _____ _____    ______ ____
ROOT
ATOM      1  C   UNL     1       2.191   5.765  19.942  0.00  0.00    +0.000 C 
ATOM      2  O   UNL     1       1.848   5.549  21.109  0.00  0.00    +0.000 OA
ATOM      3  N   UNL     1       2.086   7.053  19.407  0.00  0.00    +0.000 N 
ATOM      4  C   UNL     1       2.526   7.375  18.031  0.00  0.00    +0.000 C 
ATOM      5  C   UNL     1       2.391   8.800  17.463  0.00  0.00    +0.000 C 
ATOM      6  C   UNL     1       1.797   9.715  18.435  0.00  0.00    +0.000 A 
ATOM      7  N   UNL     1       1.553  11.045  18.279  0.00  0.00    +0.000 N 
ATOM      8  C   UNL     1       1.042  11.517  19.470  0.00  0.00    +0.000 A 
ATOM      9  N   UNL     1       0.939  10.529  20.343  0.00  0.00    +0.000 NA
ATOM     10  C   UNL     1       1.392   9.402  19.702  0.00  0.00    +0.000 A 
ATOM     11  C   UNL     1       1.439   8.049  20.295  0.00  0.00    +0.000 C 
ATOM     12  H   UNL     1       1.756  11.607  17.465  0.00  0.00    +0.000 HD
ENDROOT
BRANCH   1  20
ATOM     13  C   UNL     1       4.667   3.208  19.499  0.00  0.00    +0.000 C 
ATOM     14  O   UNL     1       5.232   2.235  19.976  0.00  0.00    +0.000 OA
ATOM     15  N   UNL     1       3.333   3.511  19.705  0.00  0.00    +0.000 N 
ATOM     16  C   UNL     1       2.527   2.667  20.583  0.00  0.00    +0.000 C 
ATOM     17  C   UNL     1       1.320   2.096  19.842  0.00  0.00    +0.000 C 
ATOM     18  C   UNL     1       0.537   3.176  19.099  0.00  0.00    +0.000 C 
ATOM     19  C   UNL     1       1.461   4.010  18.210  0.00  0.00    +0.000 C 
ATOM     20  C   UNL     1       2.640   4.601  19.002  0.00  0.00    +0.000 C 
BRANCH  13  22
ATOM     21  C   UNL     1       5.962   5.168  19.322  0.00  0.00    +0.000 C 
ATOM     22  O   UNL     1       5.280   4.098  18.666  0.00  0.00    +0.000 OA
ENDBRANCH  13  22
ENDBRANCH   1  20
BRANCH   8  23
ATOM     23  C   UNL     1       0.736  12.923  19.702  0.00  0.00    +0.000 A 
ATOM     24  C   UNL     1      -0.219  13.619  18.953  0.00  0.00    +0.000 A 
ATOM     25  C   UNL     1      -0.432  14.975  19.191  0.00  0.00    +0.000 A 
ATOM     26  C   UNL     1       0.318  15.596  20.175  0.00  0.00    +0.000 A 
ATOM     27  N   UNL     1       1.238  14.959  20.929  0.00  0.00    +0.000 NA
ATOM     28  C   UNL     1       1.418  13.637  20.681  0.00  0.00    +0.000 A 
ENDBRANCH   8  23
TORSDOF 3
ENDMDL
MODEL 4
REMARK VINA RESULT:      -7.5      1.905      3.337
REMARK  Name = 
REMARK  4 active torsions:
REMARK  status: ('A' for Active; 'I' for Inactive)
REMARK    1  A    between atoms: C_1  and  O_2
REMARK    2  A    between atoms: O_2  and  C_3
REMARK    3  A    between atoms: C_10  and  C_11
REMARK    4  A    between atoms: C_18  and  C_19
REMARK                            x       y       z     vdW  Elec       q    Type
REMARK                         _______ _______ _______ _____ _____    ______ ____
ROOT
ATOM      1  C   UNL     1       4.003   6.531  17.754  0.00  0.00    +0.000 C 
ATOM      2  O   UNL     1       4.244   7.037  16.653  0.00  0.00    +0.000 OA
ATOM      3  N   UNL     1       3.057   7.116  18.603  0.00  0.00    +0.000 N 
ATOM      4  C   UNL     1       2.696   6.525  19.911  0.00  0.00    +0.000 C 
ATOM      5  C   UNL     1       1.657   7.194  20.830  0.00  0.00    +0.000 C 
ATOM      6  C   UNL     1       1.126   8.421  20.241  0.00  0.00    +0.000 A 
ATOM      7  N   UNL     1       0.182   9.250  20.764  0.00  0.00    +0.000 N 
ATOM      8  C   UNL     1      -0.054  10.248  19.843  0.00  0.00    +0.000 A 
ATOM      9  N   UNL     1       0.723  10.082  18.785  0.00  0.00    +0.000 NA
ATOM     10  C   UNL     1       1.471   8.957  19.033  0.00  0.00    +0.000 A 
ATOM     11  C   UNL     1       2.497   8.403  18.123  0.00  0.00    +0.000 C 
ATOM     12  H   UNL     1      -0.306   9.135  21.641  0.00  0.00    +0.000 HD
ENDROOT
BRANCH   1  20
ATOM     13  C   UNL     1       3.902   2.970  18.171  0.00  0.00    +0.000 C 
ATOM     14  O   UNL     1       3.753   1.881  17.639  0.00  0.00    +0.000 OA
ATOM     15  N   UNL     1       4.516   4.053  17.567  0.00  0.00    +0.000 N 
ATOM     16  C   UNL     1       4.984   3.942  16.188  0.00  0.00    +0.000 C 
ATOM     17  C   UNL     1       6.481   4.226  16.090  0.00  0.00    +0.000 C 
ATOM     18  C   UNL     1       6.869   5.525  16.794  0.00  0.00    +0.000 C 
ATOM     19  C   UNL     1       6.333   5.553  18.226  0.00  0.00    +0.000 C 
ATOM     20  C   UNL     1       4.816   5.305  18.278  0.00  0.00    +0.000 C 
BRANCH  13  22
ATOM     21  C   UNL     1       2.199   2.794  19.789  0.00  0.00    +0.000 C 
ATOM     22  O   UNL     1       3.513   3.240  19.450  0.00  0.00    +0.000 OA
ENDBRANCH  13  22
ENDBRANCH   1  20
BRANCH   8  23
ATOM     23  C   UNL     1      -1.070  11.276  20.027  0.00  0.00    +0.000 A 
ATOM     24  C   UNL     1      -1.082  12.133  21.133  0.00  0.00    +0.000 A 
ATOM     25  C   UNL     1      -2.107  13.065  21.277  0.00  0.00    +0.000 A 
ATOM     26  C   UNL     1      -3.092  13.113  20.306  0.00  0.00    +0.000 A 
ATOM     27  N   UNL     1      -3.111  12.316  19.218  0.00  0.00    +0.000 NA
ATOM     28  C   UNL     1      -2.096  11.424  19.099  0.00  0.00    +0.000 A 
ENDBRANCH   8  23
TORSDOF 3
ENDMDL
MODEL 5
REMARK VINA RESULT:      -7.5      1.367      1.722
REMARK  Name = 
REMARK  4 active torsions:
REMARK  status: ('A' for Active; 'I' for Inactive)
REMARK    1  A    between atoms: C_1  and  O_2
REMARK    2  A    between atoms: O_2  and  C_3
REMARK    3  A    between atoms: C_10  and  C_11
REMARK    4  A    between atoms: C_18  and  C_19
REMARK                            x       y       z     vdW  Elec       q    Type
REMARK                         _______ _______ _______ _____ _____    ______ ____
ROOT
ATOM      1  C   UNL     1       2.318   5.789  20.105  0.00  0.00    +0.000 C 
ATOM      2  O   UNL     1       1.993   5.359  21.217  0.00  0.00    +0.000 OA
ATOM      3  N   UNL     1       2.015   7.107  19.746  0.00  0.00    +0.000 N 
ATOM      4  C   UNL     1       2.423   7.686  18.446  0.00  0.00    +0.000 C 
ATOM      5  C   UNL     1       2.068   9.137  18.073  0.00  0.00    +0.000 C 
ATOM      6  C   UNL     1       1.316   9.800  19.136  0.00  0.00    +0.000 A 
ATOM      7  N   UNL     1       0.862  11.083  19.153  0.00  0.00    +0.000 N 
ATOM      8  C   UNL     1       0.259  11.296  20.375  0.00  0.00    +0.000 A 
ATOM      9  N   UNL     1       0.302  10.190  21.101  0.00  0.00    +0.000 NA
ATOM     10  C   UNL     1       0.944   9.251  20.330  0.00  0.00    +0.000 A 
ATOM     11  C   UNL     1       1.199   7.852  20.735  0.00  0.00    +0.000 C 
ATOM     12  H   UNL     1       0.986  11.779  18.432  0.00  0.00    +0.000 HD
ENDROOT
BRANCH   1  20
ATOM     13  C   UNL     1       4.778   3.222  19.628  0.00  0.00    +0.000 C 
ATOM     14  O   UNL     1       5.185   2.120  19.961  0.00  0.00    +0.000 OA
ATOM     15  N   UNL     1       3.441   3.574  19.580  0.00  0.00    +0.000 N 
ATOM     16  C   UNL     1       2.424   2.611  19.994  0.00  0.00    +0.000 C 
ATOM     17  C   UNL     1       1.431   2.338  18.867  0.00  0.00    +0.000 C 
ATOM     18  C   UNL     1       0.881   3.627  18.259  0.00  0.00    +0.000 C 
ATOM     19  C   UNL     1       2.015   4.573  17.860  0.00  0.00    +0.000 C 
ATOM     20  C   UNL     1       2.967   4.856  19.034  0.00  0.00    +0.000 C 
BRANCH  13  22
ATOM     21  C   UNL     1       5.946   4.210  17.837  0.00  0.00    +0.000 C 
ATOM     22  O   UNL     1       5.597   4.234  19.221  0.00  0.00    +0.000 OA
ENDBRANCH  13  22
ENDBRANCH   1  20
BRANCH   8  23
ATOM     23  C   UNL     1      -0.274  12.588  20.784  0.00  0.00    +0.000 A 
ATOM     24  C   UNL     1      -0.520  12.911  22.123  0.00  0.00    +0.000 A 
ATOM     25  C   UNL     1      -1.076  14.147  22.447  0.00  0.00    +0.000 A 
ATOM     26  C   UNL     1      -1.369  15.026  21.419  0.00  0.00    +0.000 A 
ATOM     27  N   UNL     1      -1.136  14.760  20.117  0.00  0.00    +0.000 NA
ATOM     28  C   UNL     1      -0.585  13.553  19.832  0.00  0.00    +0.000 A 
ENDBRANCH   8  23
TORSDOF 3
ENDMDL
MODEL 6
REMARK VINA RESULT:      -7.5      3.731      9.703
REMARK  Name = 
REMARK  4 active torsions:
REMARK  status: ('A' for Active; 'I' for Inactive)
REMARK    1  A    between atoms: C_1  and  O_2
REMARK    2  A    between atoms: O_2  and  C_3
REMARK    3  A    between atoms: C_10  and  C_11
REMARK    4  A    between atoms: C_18  and  C_19
REMARK                            x       y       z     vdW  Elec       q    Type
REMARK                         _______ _______ _______ _____ _____    ______ ____
ROOT
ATOM      1  C   UNL     1      -1.185  11.613  22.030  0.00  0.00    +0.000 C 
ATOM      2  O   UNL     1      -0.855  11.239  23.160  0.00  0.00    +0.000 OA
ATOM      3  N   UNL     1      -0.629  11.006  20.899  0.00  0.00    +0.000 N 
ATOM      4  C   UNL     1      -1.024  11.383  19.524  0.00  0.00    +0.000 C 
ATOM      5  C   UNL     1      -0.389  10.705  18.296  0.00  0.00    +0.000 C 
ATOM      6  C   UNL     1       0.600   9.700  18.685  0.00  0.00    +0.000 A 
ATOM      7  N   UNL     1       1.334   8.900  17.865  0.00  0.00    +0.000 N 
ATOM      8  C   UNL     1       2.091   8.068  18.663  0.00  0.00    +0.000 A 
ATOM      9  N   UNL     1       1.871   8.340  19.939  0.00  0.00    +0.000 NA
ATOM     10  C   UNL     1       0.957   9.365  19.960  0.00  0.00    +0.000 A 
ATOM     11  C   UNL     1       0.433  10.009  21.183  0.00  0.00    +0.000 C 
ATOM     12  H   UNL     1       1.299   8.871  16.856  0.00  0.00    +0.000 HD
ENDROOT
BRANCH   1  20
ATOM     13  C   UNL     1      -4.615  12.551  21.552  0.00  0.00    +0.000 C 
ATOM     14  O   UNL     1      -5.759  12.497  21.975  0.00  0.00    +0.000 OA
ATOM     15  N   UNL     1      -3.492  12.621  22.357  0.00  0.00    +0.000 N 
ATOM     16  C   UNL     1      -3.638  12.581  23.810  0.00  0.00    +0.000 C 
ATOM     17  C   UNL     1      -3.038  13.825  24.460  0.00  0.00    +0.000 C 
ATOM     18  C   UNL     1      -1.619  14.103  23.969  0.00  0.00    +0.000 C 
ATOM     19  C   UNL     1      -1.561  14.123  22.441  0.00  0.00    +0.000 C 
ATOM     20  C   UNL     1      -2.136  12.836  21.827  0.00  0.00    +0.000 C 
BRANCH  13  22
ATOM     21  C   UNL     1      -5.400  12.335  19.342  0.00  0.00    +0.000 C 
ATOM     22  O   UNL     1      -4.306  12.589  20.224  0.00  0.00    +0.000 OA
ENDBRANCH  13  22
ENDBRANCH   1  20
BRANCH   8  23
ATOM     23  C   UNL     1       2.944   7.014  18.129  0.00  0.00    +0.000 A 
ATOM     24  C   UNL     1       4.056   7.283  17.324  0.00  0.00    +0.000 A 
ATOM     25  C   UNL     1       4.806   6.229  16.805  0.00  0.00    +0.000 A 
ATOM     26  C   UNL     1       4.419   4.935  17.108  0.00  0.00    +0.000 A 
ATOM     27  N   UNL     1       3.362   4.633  17.890  0.00  0.00    +0.000 NA
ATOM     28  C   UNL     1       2.656   5.679  18.390  0.00  0.00    +0.000 A 
ENDBRANCH   8  23
TORSDOF 3
ENDMDL
MODEL 7
REMARK VINA RESULT:      -7.3      1.897      3.434
REMARK  Name = 
REMARK  4 active torsions:
REMARK  status: ('A' for Active; 'I' for Inactive)
REMARK    1  A    between atoms: C_1  and  O_2
REMARK    2  A    between atoms: O_2  and  C_3
REMARK    3  A    between atoms: C_10  and  C_11
REMARK    4  A    between atoms: C_18  and  C_19
REMARK                            x       y       z     vdW  Elec       q    Type
REMARK                         _______ _______ _______ _____ _____    ______ ____
ROOT
ATOM      1  C   UNL     1       2.768   6.787  18.588  0.00  0.00    +0.000 C 
ATOM      2  O   UNL     1       3.123   7.067  17.438  0.00  0.00    +0.000 OA
ATOM      3  N   UNL     1       2.059   7.721  19.351  0.00  0.00    +0.000 N 
ATOM      4  C   UNL     1       1.571   7.420  20.715  0.00  0.00    +0.000 C 
ATOM      5  C   UNL     1       0.800   8.469  21.537  0.00  0.00    +0.000 C 
ATOM      6  C   UNL     1       0.643   9.723  20.802  0.00  0.00    +0.000 A 
ATOM      7  N   UNL     1       0.001  10.850  21.213  0.00  0.00    +0.000 N 
ATOM      8  C   UNL     1       0.051  11.759  20.178  0.00  0.00    +0.000 A 
ATOM      9  N   UNL     1       0.718  11.248  19.156  0.00  0.00    +0.000 NA
ATOM     10  C   UNL     1       1.104   9.988  19.543  0.00  0.00    +0.000 A 
ATOM     11  C   UNL     1       1.896   9.052  18.717  0.00  0.00    +0.000 C 
ATOM     12  H   UNL     1      -0.477  10.988  22.092  0.00  0.00    +0.000 HD
ENDROOT
BRANCH   1  20
ATOM     13  C   UNL     1       1.665   3.452  19.316  0.00  0.00    +0.000 C 
ATOM     14  O   UNL     1       1.231   2.399  18.876  0.00  0.00    +0.000 OA
ATOM     15  N   UNL     1       2.572   4.257  18.651  0.00  0.00    +0.000 N 
ATOM     16  C   UNL     1       3.027   3.884  17.314  0.00  0.00    +0.000 C 
ATOM     17  C   UNL     1       4.545   3.732  17.270  0.00  0.00    +0.000 C 
ATOM     18  C   UNL     1       5.262   4.938  17.875  0.00  0.00    +0.000 C 
ATOM     19  C   UNL     1       4.719   5.257  19.269  0.00  0.00    +0.000 C 
ATOM     20  C   UNL     1       3.192   5.443  19.262  0.00  0.00    +0.000 C 
BRANCH  13  22
ATOM     21  C   UNL     1       1.559   3.054  21.635  0.00  0.00    +0.000 C 
ATOM     22  O   UNL     1       1.333   3.946  20.543  0.00  0.00    +0.000 OA
ENDBRANCH  13  22
ENDBRANCH   1  20
BRANCH   8  23
ATOM     23  C   UNL     1      -0.609  13.058  20.228  0.00  0.00    +0.000 A 
ATOM     24  C   UNL     1      -0.047  14.209  19.665  0.00  0.00    +0.000 A 
ATOM     25  C   UNL     1      -0.704  15.431  19.786  0.00  0.00    +0.000 A 
ATOM     26  C   UNL     1      -1.907  15.465  20.470  0.00  0.00    +0.000 A 
ATOM     27  N   UNL     1      -2.490  14.378  21.016  0.00  0.00    +0.000 NA
ATOM     28  C   UNL     1      -1.833  13.200  20.873  0.00  0.00    +0.000 A 
ENDBRANCH   8  23
TORSDOF 3
ENDMDL
MODEL 8
REMARK VINA RESULT:      -7.3      3.415      9.348
REMARK  Name = 
REMARK  4 active torsions:
REMARK  status: ('A' for Active; 'I' for Inactive)
REMARK    1  A    between atoms: C_1  and  O_2
REMARK    2  A    between atoms: O_2  and  C_3
REMARK    3  A    between atoms: C_10  and  C_11
REMARK    4  A    between atoms: C_18  and  C_19
REMARK                            x       y       z     vdW  Elec       q    Type
REMARK                         _______ _______ _______ _____ _____    ______ ____
ROOT
ATOM      1  C   UNL     1      -0.704  11.067  21.663  0.00  0.00    +0.000 C 
ATOM      2  O   UNL     1      -0.723  10.665  22.831  0.00  0.00    +0.000 OA
ATOM      3  N   UNL     1      -0.011  10.347  20.684  0.00  0.00    +0.000 N 
ATOM      4  C   UNL     1       0.004  10.759  19.262  0.00  0.00    +0.000 C 
ATOM      5  C   UNL     1       0.782   9.953  18.206  0.00  0.00    +0.000 C 
ATOM      6  C   UNL     1       1.457   8.799  18.796  0.00  0.00    +0.000 A 
ATOM      7  N   UNL     1       2.212   7.864  18.157  0.00  0.00    +0.000 N 
ATOM      8  C   UNL     1       2.599   6.929  19.093  0.00  0.00    +0.000 A 
ATOM      9  N   UNL     1       2.134   7.262  20.286  0.00  0.00    +0.000 NA
ATOM     10  C   UNL     1       1.437   8.433  20.112  0.00  0.00    +0.000 A 
ATOM     11  C   UNL     1       0.760   9.185  21.190  0.00  0.00    +0.000 C 
ATOM     12  H   UNL     1       2.412   7.820  17.168  0.00  0.00    +0.000 HD
ENDROOT
BRANCH   1  20
ATOM     13  C   UNL     1      -3.699  12.584  20.400  0.00  0.00    +0.000 C 
ATOM     14  O   UNL     1      -4.902  12.741  20.535  0.00  0.00    +0.000 OA
ATOM     15  N   UNL     1      -2.807  12.472  21.452  0.00  0.00    +0.000 N 
ATOM     16  C   UNL     1      -3.303  12.486  22.826  0.00  0.00    +0.000 C 
ATOM     17  C   UNL     1      -2.667  13.618  23.629  0.00  0.00    +0.000 C 
ATOM     18  C   UNL     1      -1.145  13.632  23.499  0.00  0.00    +0.000 C 
ATOM     19  C   UNL     1      -0.720  13.611  22.030  0.00  0.00    +0.000 C 
ATOM     20  C   UNL     1      -1.348  12.434  21.267  0.00  0.00    +0.000 C 
BRANCH  13  22
ATOM     21  C   UNL     1      -3.548  11.519  18.305  0.00  0.00    +0.000 C 
ATOM     22  O   UNL     1      -3.079  12.541  19.186  0.00  0.00    +0.000 OA
ENDBRANCH  13  22
ENDBRANCH   1  20
BRANCH   8  23
ATOM     23  C   UNL     1       3.354   5.730  18.754  0.00  0.00    +0.000 A 
ATOM     24  C   UNL     1       2.926   4.821  17.781  0.00  0.00    +0.000 A 
ATOM     25  C   UNL     1       3.668   3.668  17.535  0.00  0.00    +0.000 A 
ATOM     26  C   UNL     1       4.821   3.458  18.273  0.00  0.00    +0.000 A 
ATOM     27  N   UNL     1       5.276   4.315  19.210  0.00  0.00    +0.000 NA
ATOM     28  C   UNL     1       4.538   5.434  19.421  0.00  0.00    +0.000 A 
ENDBRANCH   8  23
TORSDOF 3
ENDMDL
MODEL 9
REMARK VINA RESULT:      -7.2      1.741      3.135
REMARK  Name = 
REMARK  4 active torsions:
REMARK  status: ('A' for Active; 'I' for Inactive)
REMARK    1  A    between atoms: C_1  and  O_2
REMARK    2  A    between atoms: O_2  and  C_3
REMARK    3  A    between atoms: C_10  and  C_11
REMARK    4  A    between atoms: C_18  and  C_19
REMARK                            x       y       z     vdW  Elec       q    Type
REMARK                         _______ _______ _______ _____ _____    ______ ____
ROOT
ATOM      1  C   UNL     1       3.372   6.649  18.173  0.00  0.00    +0.000 C 
ATOM      2  O   UNL     1       3.702   7.128  17.083  0.00  0.00    +0.000 OA
ATOM      3  N   UNL     1       2.512   7.357  19.019  0.00  0.00    +0.000 N 
ATOM      4  C   UNL     1       2.048   6.810  20.314  0.00  0.00    +0.000 C 
ATOM      5  C   UNL     1       1.108   7.615  21.230  0.00  0.00    +0.000 C 
ATOM      6  C   UNL     1       0.774   8.915  20.653  0.00  0.00    +0.000 A 
ATOM      7  N   UNL     1      -0.042   9.869  21.178  0.00  0.00    +0.000 N 
ATOM      8  C   UNL     1      -0.113  10.903  20.269  0.00  0.00    +0.000 A 
ATOM      9  N   UNL     1       0.645  10.636  19.218  0.00  0.00    +0.000 NA
ATOM     10  C   UNL     1       1.213   9.409  19.458  0.00  0.00    +0.000 A 
ATOM     11  C   UNL     1       2.158   8.720  18.552  0.00  0.00    +0.000 C 
ATOM     12  H   UNL     1      -0.554   9.817  22.047  0.00  0.00    +0.000 HD
ENDROOT
BRANCH   1  20
ATOM     13  C   UNL     1       2.898   3.094  18.224  0.00  0.00    +0.000 C 
ATOM     14  O   UNL     1       2.738   2.073  17.573  0.00  0.00    +0.000 OA
ATOM     15  N   UNL     1       3.689   4.155  17.823  0.00  0.00    +0.000 N 
ATOM     16  C   UNL     1       4.352   4.113  16.522  0.00  0.00    +0.000 C 
ATOM     17  C   UNL     1       5.865   4.251  16.670  0.00  0.00    +0.000 C 
ATOM     18  C   UNL     1       6.252   5.442  17.546  0.00  0.00    +0.000 C 
ATOM     19  C   UNL     1       5.508   5.405  18.881  0.00  0.00    +0.000 C 
ATOM     20  C   UNL     1       3.985   5.308  18.688  0.00  0.00    +0.000 C 
BRANCH  13  22
ATOM     21  C   UNL     1       0.945   3.013  19.538  0.00  0.00    +0.000 C 
ATOM     22  O   UNL     1       2.342   3.295  19.453  0.00  0.00    +0.000 OA
ENDBRANCH  13  22
ENDBRANCH   1  20
BRANCH   8  23
ATOM     23  C   UNL     1      -0.966  12.070  20.456  0.00  0.00    +0.000 A 
ATOM     24  C   UNL     1      -2.312  12.086  20.075  0.00  0.00    +0.000 A 
ATOM     25  C   UNL     1      -3.065  13.248  20.237  0.00  0.00    +0.000 A 
ATOM     26  C   UNL     1      -2.445  14.362  20.777  0.00  0.00    +0.000 A 
ATOM     27  N   UNL     1      -1.155  14.384  21.169  0.00  0.00    +0.000 NA
ATOM     28  C   UNL     1      -0.450  13.236  21.009  0.00  0.00    +0.000 A 
ENDBRANCH   8  23
TORSDOF 3
ENDMDL
