MODEL 1
REMARK VINA RESULT:      -8.6      0.000      0.000
REMARK  Name = 
REMARK  10 active torsions:
REMARK  status: ('A' for Active; 'I' for Inactive)
REMARK    1  A    between atoms: C_1  and  C_2
REMARK    2  A    between atoms: C_2  and  C_3
REMARK    3  A    between atoms: C_3  and  O_4
REMARK    4  A    between atoms: O_4  and  C_5
REMARK    5  A    between atoms: C_5  and  C_7
REMARK    6  A    between atoms: C_11  and  C_12
REMARK    7  A    between atoms: C_14  and  C_15
REMARK    8  A    between atoms: N_17  and  C_18
REMARK    9  A    between atoms: C_27  and  C_28
REMARK   10  A    between atoms: C_28  and  N_29
REMARK                            x       y       z     vdW  Elec       q    Type
REMARK                         _______ _______ _______ _____ _____    ______ ____
ROOT
ATOM      1  C   UNL     1       3.872   5.219  19.007  0.00  0.00    +0.000 A 
ATOM      2  C   UNL     1       3.216   6.436  19.310  0.00  0.00    +0.000 A 
ATOM      3  C   UNL     1       2.039   6.500  20.070  0.00  0.00    +0.000 A 
ATOM      4  C   UNL     1       1.399   5.333  20.449  0.00  0.00    +0.000 A 
ATOM      5  C   UNL     1       1.975   4.110  20.099  0.00  0.00    +0.000 A 
ATOM      6  C   UNL     1       3.229   4.025  19.437  0.00  0.00    +0.000 A 
ENDROOT
BRANCH   1  11
ATOM      7  C   UNL     1       6.726   5.034  16.449  0.00  0.00    +0.000 A 
ATOM      8  C   UNL     1       7.843   5.025  17.288  0.00  0.00    +0.000 A 
ATOM      9  C   UNL     1       7.681   5.208  18.653  0.00  0.00    +0.000 A 
ATOM     10  C   UNL     1       6.394   5.304  19.187  0.00  0.00    +0.000 A 
ATOM     11  C   UNL     1       5.234   5.293  18.378  0.00  0.00    +0.000 A 
ATOM     12  C   UNL     1       5.450   5.266  16.989  0.00  0.00    +0.000 A 
BRANCH   7  13
ATOM     13  C   UNL     1       6.942   4.721  15.010  0.00  0.00    +0.000 C 
ATOM     14  O   UNL     1       7.728   5.341  14.309  0.00  0.00    +0.000 OA
BRANCH  13  15
ATOM     15  O   UNL     1       6.159   3.689  14.609  0.00  0.00    +0.000 OA
BRANCH  15  16
ATOM     16  C   UNL     1       5.232   3.992  13.556  0.00  0.00    +0.000 C 
BRANCH  16  18
ATOM     17  C   UNL     1       4.373   3.163  11.361  0.00  0.00    +0.000 C 
ATOM     18  C   UNL     1       5.590   3.258  12.270  0.00  0.00    +0.000 C 
ENDBRANCH  16  18
ENDBRANCH  15  16
ENDBRANCH  13  15
ENDBRANCH   7  13
ENDBRANCH   1  11
BRANCH   3  19
ATOM     19  C   UNL     1       1.530   7.851  20.427  0.00  0.00    +0.000 C 
ATOM     20  O   UNL     1       1.317   8.076  21.612  0.00  0.00    +0.000 OA
ATOM     21  N   UNL     1       1.263   8.705  19.371  0.00  0.00    +0.000 N 
ATOM     22  H   UNL     1       1.316   8.342  18.426  0.00  0.00    +0.000 HD
BRANCH  21  23
ATOM     23  C   UNL     1       0.709  10.010  19.498  0.00  0.00    +0.000 A 
ATOM     24  C   UNL     1      -0.411  10.292  20.277  0.00  0.00    +0.000 A 
ATOM     25  C   UNL     1      -0.895  11.591  20.317  0.00  0.00    +0.000 A 
ATOM     26  N   UNL     1      -0.338  12.622  19.645  0.00  0.00    +0.000 NA
ATOM     27  C   UNL     1       0.757  12.333  18.905  0.00  0.00    +0.000 A 
ATOM     28  C   UNL     1       1.307  11.063  18.808  0.00  0.00    +0.000 A 
ATOM     29  F   UNL     1       2.389  10.856  18.042  0.00  0.00    +0.000 F 
ENDBRANCH  21  23
ENDBRANCH   3  19
BRANCH   6  30
ATOM     30  C   UNL     1       3.787   2.631  19.183  0.00  0.00    +0.000 C 
BRANCH  30  31
ATOM     31  N   UNL     1       4.853   2.237  20.106  0.00  0.00    +0.000 NA
ATOM     32  H   UNL     1       4.431   1.689  20.857  0.00  0.00    +0.000 HD
ATOM     33  H   UNL     1       5.220   3.078  20.549  0.00  0.00    +0.000 HD
ENDBRANCH  30  31
ENDBRANCH   6  30
TORSDOF 9
ENDMDL
MODEL 2
REMARK VINA RESULT:      -8.1      1.135      1.361
REMARK  Name = 
REMARK  10 active torsions:
REMARK  status: ('A' for Active; 'I' for Inactive)
REMARK    1  A    between atoms: C_1  and  C_2
REMARK    2  A    between atoms: C_2  and  C_3
REMARK    3  A    between atoms: C_3  and  O_4
REMARK    4  A    between atoms: O_4  and  C_5
REMARK    5  A    between atoms: C_5  and  C_7
REMARK    6  A    between atoms: C_11  and  C_12
REMARK    7  A    between atoms: C_14  and  C_15
REMARK    8  A    between atoms: N_17  and  C_18
REMARK    9  A    between atoms: C_27  and  C_28
REMARK   10  A    between atoms: C_28  and  N_29
REMARK                            x       y       z     vdW  Elec       q    Type
REMARK                         _______ _______ _______ _____ _____    ______ ____
ROOT
ATOM      1  C   UNL     1       3.781   5.670  19.139  0.00  0.00    +0.000 A 
ATOM      2  C   UNL     1       3.133   6.927  19.206  0.00  0.00    +0.000 A 
ATOM      3  C   UNL     1       1.976   7.149  19.967  0.00  0.00    +0.000 A 
ATOM      4  C   UNL     1       1.346   6.087  20.591  0.00  0.00    +0.000 A 
ATOM      5  C   UNL     1       1.912   4.815  20.481  0.00  0.00    +0.000 A 
ATOM      6  C   UNL     1       3.148   4.591  19.818  0.00  0.00    +0.000 A 
ENDROOT
BRANCH   1  11
ATOM      7  C   UNL     1       6.525   5.314  16.481  0.00  0.00    +0.000 A 
ATOM      8  C   UNL     1       7.647   5.074  17.279  0.00  0.00    +0.000 A 
ATOM      9  C   UNL     1       7.540   5.156  18.659  0.00  0.00    +0.000 A 
ATOM     10  C   UNL     1       6.291   5.384  19.242  0.00  0.00    +0.000 A 
ATOM     11  C   UNL     1       5.126   5.607  18.474  0.00  0.00    +0.000 A 
ATOM     12  C   UNL     1       5.306   5.674  17.081  0.00  0.00    +0.000 A 
BRANCH   7  13
ATOM     13  C   UNL     1       6.664   5.103  15.015  0.00  0.00    +0.000 C 
ATOM     14  O   UNL     1       7.706   5.313  14.412  0.00  0.00    +0.000 OA
BRANCH  13  15
ATOM     15  O   UNL     1       5.502   4.667  14.468  0.00  0.00    +0.000 OA
BRANCH  15  16
ATOM     16  C   UNL     1       5.601   3.467  13.687  0.00  0.00    +0.000 C 
BRANCH  16  18
ATOM     17  C   UNL     1       4.397   3.162  11.518  0.00  0.00    +0.000 C 
ATOM     18  C   UNL     1       5.616   3.775  12.194  0.00  0.00    +0.000 C 
ENDBRANCH  16  18
ENDBRANCH  15  16
ENDBRANCH  13  15
ENDBRANCH   7  13
ENDBRANCH   1  11
BRANCH   3  19
ATOM     19  C   UNL     1       1.477   8.547  20.055  0.00  0.00    +0.000 C 
ATOM     20  O   UNL     1       1.113   8.945  21.155  0.00  0.00    +0.000 OA
ATOM     21  N   UNL     1       1.390   9.245  18.863  0.00  0.00    +0.000 N 
ATOM     22  H   UNL     1       1.557   8.748  17.996  0.00  0.00    +0.000 HD
BRANCH  21  23
ATOM     23  C   UNL     1       0.875  10.565  18.727  0.00  0.00    +0.000 A 
ATOM     24  C   UNL     1       1.680  11.702  18.707  0.00  0.00    +0.000 A 
ATOM     25  C   UNL     1       1.083  12.948  18.597  0.00  0.00    +0.000 A 
ATOM     26  N   UNL     1      -0.251  13.137  18.497  0.00  0.00    +0.000 NA
ATOM     27  C   UNL     1      -1.016  12.022  18.502  0.00  0.00    +0.000 A 
ATOM     28  C   UNL     1      -0.504  10.738  18.609  0.00  0.00    +0.000 A 
ATOM     29  F   UNL     1      -1.331   9.682  18.620  0.00  0.00    +0.000 F 
ENDBRANCH  21  23
ENDBRANCH   3  19
BRANCH   6  30
ATOM     30  C   UNL     1       3.700   3.171  19.838  0.00  0.00    +0.000 C 
BRANCH  30  31
ATOM     31  N   UNL     1       3.107   2.285  18.835  0.00  0.00    +0.000 NA
ATOM     32  H   UNL     1       2.301   2.764  18.431  0.00  0.00    +0.000 HD
ATOM     33  H   UNL     1       2.734   1.467  19.311  0.00  0.00    +0.000 HD
ENDBRANCH  30  31
ENDBRANCH   6  30
TORSDOF 9
ENDMDL
MODEL 3
REMARK VINA RESULT:      -8.0      2.350      3.937
REMARK  Name = 
REMARK  10 active torsions:
REMARK  status: ('A' for Active; 'I' for Inactive)
REMARK    1  A    between atoms: C_1  and  C_2
REMARK    2  A    between atoms: C_2  and  C_3
REMARK    3  A    between atoms: C_3  and  O_4
REMARK    4  A    between atoms: O_4  and  C_5
REMARK    5  A    between atoms: C_5  and  C_7
REMARK    6  A    between atoms: C_11  and  C_12
REMARK    7  A    between atoms: C_14  and  C_15
REMARK    8  A    between atoms: N_17  and  C_18
REMARK    9  A    between atoms: C_27  and  C_28
REMARK   10  A    between atoms: C_28  and  N_29
REMARK                            x       y       z     vdW  Elec       q    Type
REMARK                         _______ _______ _______ _____ _____    ______ ____
ROOT
ATOM      1  C   UNL     1       2.626   6.378  19.006  0.00  0.00    +0.000 A 
ATOM      2  C   UNL     1       2.383   7.693  18.542  0.00  0.00    +0.000 A 
ATOM      3  C   UNL     1       1.687   8.652  19.292  0.00  0.00    +0.000 A 
ATOM      4  C   UNL     1       1.092   8.292  20.489  0.00  0.00    +0.000 A 
ATOM      5  C   UNL     1       1.242   6.980  20.942  0.00  0.00    +0.000 A 
ATOM      6  C   UNL     1       2.045   6.029  20.258  0.00  0.00    +0.000 A 
ENDROOT
BRANCH   1  11
ATOM      7  C   UNL     1       5.657   5.193  16.975  0.00  0.00    +0.000 A 
ATOM      8  C   UNL     1       5.148   4.037  16.377  0.00  0.00    +0.000 A 
ATOM      9  C   UNL     1       3.888   3.577  16.729  0.00  0.00    +0.000 A 
ATOM     10  C   UNL     1       3.101   4.326  17.606  0.00  0.00    +0.000 A 
ATOM     11  C   UNL     1       3.565   5.515  18.214  0.00  0.00    +0.000 A 
ATOM     12  C   UNL     1       4.903   5.861  17.955  0.00  0.00    +0.000 A 
BRANCH   7  13
ATOM     13  C   UNL     1       6.963   5.707  16.480  0.00  0.00    +0.000 C 
ATOM     14  O   UNL     1       7.341   5.556  15.329  0.00  0.00    +0.000 OA
BRANCH  13  15
ATOM     15  O   UNL     1       7.649   6.337  17.468  0.00  0.00    +0.000 OA
BRANCH  15  16
ATOM     16  C   UNL     1       7.625   7.771  17.414  0.00  0.00    +0.000 C 
BRANCH  16  18
ATOM     17  C   UNL     1       8.714   9.856  18.256  0.00  0.00    +0.000 C 
ATOM     18  C   UNL     1       8.455   8.383  18.537  0.00  0.00    +0.000 C 
ENDBRANCH  16  18
ENDBRANCH  15  16
ENDBRANCH  13  15
ENDBRANCH   7  13
ENDBRANCH   1  11
BRANCH   3  19
ATOM     19  C   UNL     1       1.620  10.032  18.742  0.00  0.00    +0.000 C 
ATOM     20  O   UNL     1       2.039  10.204  17.604  0.00  0.00    +0.000 OA
ATOM     21  N   UNL     1       1.168  11.016  19.604  0.00  0.00    +0.000 N 
ATOM     22  H   UNL     1       1.016  10.777  20.577  0.00  0.00    +0.000 HD
BRANCH  21  23
ATOM     23  C   UNL     1       1.096  12.402  19.293  0.00  0.00    +0.000 A 
ATOM     24  C   UNL     1       2.201  13.251  19.321  0.00  0.00    +0.000 A 
ATOM     25  C   UNL     1       2.027  14.594  19.028  0.00  0.00    +0.000 A 
ATOM     26  N   UNL     1       0.837  15.145  18.703  0.00  0.00    +0.000 NA
ATOM     27  C   UNL     1      -0.222  14.305  18.667  0.00  0.00    +0.000 A 
ATOM     28  C   UNL     1      -0.139  12.949  18.945  0.00  0.00    +0.000 A 
ATOM     29  F   UNL     1      -1.239  12.184  18.899  0.00  0.00    +0.000 F 
ENDBRANCH  21  23
ENDBRANCH   3  19
BRANCH   6  30
ATOM     30  C   UNL     1       2.194   4.655  20.899  0.00  0.00    +0.000 C 
BRANCH  30  31
ATOM     31  N   UNL     1       1.016   3.798  20.757  0.00  0.00    +0.000 NA
ATOM     32  H   UNL     1       0.316   4.114  21.429  0.00  0.00    +0.000 HD
ATOM     33  H   UNL     1       1.270   2.855  21.044  0.00  0.00    +0.000 HD
ENDBRANCH  30  31
ENDBRANCH   6  30
TORSDOF 9
ENDMDL
MODEL 4
REMARK VINA RESULT:      -8.0      1.706      1.951
REMARK  Name = 
REMARK  10 active torsions:
REMARK  status: ('A' for Active; 'I' for Inactive)
REMARK    1  A    between atoms: C_1  and  C_2
REMARK    2  A    between atoms: C_2  and  C_3
REMARK    3  A    between atoms: C_3  and  O_4
REMARK    4  A    between atoms: O_4  and  C_5
REMARK    5  A    between atoms: C_5  and  C_7
REMARK    6  A    between atoms: C_11  and  C_12
REMARK    7  A    between atoms: C_14  and  C_15
REMARK    8  A    between atoms: N_17  and  C_18
REMARK    9  A    between atoms: C_27  and  C_28
REMARK   10  A    between atoms: C_28  and  N_29
REMARK                            x       y       z     vdW  Elec       q    Type
REMARK                         _______ _______ _______ _____ _____    ______ ____
ROOT
ATOM      1  C   UNL     1       3.927   5.449  19.077  0.00  0.00    +0.000 A 
ATOM      2  C   UNL     1       3.212   6.670  19.139  0.00  0.00    +0.000 A 
ATOM      3  C   UNL     1       2.070   6.845  19.935  0.00  0.00    +0.000 A 
ATOM      4  C   UNL     1       1.524   5.765  20.605  0.00  0.00    +0.000 A 
ATOM      5  C   UNL     1       2.157   4.525  20.504  0.00  0.00    +0.000 A 
ATOM      6  C   UNL     1       3.381   4.354  19.803  0.00  0.00    +0.000 A 
ENDROOT
BRANCH   1  11
ATOM      7  C   UNL     1       6.588   5.274  16.318  0.00  0.00    +0.000 A 
ATOM      8  C   UNL     1       7.740   5.022  17.068  0.00  0.00    +0.000 A 
ATOM      9  C   UNL     1       7.679   5.039  18.453  0.00  0.00    +0.000 A 
ATOM     10  C   UNL     1       6.445   5.214  19.086  0.00  0.00    +0.000 A 
ATOM     11  C   UNL     1       5.251   5.446  18.367  0.00  0.00    +0.000 A 
ATOM     12  C   UNL     1       5.383   5.580  16.974  0.00  0.00    +0.000 A 
BRANCH   7  13
ATOM     13  C   UNL     1       6.683   5.132  14.840  0.00  0.00    +0.000 C 
ATOM     14  O   UNL     1       7.709   5.361  14.218  0.00  0.00    +0.000 OA
BRANCH  13  15
ATOM     15  O   UNL     1       5.500   4.734  14.308  0.00  0.00    +0.000 OA
BRANCH  15  16
ATOM     16  C   UNL     1       5.503   3.431  13.708  0.00  0.00    +0.000 C 
BRANCH  16  18
ATOM     17  C   UNL     1       4.409   3.178  11.475  0.00  0.00    +0.000 C 
ATOM     18  C   UNL     1       5.705   3.513  12.199  0.00  0.00    +0.000 C 
ENDBRANCH  16  18
ENDBRANCH  15  16
ENDBRANCH  13  15
ENDBRANCH   7  13
ENDBRANCH   1  11
BRANCH   3  19
ATOM     19  C   UNL     1       1.496   8.215  20.009  0.00  0.00    +0.000 C 
ATOM     20  O   UNL     1       1.497   8.882  18.982  0.00  0.00    +0.000 OA
ATOM     21  N   UNL     1       1.090   8.644  21.261  0.00  0.00    +0.000 N 
ATOM     22  H   UNL     1       1.302   8.064  22.066  0.00  0.00    +0.000 HD
BRANCH  21  23
ATOM     23  C   UNL     1       0.581   9.940  21.554  0.00  0.00    +0.000 A 
ATOM     24  C   UNL     1       1.032  11.099  20.926  0.00  0.00    +0.000 A 
ATOM     25  C   UNL     1       0.494  12.321  21.298  0.00  0.00    +0.000 A 
ATOM     26  N   UNL     1      -0.463  12.465  22.241  0.00  0.00    +0.000 NA
ATOM     27  C   UNL     1      -0.900  11.329  22.830  0.00  0.00    +0.000 A 
ATOM     28  C   UNL     1      -0.418  10.066  22.519  0.00  0.00    +0.000 A 
ATOM     29  F   UNL     1      -0.895   8.988  23.158  0.00  0.00    +0.000 F 
ENDBRANCH  21  23
ENDBRANCH   3  19
BRANCH   6  30
ATOM     30  C   UNL     1       4.012   2.969  19.835  0.00  0.00    +0.000 C 
BRANCH  30  31
ATOM     31  N   UNL     1       3.880   2.221  18.584  0.00  0.00    +0.000 NA
ATOM     32  H   UNL     1       4.659   1.564  18.527  0.00  0.00    +0.000 HD
ATOM     33  H   UNL     1       4.008   2.870  17.809  0.00  0.00    +0.000 HD
ENDBRANCH  30  31
ENDBRANCH   6  30
TORSDOF 9
ENDMDL
MODEL 5
REMARK VINA RESULT:      -8.0      1.353      1.538
REMARK  Name = 
REMARK  10 active torsions:
REMARK  status: ('A' for Active; 'I' for Inactive)
REMARK    1  A    between atoms: C_1  and  C_2
REMARK    2  A    between atoms: C_2  and  C_3
REMARK    3  A    between atoms: C_3  and  O_4
REMARK    4  A    between atoms: O_4  and  C_5
REMARK    5  A    between atoms: C_5  and  C_7
REMARK    6  A    between atoms: C_11  and  C_12
REMARK    7  A    between atoms: C_14  and  C_15
REMARK    8  A    between atoms: N_17  and  C_18
REMARK    9  A    between atoms: C_27  and  C_28
REMARK   10  A    between atoms: C_28  and  N_29
REMARK                            x       y       z     vdW  Elec       q    Type
REMARK                         _______ _______ _______ _____ _____    ______ ____
ROOT
ATOM      1  C   UNL     1       3.897   5.310  19.154  0.00  0.00    +0.000 A 
ATOM      2  C   UNL     1       3.212   6.539  19.309  0.00  0.00    +0.000 A 
ATOM      3  C   UNL     1       2.029   6.666  20.052  0.00  0.00    +0.000 A 
ATOM      4  C   UNL     1       1.414   5.538  20.566  0.00  0.00    +0.000 A 
ATOM      5  C   UNL     1       2.019   4.296  20.366  0.00  0.00    +0.000 A 
ATOM      6  C   UNL     1       3.279   4.161  19.722  0.00  0.00    +0.000 A 
ENDROOT
BRANCH   1  11
ATOM      7  C   UNL     1       6.740   5.053  16.591  0.00  0.00    +0.000 A 
ATOM      8  C   UNL     1       7.857   4.987  17.428  0.00  0.00    +0.000 A 
ATOM      9  C   UNL     1       7.702   5.155  18.796  0.00  0.00    +0.000 A 
ATOM     10  C   UNL     1       6.420   5.294  19.333  0.00  0.00    +0.000 A 
ATOM     11  C   UNL     1       5.261   5.340  18.525  0.00  0.00    +0.000 A 
ATOM     12  C   UNL     1       5.474   5.326  17.136  0.00  0.00    +0.000 A 
BRANCH   7  13
ATOM     13  C   UNL     1       6.943   4.754  15.147  0.00  0.00    +0.000 C 
ATOM     14  O   UNL     1       7.727   5.375  14.446  0.00  0.00    +0.000 OA
BRANCH  13  15
ATOM     15  O   UNL     1       6.150   3.730  14.741  0.00  0.00    +0.000 OA
BRANCH  15  16
ATOM     16  C   UNL     1       5.265   4.033  13.653  0.00  0.00    +0.000 C 
BRANCH  16  18
ATOM     17  C   UNL     1       4.484   3.122  11.461  0.00  0.00    +0.000 C 
ATOM     18  C   UNL     1       5.684   3.311  12.377  0.00  0.00    +0.000 C 
ENDBRANCH  16  18
ENDBRANCH  15  16
ENDBRANCH  13  15
ENDBRANCH   7  13
ENDBRANCH   1  11
BRANCH   3  19
ATOM     19  C   UNL     1       1.488   8.038  20.244  0.00  0.00    +0.000 C 
ATOM     20  O   UNL     1       2.068   8.955  19.676  0.00  0.00    +0.000 OA
ATOM     21  N   UNL     1       0.424   8.161  21.121  0.00  0.00    +0.000 N 
ATOM     22  H   UNL     1       0.145   7.352  21.663  0.00  0.00    +0.000 HD
BRANCH  21  23
ATOM     23  C   UNL     1      -0.188   9.391  21.492  0.00  0.00    +0.000 A 
ATOM     24  C   UNL     1      -0.294   9.826  22.811  0.00  0.00    +0.000 A 
ATOM     25  C   UNL     1      -0.932  11.027  23.076  0.00  0.00    +0.000 A 
ATOM     26  N   UNL     1      -1.461  11.824  22.122  0.00  0.00    +0.000 NA
ATOM     27  C   UNL     1      -1.337  11.395  20.846  0.00  0.00    +0.000 A 
ATOM     28  C   UNL     1      -0.714  10.207  20.490  0.00  0.00    +0.000 A 
ATOM     29  F   UNL     1      -0.642   9.844  19.201  0.00  0.00    +0.000 F 
ENDBRANCH  21  23
ENDBRANCH   3  19
BRANCH   6  30
ATOM     30  C   UNL     1       3.870   2.760  19.638  0.00  0.00    +0.000 C 
BRANCH  30  31
ATOM     31  N   UNL     1       3.184   1.877  18.694  0.00  0.00    +0.000 NA
ATOM     32  H   UNL     1       3.153   0.943  19.104  0.00  0.00    +0.000 HD
ATOM     33  H   UNL     1       3.761   1.793  17.858  0.00  0.00    +0.000 HD
ENDBRANCH  30  31
ENDBRANCH   6  30
TORSDOF 9
ENDMDL
MODEL 6
REMARK VINA RESULT:      -8.0      1.534      1.752
REMARK  Name = 
REMARK  10 active torsions:
REMARK  status: ('A' for Active; 'I' for Inactive)
REMARK    1  A    between atoms: C_1  and  C_2
REMARK    2  A    between atoms: C_2  and  C_3
REMARK    3  A    between atoms: C_3  and  O_4
REMARK    4  A    between atoms: O_4  and  C_5
REMARK    5  A    between atoms: C_5  and  C_7
REMARK    6  A    between atoms: C_11  and  C_12
REMARK    7  A    between atoms: C_14  and  C_15
REMARK    8  A    between atoms: N_17  and  C_18
REMARK    9  A    between atoms: C_27  and  C_28
REMARK   10  A    between atoms: C_28  and  N_29
REMARK                            x       y       z     vdW  Elec       q    Type
REMARK                         _______ _______ _______ _____ _____    ______ ____
ROOT
ATOM      1  C   UNL     1       4.005   5.866  18.389  0.00  0.00    +0.000 A 
ATOM      2  C   UNL     1       3.383   7.094  18.058  0.00  0.00    +0.000 A 
ATOM      3  C   UNL     1       2.251   7.581  18.727  0.00  0.00    +0.000 A 
ATOM      4  C   UNL     1       1.618   6.794  19.673  0.00  0.00    +0.000 A 
ATOM      5  C   UNL     1       2.156   5.541  19.970  0.00  0.00    +0.000 A 
ATOM      6  C   UNL     1       3.370   5.082  19.393  0.00  0.00    +0.000 A 
ENDROOT
BRANCH   1  11
ATOM      7  C   UNL     1       6.692   4.968  15.801  0.00  0.00    +0.000 A 
ATOM      8  C   UNL     1       7.744   4.567  16.629  0.00  0.00    +0.000 A 
ATOM      9  C   UNL     1       7.631   4.710  18.004  0.00  0.00    +0.000 A 
ATOM     10  C   UNL     1       6.429   5.164  18.554  0.00  0.00    +0.000 A 
ATOM     11  C   UNL     1       5.331   5.556  17.755  0.00  0.00    +0.000 A 
ATOM     12  C   UNL     1       5.542   5.547  16.365  0.00  0.00    +0.000 A 
BRANCH   7  13
ATOM     13  C   UNL     1       6.817   4.690  14.345  0.00  0.00    +0.000 C 
ATOM     14  O   UNL     1       7.441   5.414  13.584  0.00  0.00    +0.000 OA
BRANCH  13  15
ATOM     15  O   UNL     1       6.153   3.558  14.001  0.00  0.00    +0.000 OA
BRANCH  15  16
ATOM     16  C   UNL     1       5.957   3.363  12.593  0.00  0.00    +0.000 C 
BRANCH  16  18
ATOM     17  C   UNL     1       4.056   2.955  11.023  0.00  0.00    +0.000 C 
ATOM     18  C   UNL     1       4.575   3.832  12.153  0.00  0.00    +0.000 C 
ENDBRANCH  16  18
ENDBRANCH  15  16
ENDBRANCH  13  15
ENDBRANCH   7  13
ENDBRANCH   1  11
BRANCH   3  19
ATOM     19  C   UNL     1       1.781   8.945  18.368  0.00  0.00    +0.000 C 
ATOM     20  O   UNL     1       2.243   9.449  17.351  0.00  0.00    +0.000 OA
ATOM     21  N   UNL     1       0.925   9.557  19.267  0.00  0.00    +0.000 N 
ATOM     22  H   UNL     1       0.754   9.106  20.159  0.00  0.00    +0.000 HD
BRANCH  21  23
ATOM     23  C   UNL     1       0.421  10.881  19.141  0.00  0.00    +0.000 A 
ATOM     24  C   UNL     1       1.134  12.012  19.535  0.00  0.00    +0.000 A 
ATOM     25  C   UNL     1       0.547  13.261  19.397  0.00  0.00    +0.000 A 
ATOM     26  N   UNL     1      -0.689  13.459  18.890  0.00  0.00    +0.000 NA
ATOM     27  C   UNL     1      -1.361  12.353  18.499  0.00  0.00    +0.000 A 
ATOM     28  C   UNL     1      -0.851  11.067  18.600  0.00  0.00    +0.000 A 
ATOM     29  F   UNL     1      -1.586  10.018  18.202  0.00  0.00    +0.000 F 
ENDBRANCH  21  23
ENDBRANCH   3  19
BRANCH   6  30
ATOM     30  C   UNL     1       3.896   3.731  19.861  0.00  0.00    +0.000 C 
BRANCH  30  31
ATOM     31  N   UNL     1       3.348   2.589  19.126  0.00  0.00    +0.000 NA
ATOM     32  H   UNL     1       2.591   2.192  19.684  0.00  0.00    +0.000 HD
ATOM     33  H   UNL     1       4.064   1.867  19.077  0.00  0.00    +0.000 HD
ENDBRANCH  30  31
ENDBRANCH   6  30
TORSDOF 9
ENDMDL
MODEL 7
REMARK VINA RESULT:      -7.9      2.380      3.999
REMARK  Name = 
REMARK  10 active torsions:
REMARK  status: ('A' for Active; 'I' for Inactive)
REMARK    1  A    between atoms: C_1  and  C_2
REMARK    2  A    between atoms: C_2  and  C_3
REMARK    3  A    between atoms: C_3  and  O_4
REMARK    4  A    between atoms: O_4  and  C_5
REMARK    5  A    between atoms: C_5  and  C_7
REMARK    6  A    between atoms: C_11  and  C_12
REMARK    7  A    between atoms: C_14  and  C_15
REMARK    8  A    between atoms: N_17  and  C_18
REMARK    9  A    between atoms: C_27  and  C_28
REMARK   10  A    between atoms: C_28  and  N_29
REMARK                            x       y       z     vdW  Elec       q    Type
REMARK                         _______ _______ _______ _____ _____    ______ ____
ROOT
ATOM      1  C   UNL     1       2.526   6.547  19.153  0.00  0.00    +0.000 A 
ATOM      2  C   UNL     1       2.278   7.875  18.729  0.00  0.00    +0.000 A 
ATOM      3  C   UNL     1       1.549   8.797  19.495  0.00  0.00    +0.000 A 
ATOM      4  C   UNL     1       0.928   8.386  20.661  0.00  0.00    +0.000 A 
ATOM      5  C   UNL     1       1.083   7.061  21.071  0.00  0.00    +0.000 A 
ATOM      6  C   UNL     1       1.917   6.145  20.375  0.00  0.00    +0.000 A 
ENDROOT
BRANCH   1  11
ATOM      7  C   UNL     1       5.649   5.456  17.211  0.00  0.00    +0.000 A 
ATOM      8  C   UNL     1       5.162   4.349  16.511  0.00  0.00    +0.000 A 
ATOM      9  C   UNL     1       3.880   3.884  16.765  0.00  0.00    +0.000 A 
ATOM     10  C   UNL     1       3.054   4.585  17.647  0.00  0.00    +0.000 A 
ATOM     11  C   UNL     1       3.498   5.725  18.356  0.00  0.00    +0.000 A 
ATOM     12  C   UNL     1       4.851   6.068  18.192  0.00  0.00    +0.000 A 
BRANCH   7  13
ATOM     13  C   UNL     1       6.986   5.983  16.822  0.00  0.00    +0.000 C 
ATOM     14  O   UNL     1       7.496   5.756  15.735  0.00  0.00    +0.000 OA
BRANCH  13  15
ATOM     15  O   UNL     1       7.534   6.718  17.822  0.00  0.00    +0.000 OA
BRANCH  15  16
ATOM     16  C   UNL     1       7.784   8.096  17.506  0.00  0.00    +0.000 C 
BRANCH  16  18
ATOM     17  C   UNL     1       8.815  10.244  18.260  0.00  0.00    +0.000 C 
ATOM     18  C   UNL     1       8.637   8.766  18.577  0.00  0.00    +0.000 C 
ENDBRANCH  16  18
ENDBRANCH  15  16
ENDBRANCH  13  15
ENDBRANCH   7  13
ENDBRANCH   1  11
BRANCH   3  19
ATOM     19  C   UNL     1       1.479  10.195  18.993  0.00  0.00    +0.000 C 
ATOM     20  O   UNL     1       2.022  10.435  17.921  0.00  0.00    +0.000 OA
ATOM     21  N   UNL     1       0.877  11.119  19.829  0.00  0.00    +0.000 N 
ATOM     22  H   UNL     1       0.622  10.831  20.768  0.00  0.00    +0.000 HD
BRANCH  21  23
ATOM     23  C   UNL     1       0.773  12.513  19.564  0.00  0.00    +0.000 A 
ATOM     24  C   UNL     1      -0.212  13.065  18.748  0.00  0.00    +0.000 A 
ATOM     25  C   UNL     1      -0.215  14.434  18.527  0.00  0.00    +0.000 A 
ATOM     26  N   UNL     1       0.684  15.285  19.067  0.00  0.00    +0.000 NA
ATOM     27  C   UNL     1       1.624  14.734  19.869  0.00  0.00    +0.000 A 
ATOM     28  C   UNL     1       1.702  13.377  20.144  0.00  0.00    +0.000 A 
ATOM     29  F   UNL     1       2.673  12.907  20.940  0.00  0.00    +0.000 F 
ENDBRANCH  21  23
ENDBRANCH   3  19
BRANCH   6  30
ATOM     30  C   UNL     1       2.067   4.751  20.970  0.00  0.00    +0.000 C 
BRANCH  30  31
ATOM     31  N   UNL     1       0.975   3.837  20.633  0.00  0.00    +0.000 NA
ATOM     32  H   UNL     1       1.177   3.431  19.719  0.00  0.00    +0.000 HD
ATOM     33  H   UNL     1       0.125   4.384  20.511  0.00  0.00    +0.000 HD
ENDBRANCH  30  31
ENDBRANCH   6  30
TORSDOF 9
ENDMDL
MODEL 8
REMARK VINA RESULT:      -7.9      2.008      2.967
REMARK  Name = 
REMARK  10 active torsions:
REMARK  status: ('A' for Active; 'I' for Inactive)
REMARK    1  A    between atoms: C_1  and  C_2
REMARK    2  A    between atoms: C_2  and  C_3
REMARK    3  A    between atoms: C_3  and  O_4
REMARK    4  A    between atoms: O_4  and  C_5
REMARK    5  A    between atoms: C_5  and  C_7
REMARK    6  A    between atoms: C_11  and  C_12
REMARK    7  A    between atoms: C_14  and  C_15
REMARK    8  A    between atoms: N_17  and  C_18
REMARK    9  A    between atoms: C_27  and  C_28
REMARK   10  A    between atoms: C_28  and  N_29
REMARK                            x       y       z     vdW  Elec       q    Type
REMARK                         _______ _______ _______ _____ _____    ______ ____
ROOT
ATOM      1  C   UNL     1       2.451   6.243  19.123  0.00  0.00    +0.000 A 
ATOM      2  C   UNL     1       2.248   7.550  18.620  0.00  0.00    +0.000 A 
ATOM      3  C   UNL     1       1.667   8.578  19.376  0.00  0.00    +0.000 A 
ATOM      4  C   UNL     1       1.145   8.302  20.628  0.00  0.00    +0.000 A 
ATOM      5  C   UNL     1       1.255   7.003  21.127  0.00  0.00    +0.000 A 
ATOM      6  C   UNL     1       1.949   5.979  20.428  0.00  0.00    +0.000 A 
ENDROOT
BRANCH   1  11
ATOM      7  C   UNL     1       5.260   4.792  16.950  0.00  0.00    +0.000 A 
ATOM      8  C   UNL     1       4.637   3.658  16.421  0.00  0.00    +0.000 A 
ATOM      9  C   UNL     1       3.373   3.298  16.863  0.00  0.00    +0.000 A 
ATOM     10  C   UNL     1       2.695   4.124  17.763  0.00  0.00    +0.000 A 
ATOM     11  C   UNL     1       3.278   5.294  18.303  0.00  0.00    +0.000 A 
ATOM     12  C   UNL     1       4.617   5.537  17.952  0.00  0.00    +0.000 A 
BRANCH   7  13
ATOM     13  C   UNL     1       6.565   5.198  16.361  0.00  0.00    +0.000 C 
ATOM     14  O   UNL     1       7.619   5.126  16.975  0.00  0.00    +0.000 OA
BRANCH  13  15
ATOM     15  O   UNL     1       6.412   5.650  15.091  0.00  0.00    +0.000 OA
BRANCH  15  16
ATOM     16  C   UNL     1       7.109   4.904  14.083  0.00  0.00    +0.000 C 
BRANCH  16  18
ATOM     17  C   UNL     1       6.671   3.530  12.043  0.00  0.00    +0.000 C 
ATOM     18  C   UNL     1       6.215   3.838  13.462  0.00  0.00    +0.000 C 
ENDBRANCH  16  18
ENDBRANCH  15  16
ENDBRANCH  13  15
ENDBRANCH   7  13
ENDBRANCH   1  11
BRANCH   3  19
ATOM     19  C   UNL     1       1.637   9.936  18.771  0.00  0.00    +0.000 C 
ATOM     20  O   UNL     1       2.049  10.049  17.623  0.00  0.00    +0.000 OA
ATOM     21  N   UNL     1       1.223  10.967  19.597  0.00  0.00    +0.000 N 
ATOM     22  H   UNL     1       1.074  10.772  20.581  0.00  0.00    +0.000 HD
BRANCH  21  23
ATOM     23  C   UNL     1       1.191  12.342  19.231  0.00  0.00    +0.000 A 
ATOM     24  C   UNL     1       2.335  13.129  19.112  0.00  0.00    +0.000 A 
ATOM     25  C   UNL     1       2.200  14.467  18.776  0.00  0.00    +0.000 A 
ATOM     26  N   UNL     1       1.013  15.069  18.544  0.00  0.00    +0.000 NA
ATOM     27  C   UNL     1      -0.085  14.287  18.650  0.00  0.00    +0.000 A 
ATOM     28  C   UNL     1      -0.043  12.941  18.981  0.00  0.00    +0.000 A 
ATOM     29  F   UNL     1      -1.180  12.236  19.078  0.00  0.00    +0.000 F 
ENDBRANCH  21  23
ENDBRANCH   3  19
BRANCH   6  30
ATOM     30  C   UNL     1       2.068   4.626  21.117  0.00  0.00    +0.000 C 
BRANCH  30  31
ATOM     31  N   UNL     1       0.978   3.699  20.807  0.00  0.00    +0.000 NA
ATOM     32  H   UNL     1       0.105   4.229  20.814  0.00  0.00    +0.000 HD
ATOM     33  H   UNL     1       0.901   3.029  21.570  0.00  0.00    +0.000 HD
ENDBRANCH  30  31
ENDBRANCH   6  30
TORSDOF 9
ENDMDL
MODEL 9
REMARK VINA RESULT:      -7.9      1.492      1.601
REMARK  Name = 
REMARK  10 active torsions:
REMARK  status: ('A' for Active; 'I' for Inactive)
REMARK    1  A    between atoms: C_1  and  C_2
REMARK    2  A    between atoms: C_2  and  C_3
REMARK    3  A    between atoms: C_3  and  O_4
REMARK    4  A    between atoms: O_4  and  C_5
REMARK    5  A    between atoms: C_5  and  C_7
REMARK    6  A    between atoms: C_11  and  C_12
REMARK    7  A    between atoms: C_14  and  C_15
REMARK    8  A    between atoms: N_17  and  C_18
REMARK    9  A    between atoms: C_27  and  C_28
REMARK   10  A    between atoms: C_28  and  N_29
REMARK                            x       y       z     vdW  Elec       q    Type
REMARK                         _______ _______ _______ _____ _____    ______ ____
ROOT
ATOM      1  C   UNL     1       4.008   5.813  18.298  0.00  0.00    +0.000 A 
ATOM      2  C   UNL     1       3.385   7.055  18.027  0.00  0.00    +0.000 A 
ATOM      3  C   UNL     1       2.253   7.508  18.720  0.00  0.00    +0.000 A 
ATOM      4  C   UNL     1       1.621   6.677  19.628  0.00  0.00    +0.000 A 
ATOM      5  C   UNL     1       2.161   5.411  19.864  0.00  0.00    +0.000 A 
ATOM      6  C   UNL     1       3.375   4.981  19.264  0.00  0.00    +0.000 A 
ENDROOT
BRANCH   1  11
ATOM      7  C   UNL     1       6.702   5.103  15.661  0.00  0.00    +0.000 A 
ATOM      8  C   UNL     1       7.737   4.604  16.456  0.00  0.00    +0.000 A 
ATOM      9  C   UNL     1       7.613   4.621  17.837  0.00  0.00    +0.000 A 
ATOM     10  C   UNL     1       6.416   5.048  18.417  0.00  0.00    +0.000 A 
ATOM     11  C   UNL     1       5.334   5.536  17.649  0.00  0.00    +0.000 A 
ATOM     12  C   UNL     1       5.559   5.651  16.266  0.00  0.00    +0.000 A 
BRANCH   7  13
ATOM     13  C   UNL     1       6.837   4.959  14.186  0.00  0.00    +0.000 C 
ATOM     14  O   UNL     1       7.608   5.635  13.522  0.00  0.00    +0.000 OA
BRANCH  13  15
ATOM     15  O   UNL     1       6.000   4.005  13.707  0.00  0.00    +0.000 OA
BRANCH  15  16
ATOM     16  C   UNL     1       6.335   3.487  12.411  0.00  0.00    +0.000 C 
BRANCH  16  18
ATOM     17  C   UNL     1       4.139   3.303  11.232  0.00  0.00    +0.000 C 
ATOM     18  C   UNL     1       5.265   2.528  11.902  0.00  0.00    +0.000 C 
ENDBRANCH  16  18
ENDBRANCH  15  16
ENDBRANCH  13  15
ENDBRANCH   7  13
ENDBRANCH   1  11
BRANCH   3  19
ATOM     19  C   UNL     1       1.782   8.888  18.426  0.00  0.00    +0.000 C 
ATOM     20  O   UNL     1       2.412   9.533  17.597  0.00  0.00    +0.000 OA
ATOM     21  N   UNL     1       0.719   9.349  19.185  0.00  0.00    +0.000 N 
ATOM     22  H   UNL     1       0.395   8.783  19.961  0.00  0.00    +0.000 HD
BRANCH  21  23
ATOM     23  C   UNL     1       0.168  10.658  19.106  0.00  0.00    +0.000 A 
ATOM     24  C   UNL     1      -0.842  11.011  18.214  0.00  0.00    +0.000 A 
ATOM     25  C   UNL     1      -1.296  12.320  18.193  0.00  0.00    +0.000 A 
ATOM     26  N   UNL     1      -0.822  13.294  19.000  0.00  0.00    +0.000 NA
ATOM     27  C   UNL     1       0.149  12.931  19.870  0.00  0.00    +0.000 A 
ATOM     28  C   UNL     1       0.661  11.646  19.959  0.00  0.00    +0.000 A 
ATOM     29  F   UNL     1       1.633  11.368  20.840  0.00  0.00    +0.000 F 
ENDBRANCH  21  23
ENDBRANCH   3  19
BRANCH   6  30
ATOM     30  C   UNL     1       3.902   3.610  19.666  0.00  0.00    +0.000 C 
BRANCH  30  31
ATOM     31  N   UNL     1       2.857   2.607  19.878  0.00  0.00    +0.000 NA
ATOM     32  H   UNL     1       2.796   2.425  20.881  0.00  0.00    +0.000 HD
ATOM     33  H   UNL     1       3.163   1.732  19.455  0.00  0.00    +0.000 HD
ENDBRANCH  30  31
ENDBRANCH   6  30
TORSDOF 9
ENDMDL
