MODEL 1
REMARK VINA RESULT:      -6.7      0.000      0.000
REMARK  Name = 
REMARK  11 active torsions:
REMARK  status: ('A' for Active; 'I' for Inactive)
REMARK    1  A    between atoms: C_1  and  C_2
REMARK    2  A    between atoms: C_2  and  C_3
REMARK    3  A    between atoms: C_2  and  N_4
REMARK    4  A    between atoms: N_4  and  C_18
REMARK    5  A    between atoms: C_5  and  C_7
REMARK    6  A    between atoms: C_7  and  O_8
REMARK    7  A    between atoms: O_8  and  C_9
REMARK    8  A    between atoms: C_9  and  C_11
REMARK    9  A    between atoms: C_14  and  O_15
REMARK   10  A    between atoms: C_18  and  C_19
REMARK   11  A    between atoms: C_18  and  C_20
REMARK                            x       y       z     vdW  Elec       q    Type
REMARK                         _______ _______ _______ _____ _____    ______ ____
ROOT
ATOM      1  O   UNL     1       6.442   5.093  19.371  0.00  0.00    +0.000 OA
ENDROOT
BRANCH   1   2
ATOM      2  C   UNL     1       7.042   5.836  18.404  0.00  0.00    +0.000 C 
ATOM      3  O   UNL     1       7.830   6.751  18.587  0.00  0.00    +0.000 OA
BRANCH   2   4
ATOM      4  C   UNL     1       6.601   5.387  17.063  0.00  0.00    +0.000 A 
ATOM      5  C   UNL     1       5.771   6.235  16.318  0.00  0.00    +0.000 A 
ATOM      6  C   UNL     1       5.317   5.840  15.055  0.00  0.00    +0.000 A 
ATOM      7  C   UNL     1       5.681   4.592  14.555  0.00  0.00    +0.000 A 
ATOM      8  C   UNL     1       6.490   3.736  15.294  0.00  0.00    +0.000 A 
ATOM      9  C   UNL     1       6.955   4.132  16.551  0.00  0.00    +0.000 A 
BRANCH   7  10
ATOM     10  O   UNL     1       5.256   4.164  13.333  0.00  0.00    +0.000 OA
ATOM     11  H   UNL     1       5.562   4.795  12.658  0.00  0.00    +0.000 HD
ENDBRANCH   7  10
ENDBRANCH   2   4
ENDBRANCH   1   2
BRANCH   1  12
ATOM     12  C   UNL     1       5.018   5.206  19.417  0.00  0.00    +0.000 C 
BRANCH  12  14
ATOM     13  N   UNL     1       2.857   3.905  19.631  0.00  0.00    +0.000 N 
ATOM     14  C   UNL     1       4.268   3.883  19.685  0.00  0.00    +0.000 C 
ATOM     15  O   UNL     1       4.909   2.855  19.913  0.00  0.00    +0.000 OA
BRANCH  13  17
ATOM     16  C   UNL     1       1.584   2.462  21.334  0.00  0.00    +0.000 C 
ATOM     17  C   UNL     1       2.093   2.651  19.898  0.00  0.00    +0.000 C 
ATOM     18  C   UNL     1       0.936   2.474  18.911  0.00  0.00    +0.000 C 
ENDBRANCH  13  17
BRANCH  13  19
ATOM     19  C   UNL     1       2.097   5.146  19.316  0.00  0.00    +0.000 C 
ATOM     20  C   UNL     1       1.987   6.046  20.549  0.00  0.00    +0.000 C 
ATOM     21  C   UNL     1       2.619   5.959  18.124  0.00  0.00    +0.000 C 
ENDBRANCH  13  19
ENDBRANCH  12  14
ENDBRANCH   1  12
TORSDOF 7
ENDMDL
MODEL 2
REMARK VINA RESULT:      -6.6      0.941      1.123
REMARK  Name = 
REMARK  11 active torsions:
REMARK  status: ('A' for Active; 'I' for Inactive)
REMARK    1  A    between atoms: C_1  and  C_2
REMARK    2  A    between atoms: C_2  and  C_3
REMARK    3  A    between atoms: C_2  and  N_4
REMARK    4  A    between atoms: N_4  and  C_18
REMARK    5  A    between atoms: C_5  and  C_7
REMARK    6  A    between atoms: C_7  and  O_8
REMARK    7  A    between atoms: O_8  and  C_9
REMARK    8  A    between atoms: C_9  and  C_11
REMARK    9  A    between atoms: C_14  and  O_15
REMARK   10  A    between atoms: C_18  and  C_19
REMARK   11  A    between atoms: C_18  and  C_20
REMARK                            x       y       z     vdW  Elec       q    Type
REMARK                         _______ _______ _______ _____ _____    ______ ____
ROOT
ATOM      1  O   UNL     1       6.377   4.365  18.483  0.00  0.00    +0.000 OA
ENDROOT
BRANCH   1   2
ATOM      2  C   UNL     1       6.779   5.305  17.587  0.00  0.00    +0.000 C 
ATOM      3  O   UNL     1       7.226   6.408  17.856  0.00  0.00    +0.000 OA
BRANCH   2   4
ATOM      4  C   UNL     1       6.594   4.807  16.204  0.00  0.00    +0.000 A 
ATOM      5  C   UNL     1       7.446   5.292  15.204  0.00  0.00    +0.000 A 
ATOM      6  C   UNL     1       7.292   4.860  13.881  0.00  0.00    +0.000 A 
ATOM      7  C   UNL     1       6.275   3.963  13.568  0.00  0.00    +0.000 A 
ATOM      8  C   UNL     1       5.413   3.488  14.550  0.00  0.00    +0.000 A 
ATOM      9  C   UNL     1       5.571   3.907  15.874  0.00  0.00    +0.000 A 
BRANCH   7  10
ATOM     10  O   UNL     1       6.085   3.522  12.291  0.00  0.00    +0.000 OA
ATOM     11  H   UNL     1       6.026   4.292  11.701  0.00  0.00    +0.000 HD
ENDBRANCH   7  10
ENDBRANCH   2   4
ENDBRANCH   1   2
BRANCH   1  12
ATOM     12  C   UNL     1       5.224   4.721  19.248  0.00  0.00    +0.000 C 
BRANCH  12  14
ATOM     13  N   UNL     1       2.911   3.725  19.519  0.00  0.00    +0.000 N 
ATOM     14  C   UNL     1       4.306   3.538  19.631  0.00  0.00    +0.000 C 
ATOM     15  O   UNL     1       4.808   2.474  19.999  0.00  0.00    +0.000 OA
BRANCH  13  17
ATOM     16  C   UNL     1       1.436   2.646  21.325  0.00  0.00    +0.000 C 
ATOM     17  C   UNL     1       1.990   2.613  19.893  0.00  0.00    +0.000 C 
ATOM     18  C   UNL     1       0.836   2.476  18.895  0.00  0.00    +0.000 C 
ENDBRANCH  13  17
BRANCH  13  19
ATOM     19  C   UNL     1       2.321   5.004  19.035  0.00  0.00    +0.000 C 
ATOM     20  C   UNL     1       2.292   6.048  20.155  0.00  0.00    +0.000 C 
ATOM     21  C   UNL     1       2.972   5.604  17.783  0.00  0.00    +0.000 C 
ENDBRANCH  13  19
ENDBRANCH  12  14
ENDBRANCH   1  12
TORSDOF 7
ENDMDL
MODEL 3
REMARK VINA RESULT:      -6.6      2.276      5.826
REMARK  Name = 
REMARK  11 active torsions:
REMARK  status: ('A' for Active; 'I' for Inactive)
REMARK    1  A    between atoms: C_1  and  C_2
REMARK    2  A    between atoms: C_2  and  C_3
REMARK    3  A    between atoms: C_2  and  N_4
REMARK    4  A    between atoms: N_4  and  C_18
REMARK    5  A    between atoms: C_5  and  C_7
REMARK    6  A    between atoms: C_7  and  O_8
REMARK    7  A    between atoms: O_8  and  C_9
REMARK    8  A    between atoms: C_9  and  C_11
REMARK    9  A    between atoms: C_14  and  O_15
REMARK   10  A    between atoms: C_18  and  C_19
REMARK   11  A    between atoms: C_18  and  C_20
REMARK                            x       y       z     vdW  Elec       q    Type
REMARK                         _______ _______ _______ _____ _____    ______ ____
ROOT
ATOM      1  O   UNL     1       2.498   3.259  17.022  0.00  0.00    +0.000 OA
ENDROOT
BRANCH   1   2
ATOM      2  C   UNL     1       1.626   3.294  18.064  0.00  0.00    +0.000 C 
ATOM      3  O   UNL     1       0.822   2.423  18.357  0.00  0.00    +0.000 OA
BRANCH   2   4
ATOM      4  C   UNL     1       1.775   4.563  18.814  0.00  0.00    +0.000 A 
ATOM      5  C   UNL     1       1.415   4.580  20.168  0.00  0.00    +0.000 A 
ATOM      6  C   UNL     1       1.523   5.763  20.908  0.00  0.00    +0.000 A 
ATOM      7  C   UNL     1       1.972   6.923  20.282  0.00  0.00    +0.000 A 
ATOM      8  C   UNL     1       2.317   6.921  18.935  0.00  0.00    +0.000 A 
ATOM      9  C   UNL     1       2.221   5.739  18.196  0.00  0.00    +0.000 A 
BRANCH   7  10
ATOM     10  O   UNL     1       2.087   8.099  20.963  0.00  0.00    +0.000 OA
ATOM     11  H   UNL     1       1.982   8.834  20.335  0.00  0.00    +0.000 HD
ENDBRANCH   7  10
ENDBRANCH   2   4
ENDBRANCH   1   2
BRANCH   1  12
ATOM     12  C   UNL     1       3.715   2.557  17.283  0.00  0.00    +0.000 C 
BRANCH  12  14
ATOM     13  N   UNL     1       5.483   4.370  17.264  0.00  0.00    +0.000 N 
ATOM     14  C   UNL     1       4.800   3.383  18.009  0.00  0.00    +0.000 C 
ATOM     15  O   UNL     1       5.024   3.178  19.203  0.00  0.00    +0.000 OA
BRANCH  13  17
ATOM     16  C   UNL     1       6.279   5.599  19.375  0.00  0.00    +0.000 C 
ATOM     17  C   UNL     1       6.549   5.180  17.923  0.00  0.00    +0.000 C 
ATOM     18  C   UNL     1       7.917   4.499  17.826  0.00  0.00    +0.000 C 
ENDBRANCH  13  17
BRANCH  13  19
ATOM     19  C   UNL     1       5.175   4.634  15.831  0.00  0.00    +0.000 C 
ATOM     20  C   UNL     1       5.203   6.135  15.535  0.00  0.00    +0.000 C 
ATOM     21  C   UNL     1       6.049   3.887  14.816  0.00  0.00    +0.000 C 
ENDBRANCH  13  19
ENDBRANCH  12  14
ENDBRANCH   1  12
TORSDOF 7
ENDMDL
MODEL 4
REMARK VINA RESULT:      -6.6      1.226      1.833
REMARK  Name = 
REMARK  11 active torsions:
REMARK  status: ('A' for Active; 'I' for Inactive)
REMARK    1  A    between atoms: C_1  and  C_2
REMARK    2  A    between atoms: C_2  and  C_3
REMARK    3  A    between atoms: C_2  and  N_4
REMARK    4  A    between atoms: N_4  and  C_18
REMARK    5  A    between atoms: C_5  and  C_7
REMARK    6  A    between atoms: C_7  and  O_8
REMARK    7  A    between atoms: O_8  and  C_9
REMARK    8  A    between atoms: C_9  and  C_11
REMARK    9  A    between atoms: C_14  and  O_15
REMARK   10  A    between atoms: C_18  and  C_19
REMARK   11  A    between atoms: C_18  and  C_20
REMARK                            x       y       z     vdW  Elec       q    Type
REMARK                         _______ _______ _______ _____ _____    ______ ____
ROOT
ATOM      1  O   UNL     1       5.826   4.123  18.174  0.00  0.00    +0.000 OA
ENDROOT
BRANCH   1   2
ATOM      2  C   UNL     1       5.959   5.222  17.385  0.00  0.00    +0.000 C 
ATOM      3  O   UNL     1       5.932   6.383  17.762  0.00  0.00    +0.000 OA
BRANCH   2   4
ATOM      4  C   UNL     1       6.140   4.820  15.971  0.00  0.00    +0.000 A 
ATOM      5  C   UNL     1       7.285   5.262  15.296  0.00  0.00    +0.000 A 
ATOM      6  C   UNL     1       7.484   4.919  13.953  0.00  0.00    +0.000 A 
ATOM      7  C   UNL     1       6.527   4.153  13.293  0.00  0.00    +0.000 A 
ATOM      8  C   UNL     1       5.380   3.722  13.950  0.00  0.00    +0.000 A 
ATOM      9  C   UNL     1       5.183   4.053  15.293  0.00  0.00    +0.000 A 
BRANCH   7  10
ATOM     10  O   UNL     1       6.677   3.802  11.984  0.00  0.00    +0.000 OA
ATOM     11  H   UNL     1       7.329   4.396  11.575  0.00  0.00    +0.000 HD
ENDBRANCH   7  10
ENDBRANCH   2   4
ENDBRANCH   1   2
BRANCH   1  12
ATOM     12  C   UNL     1       5.163   4.355  19.418  0.00  0.00    +0.000 C 
BRANCH  12  14
ATOM     13  N   UNL     1       2.649   4.291  19.713  0.00  0.00    +0.000 N 
ATOM     14  C   UNL     1       3.853   3.560  19.617  0.00  0.00    +0.000 C 
ATOM     15  O   UNL     1       3.890   2.329  19.664  0.00  0.00    +0.000 OA
BRANCH  13  17
ATOM     16  C   UNL     1       0.952   2.587  18.807  0.00  0.00    +0.000 C 
ATOM     17  C   UNL     1       1.363   3.562  19.919  0.00  0.00    +0.000 C 
ATOM     18  C   UNL     1       1.331   2.847  21.273  0.00  0.00    +0.000 C 
ENDBRANCH  13  17
BRANCH  13  19
ATOM     19  C   UNL     1       2.615   5.777  19.615  0.00  0.00    +0.000 C 
ATOM     20  C   UNL     1       2.358   6.222  18.173  0.00  0.00    +0.000 C 
ATOM     21  C   UNL     1       1.634   6.482  20.560  0.00  0.00    +0.000 C 
ENDBRANCH  13  19
ENDBRANCH  12  14
ENDBRANCH   1  12
TORSDOF 7
ENDMDL
MODEL 5
REMARK VINA RESULT:      -6.5      1.624      2.276
REMARK  Name = 
REMARK  11 active torsions:
REMARK  status: ('A' for Active; 'I' for Inactive)
REMARK    1  A    between atoms: C_1  and  C_2
REMARK    2  A    between atoms: C_2  and  C_3
REMARK    3  A    between atoms: C_2  and  N_4
REMARK    4  A    between atoms: N_4  and  C_18
REMARK    5  A    between atoms: C_5  and  C_7
REMARK    6  A    between atoms: C_7  and  O_8
REMARK    7  A    between atoms: O_8  and  C_9
REMARK    8  A    between atoms: C_9  and  C_11
REMARK    9  A    between atoms: C_14  and  O_15
REMARK   10  A    between atoms: C_18  and  C_19
REMARK   11  A    between atoms: C_18  and  C_20
REMARK                            x       y       z     vdW  Elec       q    Type
REMARK                         _______ _______ _______ _____ _____    ______ ____
ROOT
ATOM      1  O   UNL     1       4.640   5.895  18.241  0.00  0.00    +0.000 OA
ENDROOT
BRANCH   1   2
ATOM      2  C   UNL     1       5.897   6.026  17.739  0.00  0.00    +0.000 C 
ATOM      3  O   UNL     1       6.817   6.637  18.259  0.00  0.00    +0.000 OA
BRANCH   2   4
ATOM      4  C   UNL     1       6.008   5.319  16.443  0.00  0.00    +0.000 A 
ATOM      5  C   UNL     1       5.022   4.381  16.111  0.00  0.00    +0.000 A 
ATOM      6  C   UNL     1       5.100   3.678  14.903  0.00  0.00    +0.000 A 
ATOM      7  C   UNL     1       6.174   3.906  14.046  0.00  0.00    +0.000 A 
ATOM      8  C   UNL     1       7.166   4.823  14.373  0.00  0.00    +0.000 A 
ATOM      9  C   UNL     1       7.086   5.535  15.573  0.00  0.00    +0.000 A 
BRANCH   7  10
ATOM     10  O   UNL     1       6.293   3.239  12.863  0.00  0.00    +0.000 OA
ATOM     11  H   UNL     1       5.439   2.823  12.652  0.00  0.00    +0.000 HD
ENDBRANCH   7  10
ENDBRANCH   2   4
ENDBRANCH   1   2
BRANCH   1  12
ATOM     12  C   UNL     1       4.575   5.350  19.560  0.00  0.00    +0.000 C 
BRANCH  12  14
ATOM     13  N   UNL     1       3.054   3.342  19.817  0.00  0.00    +0.000 N 
ATOM     14  C   UNL     1       3.210   4.739  19.946  0.00  0.00    +0.000 C 
ATOM     15  O   UNL     1       2.314   5.472  20.369  0.00  0.00    +0.000 OA
BRANCH  13  17
ATOM     16  C   UNL     1       1.333   2.787  21.641  0.00  0.00    +0.000 C 
ATOM     17  C   UNL     1       1.747   2.714  20.165  0.00  0.00    +0.000 C 
ATOM     18  C   UNL     1       0.613   3.243  19.282  0.00  0.00    +0.000 C 
ENDBRANCH  13  17
BRANCH  13  19
ATOM     19  C   UNL     1       4.160   2.464  19.341  0.00  0.00    +0.000 C 
ATOM     20  C   UNL     1       4.829   1.746  20.515  0.00  0.00    +0.000 C 
ATOM     21  C   UNL     1       3.780   1.447  18.257  0.00  0.00    +0.000 C 
ENDBRANCH  13  19
ENDBRANCH  12  14
ENDBRANCH   1  12
TORSDOF 7
ENDMDL
MODEL 6
REMARK VINA RESULT:      -6.5      1.688      2.367
REMARK  Name = 
REMARK  11 active torsions:
REMARK  status: ('A' for Active; 'I' for Inactive)
REMARK    1  A    between atoms: C_1  and  C_2
REMARK    2  A    between atoms: C_2  and  C_3
REMARK    3  A    between atoms: C_2  and  N_4
REMARK    4  A    between atoms: N_4  and  C_18
REMARK    5  A    between atoms: C_5  and  C_7
REMARK    6  A    between atoms: C_7  and  O_8
REMARK    7  A    between atoms: O_8  and  C_9
REMARK    8  A    between atoms: C_9  and  C_11
REMARK    9  A    between atoms: C_14  and  O_15
REMARK   10  A    between atoms: C_18  and  C_19
REMARK   11  A    between atoms: C_18  and  C_20
REMARK                            x       y       z     vdW  Elec       q    Type
REMARK                         _______ _______ _______ _____ _____    ______ ____
ROOT
ATOM      1  O   UNL     1       5.217   6.191  16.936  0.00  0.00    +0.000 OA
ENDROOT
BRANCH   1   2
ATOM      2  C   UNL     1       6.434   6.106  16.337  0.00  0.00    +0.000 C 
ATOM      3  O   UNL     1       7.449   6.687  16.687  0.00  0.00    +0.000 OA
BRANCH   2   4
ATOM      4  C   UNL     1       6.367   5.198  15.168  0.00  0.00    +0.000 A 
ATOM      5  C   UNL     1       7.348   5.320  14.176  0.00  0.00    +0.000 A 
ATOM      6  C   UNL     1       7.311   4.493  13.046  0.00  0.00    +0.000 A 
ATOM      7  C   UNL     1       6.280   3.566  12.910  0.00  0.00    +0.000 A 
ATOM      8  C   UNL     1       5.292   3.449  13.881  0.00  0.00    +0.000 A 
ATOM      9  C   UNL     1       5.333   4.264  15.016  0.00  0.00    +0.000 A 
BRANCH   7  10
ATOM     10  O   UNL     1       6.201   2.747  11.824  0.00  0.00    +0.000 OA
ATOM     11  H   UNL     1       6.785   1.982  11.967  0.00  0.00    +0.000 HD
ENDBRANCH   7  10
ENDBRANCH   2   4
ENDBRANCH   1   2
BRANCH   1  12
ATOM     12  C   UNL     1       5.220   5.917  18.339  0.00  0.00    +0.000 C 
BRANCH  12  14
ATOM     13  N   UNL     1       3.716   4.000  19.029  0.00  0.00    +0.000 N 
ATOM     14  C   UNL     1       5.023   4.431  18.713  0.00  0.00    +0.000 C 
ATOM     15  O   UNL     1       5.991   3.669  18.704  0.00  0.00    +0.000 OA
BRANCH  13  17
ATOM     16  C   UNL     1       3.610   1.545  18.279  0.00  0.00    +0.000 C 
ATOM     17  C   UNL     1       3.486   2.576  19.410  0.00  0.00    +0.000 C 
ATOM     18  C   UNL     1       4.365   2.158  20.592  0.00  0.00    +0.000 C 
ENDBRANCH  13  17
BRANCH  13  19
ATOM     19  C   UNL     1       2.549   4.925  18.997  0.00  0.00    +0.000 C 
ATOM     20  C   UNL     1       1.675   4.656  17.769  0.00  0.00    +0.000 C 
ATOM     21  C   UNL     1       1.680   4.940  20.261  0.00  0.00    +0.000 C 
ENDBRANCH  13  19
ENDBRANCH  12  14
ENDBRANCH   1  12
TORSDOF 7
ENDMDL
MODEL 7
REMARK VINA RESULT:      -6.4      1.346      1.721
REMARK  Name = 
REMARK  11 active torsions:
REMARK  status: ('A' for Active; 'I' for Inactive)
REMARK    1  A    between atoms: C_1  and  C_2
REMARK    2  A    between atoms: C_2  and  C_3
REMARK    3  A    between atoms: C_2  and  N_4
REMARK    4  A    between atoms: N_4  and  C_18
REMARK    5  A    between atoms: C_5  and  C_7
REMARK    6  A    between atoms: C_7  and  O_8
REMARK    7  A    between atoms: O_8  and  C_9
REMARK    8  A    between atoms: C_9  and  C_11
REMARK    9  A    between atoms: C_14  and  O_15
REMARK   10  A    between atoms: C_18  and  C_19
REMARK   11  A    between atoms: C_18  and  C_20
REMARK                            x       y       z     vdW  Elec       q    Type
REMARK                         _______ _______ _______ _____ _____    ______ ____
ROOT
ATOM      1  O   UNL     1       6.353   5.751  18.077  0.00  0.00    +0.000 OA
ENDROOT
BRANCH   1   2
ATOM      2  C   UNL     1       7.217   4.866  17.512  0.00  0.00    +0.000 C 
ATOM      3  O   UNL     1       8.223   4.413  18.033  0.00  0.00    +0.000 OA
BRANCH   2   4
ATOM      4  C   UNL     1       6.771   4.520  16.142  0.00  0.00    +0.000 A 
ATOM      5  C   UNL     1       7.503   5.023  15.058  0.00  0.00    +0.000 A 
ATOM      6  C   UNL     1       7.104   4.734  13.748  0.00  0.00    +0.000 A 
ATOM      7  C   UNL     1       5.967   3.959  13.533  0.00  0.00    +0.000 A 
ATOM      8  C   UNL     1       5.225   3.468  14.602  0.00  0.00    +0.000 A 
ATOM      9  C   UNL     1       5.626   3.745  15.911  0.00  0.00    +0.000 A 
BRANCH   7  10
ATOM     10  O   UNL     1       5.539   3.659  12.274  0.00  0.00    +0.000 OA
ATOM     11  H   UNL     1       5.141   2.772  12.283  0.00  0.00    +0.000 HD
ENDBRANCH   7  10
ENDBRANCH   2   4
ENDBRANCH   1   2
BRANCH   1  12
ATOM     12  C   UNL     1       5.881   5.382  19.374  0.00  0.00    +0.000 C 
BRANCH  12  14
ATOM     13  N   UNL     1       3.399   4.880  19.349  0.00  0.00    +0.000 N 
ATOM     14  C   UNL     1       4.715   4.369  19.379  0.00  0.00    +0.000 C 
ATOM     15  O   UNL     1       4.960   3.161  19.386  0.00  0.00    +0.000 OA
BRANCH  13  17
ATOM     16  C   UNL     1       1.262   4.090  20.537  0.00  0.00    +0.000 C 
ATOM     17  C   UNL     1       2.245   3.935  19.367  0.00  0.00    +0.000 C 
ATOM     18  C   UNL     1       1.479   3.955  18.041  0.00  0.00    +0.000 C 
ENDBRANCH  13  17
BRANCH  13  19
ATOM     19  C   UNL     1       3.120   6.342  19.301  0.00  0.00    +0.000 C 
ATOM     20  C   UNL     1       2.866   6.801  17.863  0.00  0.00    +0.000 C 
ATOM     21  C   UNL     1       1.986   6.832  20.211  0.00  0.00    +0.000 C 
ENDBRANCH  13  19
ENDBRANCH  12  14
ENDBRANCH   1  12
TORSDOF 7
ENDMDL
MODEL 8
REMARK VINA RESULT:      -6.4      1.228      1.660
REMARK  Name = 
REMARK  11 active torsions:
REMARK  status: ('A' for Active; 'I' for Inactive)
REMARK    1  A    between atoms: C_1  and  C_2
REMARK    2  A    between atoms: C_2  and  C_3
REMARK    3  A    between atoms: C_2  and  N_4
REMARK    4  A    between atoms: N_4  and  C_18
REMARK    5  A    between atoms: C_5  and  C_7
REMARK    6  A    between atoms: C_7  and  O_8
REMARK    7  A    between atoms: O_8  and  C_9
REMARK    8  A    between atoms: C_9  and  C_11
REMARK    9  A    between atoms: C_14  and  O_15
REMARK   10  A    between atoms: C_18  and  C_19
REMARK   11  A    between atoms: C_18  and  C_20
REMARK                            x       y       z     vdW  Elec       q    Type
REMARK                         _______ _______ _______ _____ _____    ______ ____
ROOT
ATOM      1  O   UNL     1       6.152   4.466  18.104  0.00  0.00    +0.000 OA
ENDROOT
BRANCH   1   2
ATOM      2  C   UNL     1       5.878   5.470  17.229  0.00  0.00    +0.000 C 
ATOM      3  O   UNL     1       5.489   6.590  17.521  0.00  0.00    +0.000 OA
BRANCH   2   4
ATOM      4  C   UNL     1       6.113   5.017  15.839  0.00  0.00    +0.000 A 
ATOM      5  C   UNL     1       5.140   4.215  15.229  0.00  0.00    +0.000 A 
ATOM      6  C   UNL     1       5.332   3.750  13.922  0.00  0.00    +0.000 A 
ATOM      7  C   UNL     1       6.503   4.078  13.244  0.00  0.00    +0.000 A 
ATOM      8  C   UNL     1       7.482   4.860  13.846  0.00  0.00    +0.000 A 
ATOM      9  C   UNL     1       7.289   5.335  15.146  0.00  0.00    +0.000 A 
BRANCH   7  10
ATOM     10  O   UNL     1       6.734   3.642  11.973  0.00  0.00    +0.000 OA
ATOM     11  H   UNL     1       7.643   3.301  11.921  0.00  0.00    +0.000 HD
ENDBRANCH   7  10
ENDBRANCH   2   4
ENDBRANCH   1   2
BRANCH   1  12
ATOM     12  C   UNL     1       5.488   4.572  19.365  0.00  0.00    +0.000 C 
BRANCH  12  14
ATOM     13  N   UNL     1       3.131   3.732  19.757  0.00  0.00    +0.000 N 
ATOM     14  C   UNL     1       4.507   3.422  19.683  0.00  0.00    +0.000 C 
ATOM     15  O   UNL     1       4.940   2.279  19.840  0.00  0.00    +0.000 OA
BRANCH  13  17
ATOM     16  C   UNL     1       1.495   2.724  21.463  0.00  0.00    +0.000 C 
ATOM     17  C   UNL     1       2.152   2.653  20.077  0.00  0.00    +0.000 C 
ATOM     18  C   UNL     1       1.072   2.534  18.997  0.00  0.00    +0.000 C 
ENDBRANCH  13  17
BRANCH  13  19
ATOM     19  C   UNL     1       2.618   5.111  19.526  0.00  0.00    +0.000 C 
ATOM     20  C   UNL     1       2.085   5.262  18.099  0.00  0.00    +0.000 C 
ATOM     21  C   UNL     1       1.568   5.605  20.529  0.00  0.00    +0.000 C 
ENDBRANCH  13  19
ENDBRANCH  12  14
ENDBRANCH   1  12
TORSDOF 7
ENDMDL
MODEL 9
REMARK VINA RESULT:      -6.4      2.348      6.004
REMARK  Name = 
REMARK  11 active torsions:
REMARK  status: ('A' for Active; 'I' for Inactive)
REMARK    1  A    between atoms: C_1  and  C_2
REMARK    2  A    between atoms: C_2  and  C_3
REMARK    3  A    between atoms: C_2  and  N_4
REMARK    4  A    between atoms: N_4  and  C_18
REMARK    5  A    between atoms: C_5  and  C_7
REMARK    6  A    between atoms: C_7  and  O_8
REMARK    7  A    between atoms: O_8  and  C_9
REMARK    8  A    between atoms: C_9  and  C_11
REMARK    9  A    between atoms: C_14  and  O_15
REMARK   10  A    between atoms: C_18  and  C_19
REMARK   11  A    between atoms: C_18  and  C_20
REMARK                            x       y       z     vdW  Elec       q    Type
REMARK                         _______ _______ _______ _____ _____    ______ ____
ROOT
ATOM      1  O   UNL     1       3.405   3.941  17.050  0.00  0.00    +0.000 OA
ENDROOT
BRANCH   1   2
ATOM      2  C   UNL     1       2.260   3.814  17.772  0.00  0.00    +0.000 C 
ATOM      3  O   UNL     1       1.452   2.903  17.682  0.00  0.00    +0.000 OA
BRANCH   2   4
ATOM      4  C   UNL     1       2.111   4.957  18.702  0.00  0.00    +0.000 A 
ATOM      5  C   UNL     1       2.465   6.234  18.247  0.00  0.00    +0.000 A 
ATOM      6  C   UNL     1       2.356   7.338  19.100  0.00  0.00    +0.000 A 
ATOM      7  C   UNL     1       1.912   7.152  20.407  0.00  0.00    +0.000 A 
ATOM      8  C   UNL     1       1.573   5.887  20.873  0.00  0.00    +0.000 A 
ATOM      9  C   UNL     1       1.670   4.784  20.021  0.00  0.00    +0.000 A 
BRANCH   7  10
ATOM     10  O   UNL     1       1.797   8.198  21.274  0.00  0.00    +0.000 OA
ATOM     11  H   UNL     1       2.687   8.463  21.562  0.00  0.00    +0.000 HD
ENDBRANCH   7  10
ENDBRANCH   2   4
ENDBRANCH   1   2
BRANCH   1  12
ATOM     12  C   UNL     1       4.556   3.335  17.641  0.00  0.00    +0.000 C 
BRANCH  12  14
ATOM     13  N   UNL     1       6.336   5.073  17.165  0.00  0.00    +0.000 N 
ATOM     14  C   UNL     1       5.632   4.328  18.137  0.00  0.00    +0.000 C 
ATOM     15  O   UNL     1       5.830   4.457  19.346  0.00  0.00    +0.000 OA
BRANCH  13  17
ATOM     16  C   UNL     1       7.008   7.518  17.582  0.00  0.00    +0.000 C 
ATOM     17  C   UNL     1       7.393   6.032  17.600  0.00  0.00    +0.000 C 
ATOM     18  C   UNL     1       7.961   5.661  18.973  0.00  0.00    +0.000 C 
ENDBRANCH  13  17
BRANCH  13  19
ATOM     19  C   UNL     1       6.058   4.935  15.709  0.00  0.00    +0.000 C 
ATOM     20  C   UNL     1       5.196   6.095  15.206  0.00  0.00    +0.000 C 
ATOM     21  C   UNL     1       7.292   4.776  14.810  0.00  0.00    +0.000 C 
ENDBRANCH  13  19
ENDBRANCH  12  14
ENDBRANCH   1  12
TORSDOF 7
ENDMDL
