MODEL 1
REMARK VINA RESULT:      -8.8      0.000      0.000
REMARK  Name = 
REMARK  7 active torsions:
REMARK  status: ('A' for Active; 'I' for Inactive)
REMARK    1  A    between atoms: S_2  and  N_4
REMARK    2  A    between atoms: S_2  and  C_21
REMARK    3  A    between atoms: N_4  and  C_5
REMARK    4  A    between atoms: C_5  and  C_6
REMARK    5  A    between atoms: C_6  and  C_7
REMARK    6  A    between atoms: C_7  and  N_8
REMARK    7  A    between atoms: N_11  and  C_12
REMARK                            x       y       z     vdW  Elec       q    Type
REMARK                         _______ _______ _______ _____ _____    ______ ____
ROOT
ATOM      1  C   UNL     1       7.160   7.944  17.595  0.00  0.00    +0.000 C 
ENDROOT
BRANCH   1   2
ATOM      2  N   UNL     1       7.466   6.736  16.816  0.00  0.00    +0.000 NA
ATOM      3  H   UNL     1       6.833   6.695  15.984  0.00  0.00    +0.000 HD
BRANCH   2   5
ATOM      4  O   UNL     1       8.128   4.203  17.187  0.00  0.00    +0.000 OA
ATOM      5  S   UNL     1       7.184   5.265  17.770  0.00  0.00    +0.000 S 
ATOM      6  O   UNL     1       7.848   5.563  19.123  0.00  0.00    +0.000 OA
BRANCH   5   7
ATOM      7  C   UNL     1       5.500   4.681  17.989  0.00  0.00    +0.000 A 
ATOM      8  C   UNL     1       4.829   4.071  16.923  0.00  0.00    +0.000 A 
ATOM      9  N   UNL     1       3.541   3.660  17.069  0.00  0.00    +0.000 NA
ATOM     10  C   UNL     1       2.865   3.832  18.236  0.00  0.00    +0.000 A 
ATOM     11  C   UNL     1       1.531   3.422  18.346  0.00  0.00    +0.000 A 
ATOM     12  C   UNL     1       0.836   3.614  19.546  0.00  0.00    +0.000 A 
ATOM     13  C   UNL     1       1.473   4.208  20.641  0.00  0.00    +0.000 A 
ATOM     14  C   UNL     1       2.807   4.614  20.543  0.00  0.00    +0.000 A 
ATOM     15  C   UNL     1       3.507   4.431  19.342  0.00  0.00    +0.000 A 
ATOM     16  C   UNL     1       4.836   4.845  19.208  0.00  0.00    +0.000 A 
ENDBRANCH   5   7
ENDBRANCH   2   5
ENDBRANCH   1   2
BRANCH   1  17
ATOM     17  C   UNL     1       8.452   8.457  18.243  0.00  0.00    +0.000 C 
BRANCH  17  18
ATOM     18  C   UNL     1       8.516   9.992  18.343  0.00  0.00    +0.000 C 
BRANCH  18  19
ATOM     19  N   UNL     1       9.850  10.508  18.763  0.00  0.00    +0.000 NA
ATOM     20  C   UNL     1      10.483  11.447  17.803  0.00  0.00    +0.000 C 
ATOM     21  C   UNL     1       9.727  12.786  17.734  0.00  0.00    +0.000 C 
ATOM     22  N   UNL     1       9.667  13.340  19.077  0.00  0.00    +0.000 N 
ATOM     23  C   UNL     1       9.092  12.482  20.105  0.00  0.00    +0.000 C 
ATOM     24  C   UNL     1       9.814  11.122  20.113  0.00  0.00    +0.000 C 
BRANCH  22  25
ATOM     25  C   UNL     1      10.158  14.661  19.362  0.00  0.00    +0.000 A 
ATOM     26  C   UNL     1      10.492  15.018  20.685  0.00  0.00    +0.000 A 
ATOM     27  C   UNL     1      10.994  16.288  20.978  0.00  0.00    +0.000 A 
ATOM     28  C   UNL     1      11.148  17.231  19.961  0.00  0.00    +0.000 A 
ATOM     29  C   UNL     1      10.811  16.900  18.646  0.00  0.00    +0.000 A 
ATOM     30 CL   UNL     1      10.988  18.097  17.376  0.00  0.00    +0.000 Cl
ATOM     31  C   UNL     1      10.330  15.619  18.344  0.00  0.00    +0.000 A 
ENDBRANCH  22  25
ENDBRANCH  18  19
ENDBRANCH  17  18
ENDBRANCH   1  17
TORSDOF 7
ENDMDL
MODEL 2
REMARK VINA RESULT:      -8.6      1.215      1.706
REMARK  Name = 
REMARK  7 active torsions:
REMARK  status: ('A' for Active; 'I' for Inactive)
REMARK    1  A    between atoms: S_2  and  N_4
REMARK    2  A    between atoms: S_2  and  C_21
REMARK    3  A    between atoms: N_4  and  C_5
REMARK    4  A    between atoms: C_5  and  C_6
REMARK    5  A    between atoms: C_6  and  C_7
REMARK    6  A    between atoms: C_7  and  N_8
REMARK    7  A    between atoms: N_11  and  C_12
REMARK                            x       y       z     vdW  Elec       q    Type
REMARK                         _______ _______ _______ _____ _____    ______ ____
ROOT
ATOM      1  C   UNL     1       7.172   7.932  17.429  0.00  0.00    +0.000 C 
ENDROOT
BRANCH   1   2
ATOM      2  N   UNL     1       7.468   6.593  16.902  0.00  0.00    +0.000 NA
ATOM      3  H   UNL     1       8.105   6.681  16.077  0.00  0.00    +0.000 HD
BRANCH   2   5
ATOM      4  O   UNL     1       5.412   6.671  15.240  0.00  0.00    +0.000 OA
ATOM      5  S   UNL     1       5.991   5.778  16.346  0.00  0.00    +0.000 S 
ATOM      6  O   UNL     1       6.506   4.576  15.539  0.00  0.00    +0.000 OA
BRANCH   5   7
ATOM      7  C   UNL     1       4.772   5.266  17.561  0.00  0.00    +0.000 A 
ATOM      8  C   UNL     1       4.848   5.750  18.872  0.00  0.00    +0.000 A 
ATOM      9  N   UNL     1       3.952   5.338  19.809  0.00  0.00    +0.000 NA
ATOM     10  C   UNL     1       2.968   4.448  19.512  0.00  0.00    +0.000 A 
ATOM     11  C   UNL     1       2.078   4.023  20.505  0.00  0.00    +0.000 A 
ATOM     12  C   UNL     1       1.075   3.096  20.197  0.00  0.00    +0.000 A 
ATOM     13  C   UNL     1       0.955   2.597  18.896  0.00  0.00    +0.000 A 
ATOM     14  C   UNL     1       1.835   3.020  17.896  0.00  0.00    +0.000 A 
ATOM     15  C   UNL     1       2.846   3.944  18.199  0.00  0.00    +0.000 A 
ATOM     16  C   UNL     1       3.753   4.370  17.224  0.00  0.00    +0.000 A 
ENDBRANCH   5   7
ENDBRANCH   2   5
ENDBRANCH   1   2
BRANCH   1  17
ATOM     17  C   UNL     1       8.385   8.432  18.224  0.00  0.00    +0.000 C 
BRANCH  17  18
ATOM     18  C   UNL     1       8.522   9.966  18.226  0.00  0.00    +0.000 C 
BRANCH  18  19
ATOM     19  N   UNL     1       9.858  10.445  18.683  0.00  0.00    +0.000 NA
ATOM     20  C   UNL     1      10.522  11.403  17.763  0.00  0.00    +0.000 C 
ATOM     21  C   UNL     1       9.789  12.756  17.724  0.00  0.00    +0.000 C 
ATOM     22  N   UNL     1       9.717  13.269  19.083  0.00  0.00    +0.000 N 
ATOM     23  C   UNL     1       9.111  12.389  20.074  0.00  0.00    +0.000 C 
ATOM     24  C   UNL     1       9.809  11.017  20.051  0.00  0.00    +0.000 C 
BRANCH  22  25
ATOM     25  C   UNL     1      10.225  14.571  19.418  0.00  0.00    +0.000 A 
ATOM     26  C   UNL     1      10.389  14.938  20.770  0.00  0.00    +0.000 A 
ATOM     27  C   UNL     1      10.904  16.189  21.114  0.00  0.00    +0.000 A 
ATOM     28  C   UNL     1      11.243  17.105  20.118  0.00  0.00    +0.000 A 
ATOM     29  C   UNL     1      11.075  16.765  18.773  0.00  0.00    +0.000 A 
ATOM     30 CL   UNL     1      11.483  17.929  17.525  0.00  0.00    +0.000 Cl
ATOM     31  C   UNL     1      10.581  15.502  18.422  0.00  0.00    +0.000 A 
ENDBRANCH  22  25
ENDBRANCH  18  19
ENDBRANCH  17  18
ENDBRANCH   1  17
TORSDOF 7
ENDMDL
MODEL 3
REMARK VINA RESULT:      -8.5      1.445      1.538
REMARK  Name = 
REMARK  7 active torsions:
REMARK  status: ('A' for Active; 'I' for Inactive)
REMARK    1  A    between atoms: S_2  and  N_4
REMARK    2  A    between atoms: S_2  and  C_21
REMARK    3  A    between atoms: N_4  and  C_5
REMARK    4  A    between atoms: C_5  and  C_6
REMARK    5  A    between atoms: C_6  and  C_7
REMARK    6  A    between atoms: C_7  and  N_8
REMARK    7  A    between atoms: N_11  and  C_12
REMARK                            x       y       z     vdW  Elec       q    Type
REMARK                         _______ _______ _______ _____ _____    ______ ____
ROOT
ATOM      1  C   UNL     1       7.897   7.897  17.771  0.00  0.00    +0.000 C 
ENDROOT
BRANCH   1   2
ATOM      2  N   UNL     1       7.816   6.632  18.515  0.00  0.00    +0.000 NA
ATOM      3  H   UNL     1       8.776   6.349  18.817  0.00  0.00    +0.000 HD
BRANCH   2   5
ATOM      4  O   UNL     1       7.394   5.779  16.048  0.00  0.00    +0.000 OA
ATOM      5  S   UNL     1       7.173   5.326  17.498  0.00  0.00    +0.000 S 
ATOM      6  O   UNL     1       8.210   4.200  17.634  0.00  0.00    +0.000 OA
BRANCH   5   7
ATOM      7  C   UNL     1       5.513   4.717  17.811  0.00  0.00    +0.000 A 
ATOM      8  C   UNL     1       4.838   3.993  16.822  0.00  0.00    +0.000 A 
ATOM      9  N   UNL     1       3.566   3.562  17.036  0.00  0.00    +0.000 NA
ATOM     10  C   UNL     1       2.910   3.821  18.199  0.00  0.00    +0.000 A 
ATOM     11  C   UNL     1       1.592   3.386  18.378  0.00  0.00    +0.000 A 
ATOM     12  C   UNL     1       0.918   3.667  19.572  0.00  0.00    +0.000 A 
ATOM     13  C   UNL     1       1.561   4.376  20.593  0.00  0.00    +0.000 A 
ATOM     14  C   UNL     1       2.880   4.809  20.426  0.00  0.00    +0.000 A 
ATOM     15  C   UNL     1       3.559   4.536  19.230  0.00  0.00    +0.000 A 
ATOM     16  C   UNL     1       4.871   4.974  19.026  0.00  0.00    +0.000 A 
ENDBRANCH   5   7
ENDBRANCH   2   5
ENDBRANCH   1   2
BRANCH   1  17
ATOM     17  C   UNL     1       8.679   8.916  18.608  0.00  0.00    +0.000 C 
BRANCH  17  18
ATOM     18  C   UNL     1       8.607  10.349  18.048  0.00  0.00    +0.000 C 
BRANCH  18  19
ATOM     19  N   UNL     1       9.840  11.149  18.292  0.00  0.00    +0.000 NA
ATOM     20  C   UNL     1       9.833  12.503  17.683  0.00  0.00    +0.000 C 
ATOM     21  C   UNL     1       8.814  13.431  18.367  0.00  0.00    +0.000 C 
ATOM     22  N   UNL     1       9.127  13.476  19.786  0.00  0.00    +0.000 N 
ATOM     23  C   UNL     1       9.193  12.193  20.475  0.00  0.00    +0.000 C 
ATOM     24  C   UNL     1      10.163  11.253  19.737  0.00  0.00    +0.000 C 
BRANCH  22  25
ATOM     25  C   UNL     1       9.364  14.723  20.460  0.00  0.00    +0.000 A 
ATOM     26  C   UNL     1      10.577  14.934  21.148  0.00  0.00    +0.000 A 
ATOM     27  C   UNL     1      10.836  16.148  21.786  0.00  0.00    +0.000 A 
ATOM     28  C   UNL     1       9.880  17.165  21.770  0.00  0.00    +0.000 A 
ATOM     29  C   UNL     1       8.667  16.971  21.105  0.00  0.00    +0.000 A 
ATOM     30 CL   UNL     1       7.462  18.245  21.105  0.00  0.00    +0.000 Cl
ATOM     31  C   UNL     1       8.413  15.763  20.441  0.00  0.00    +0.000 A 
ENDBRANCH  22  25
ENDBRANCH  18  19
ENDBRANCH  17  18
ENDBRANCH   1  17
TORSDOF 7
ENDMDL
MODEL 4
REMARK VINA RESULT:      -8.3      6.246      8.929
REMARK  Name = 
REMARK  7 active torsions:
REMARK  status: ('A' for Active; 'I' for Inactive)
REMARK    1  A    between atoms: S_2  and  N_4
REMARK    2  A    between atoms: S_2  and  C_21
REMARK    3  A    between atoms: N_4  and  C_5
REMARK    4  A    between atoms: C_5  and  C_6
REMARK    5  A    between atoms: C_6  and  C_7
REMARK    6  A    between atoms: C_7  and  N_8
REMARK    7  A    between atoms: N_11  and  C_12
REMARK                            x       y       z     vdW  Elec       q    Type
REMARK                         _______ _______ _______ _____ _____    ______ ____
ROOT
ATOM      1  C   UNL     1       1.607   4.883  20.844  0.00  0.00    +0.000 C 
ENDROOT
BRANCH   1   2
ATOM      2  N   UNL     1       0.930   4.030  19.857  0.00  0.00    +0.000 NA
ATOM      3  H   UNL     1       0.698   3.111  20.298  0.00  0.00    +0.000 HD
BRANCH   2   5
ATOM      4  O   UNL     1       1.873   2.189  18.209  0.00  0.00    +0.000 OA
ATOM      5  S   UNL     1       1.979   3.700  18.462  0.00  0.00    +0.000 S 
ATOM      6  O   UNL     1       1.203   4.272  17.266  0.00  0.00    +0.000 OA
BRANCH   5   7
ATOM      7  C   UNL     1       3.670   4.303  18.485  0.00  0.00    +0.000 A 
ATOM      8  C   UNL     1       4.634   3.648  19.260  0.00  0.00    +0.000 A 
ATOM      9  N   UNL     1       5.908   4.121  19.313  0.00  0.00    +0.000 NA
ATOM     10  C   UNL     1       6.285   5.236  18.633  0.00  0.00    +0.000 A 
ATOM     11  C   UNL     1       7.598   5.711  18.729  0.00  0.00    +0.000 A 
ATOM     12  C   UNL     1       7.976   6.867  18.037  0.00  0.00    +0.000 A 
ATOM     13  C   UNL     1       7.048   7.546  17.241  0.00  0.00    +0.000 A 
ATOM     14  C   UNL     1       5.737   7.074  17.132  0.00  0.00    +0.000 A 
ATOM     15  C   UNL     1       5.349   5.921  17.828  0.00  0.00    +0.000 A 
ATOM     16  C   UNL     1       4.038   5.437  17.754  0.00  0.00    +0.000 A 
ENDBRANCH   5   7
ENDBRANCH   2   5
ENDBRANCH   1   2
BRANCH   1  17
ATOM     17  C   UNL     1       1.651   6.321  20.313  0.00  0.00    +0.000 C 
BRANCH  17  18
ATOM     18  C   UNL     1       0.824   7.308  21.157  0.00  0.00    +0.000 C 
BRANCH  18  19
ATOM     19  N   UNL     1       1.422   8.671  21.239  0.00  0.00    +0.000 NA
ATOM     20  C   UNL     1       0.815   9.672  20.327  0.00  0.00    +0.000 C 
ATOM     21  C   UNL     1      -0.624  10.024  20.745  0.00  0.00    +0.000 C 
ATOM     22  N   UNL     1      -0.592  10.491  22.121  0.00  0.00    +0.000 N 
ATOM     23  C   UNL     1       0.017   9.594  23.095  0.00  0.00    +0.000 C 
ATOM     24  C   UNL     1       1.429   9.197  22.627  0.00  0.00    +0.000 C 
BRANCH  22  25
ATOM     25  C   UNL     1      -1.129  11.773  22.487  0.00  0.00    +0.000 A 
ATOM     26  C   UNL     1      -2.404  11.860  23.086  0.00  0.00    +0.000 A 
ATOM     27  C   UNL     1      -2.931  13.093  23.471  0.00  0.00    +0.000 A 
ATOM     28  C   UNL     1      -2.209  14.265  23.244  0.00  0.00    +0.000 A 
ATOM     29  C   UNL     1      -0.950  14.202  22.641  0.00  0.00    +0.000 A 
ATOM     30 CL   UNL     1      -0.055  15.681  22.340  0.00  0.00    +0.000 Cl
ATOM     31  C   UNL     1      -0.406  12.964  22.275  0.00  0.00    +0.000 A 
ENDBRANCH  22  25
ENDBRANCH  18  19
ENDBRANCH  17  18
ENDBRANCH   1  17
TORSDOF 7
ENDMDL
MODEL 5
REMARK VINA RESULT:      -8.2      1.172      1.269
REMARK  Name = 
REMARK  7 active torsions:
REMARK  status: ('A' for Active; 'I' for Inactive)
REMARK    1  A    between atoms: S_2  and  N_4
REMARK    2  A    between atoms: S_2  and  C_21
REMARK    3  A    between atoms: N_4  and  C_5
REMARK    4  A    between atoms: C_5  and  C_6
REMARK    5  A    between atoms: C_6  and  C_7
REMARK    6  A    between atoms: C_7  and  N_8
REMARK    7  A    between atoms: N_11  and  C_12
REMARK                            x       y       z     vdW  Elec       q    Type
REMARK                         _______ _______ _______ _____ _____    ______ ____
ROOT
ATOM      1  C   UNL     1       7.241   8.071  17.784  0.00  0.00    +0.000 C 
ENDROOT
BRANCH   1   2
ATOM      2  N   UNL     1       7.361   6.925  16.872  0.00  0.00    +0.000 NA
ATOM      3  H   UNL     1       6.602   6.976  16.155  0.00  0.00    +0.000 HD
BRANCH   2   5
ATOM      4  O   UNL     1       8.109   4.394  17.043  0.00  0.00    +0.000 OA
ATOM      5  S   UNL     1       7.168   5.387  17.740  0.00  0.00    +0.000 S 
ATOM      6  O   UNL     1       7.892   5.617  19.076  0.00  0.00    +0.000 OA
BRANCH   5   7
ATOM      7  C   UNL     1       5.514   4.740  18.004  0.00  0.00    +0.000 A 
ATOM      8  C   UNL     1       4.914   3.940  17.025  0.00  0.00    +0.000 A 
ATOM      9  N   UNL     1       3.647   3.477  17.199  0.00  0.00    +0.000 NA
ATOM     10  C   UNL     1       2.924   3.777  18.311  0.00  0.00    +0.000 A 
ATOM     11  C   UNL     1       1.613   3.307  18.448  0.00  0.00    +0.000 A 
ATOM     12  C   UNL     1       0.869   3.631  19.588  0.00  0.00    +0.000 A 
ATOM     13  C   UNL     1       1.434   4.418  20.597  0.00  0.00    +0.000 A 
ATOM     14  C   UNL     1       2.746   4.886  20.472  0.00  0.00    +0.000 A 
ATOM     15  C   UNL     1       3.495   4.571  19.330  0.00  0.00    +0.000 A 
ATOM     16  C   UNL     1       4.802   5.042  19.168  0.00  0.00    +0.000 A 
ENDBRANCH   5   7
ENDBRANCH   2   5
ENDBRANCH   1   2
BRANCH   1  17
ATOM     17  C   UNL     1       8.577   8.824  17.813  0.00  0.00    +0.000 C 
BRANCH  17  18
ATOM     18  C   UNL     1       8.718   9.768  19.021  0.00  0.00    +0.000 C 
BRANCH  18  19
ATOM     19  N   UNL     1       9.939  10.623  18.972  0.00  0.00    +0.000 NA
ATOM     20  C   UNL     1       9.975  11.590  17.847  0.00  0.00    +0.000 C 
ATOM     21  C   UNL     1       8.921  12.699  18.015  0.00  0.00    +0.000 C 
ATOM     22  N   UNL     1       9.149  13.347  19.296  0.00  0.00    +0.000 N 
ATOM     23  C   UNL     1       9.167  12.479  20.466  0.00  0.00    +0.000 C 
ATOM     24  C   UNL     1      10.175  11.335  20.252  0.00  0.00    +0.000 C 
BRANCH  22  25
ATOM     25  C   UNL     1       9.351  14.767  19.388  0.00  0.00    +0.000 A 
ATOM     26  C   UNL     1      10.605  15.324  19.061  0.00  0.00    +0.000 A 
ATOM     27  C   UNL     1      10.813  16.703  19.120  0.00  0.00    +0.000 A 
ATOM     28  C   UNL     1       9.782  17.550  19.530  0.00  0.00    +0.000 A 
ATOM     29  C   UNL     1       8.537  17.016  19.870  0.00  0.00    +0.000 A 
ATOM     30 CL   UNL     1       7.251  18.083  20.404  0.00  0.00    +0.000 Cl
ATOM     31  C   UNL     1       8.316  15.635  19.788  0.00  0.00    +0.000 A 
ENDBRANCH  22  25
ENDBRANCH  18  19
ENDBRANCH  17  18
ENDBRANCH   1  17
TORSDOF 7
ENDMDL
MODEL 6
REMARK VINA RESULT:      -8.1      1.405      1.635
REMARK  Name = 
REMARK  7 active torsions:
REMARK  status: ('A' for Active; 'I' for Inactive)
REMARK    1  A    between atoms: S_2  and  N_4
REMARK    2  A    between atoms: S_2  and  C_21
REMARK    3  A    between atoms: N_4  and  C_5
REMARK    4  A    between atoms: C_5  and  C_6
REMARK    5  A    between atoms: C_6  and  C_7
REMARK    6  A    between atoms: C_7  and  N_8
REMARK    7  A    between atoms: N_11  and  C_12
REMARK                            x       y       z     vdW  Elec       q    Type
REMARK                         _______ _______ _______ _____ _____    ______ ____
ROOT
ATOM      1  C   UNL     1       7.872   8.128  17.725  0.00  0.00    +0.000 C 
ENDROOT
BRANCH   1   2
ATOM      2  N   UNL     1       7.879   6.766  18.276  0.00  0.00    +0.000 NA
ATOM      3  H   UNL     1       8.862   6.410  18.300  0.00  0.00    +0.000 HD
BRANCH   2   5
ATOM      4  O   UNL     1       6.997   6.236  15.840  0.00  0.00    +0.000 OA
ATOM      5  S   UNL     1       6.938   5.655  17.260  0.00  0.00    +0.000 S 
ATOM      6  O   UNL     1       7.836   4.415  17.127  0.00  0.00    +0.000 OA
BRANCH   5   7
ATOM      7  C   UNL     1       5.279   5.200  17.775  0.00  0.00    +0.000 A 
ATOM      8  C   UNL     1       4.184   5.964  17.356  0.00  0.00    +0.000 A 
ATOM      9  N   UNL     1       2.928   5.649  17.773  0.00  0.00    +0.000 NA
ATOM     10  C   UNL     1       2.695   4.602  18.607  0.00  0.00    +0.000 A 
ATOM     11  C   UNL     1       1.394   4.321  19.040  0.00  0.00    +0.000 A 
ATOM     12  C   UNL     1       1.161   3.249  19.910  0.00  0.00    +0.000 A 
ATOM     13  C   UNL     1       2.225   2.452  20.344  0.00  0.00    +0.000 A 
ATOM     14  C   UNL     1       3.527   2.721  19.912  0.00  0.00    +0.000 A 
ATOM     15  C   UNL     1       3.769   3.796  19.045  0.00  0.00    +0.000 A 
ATOM     16  C   UNL     1       5.063   4.102  18.613  0.00  0.00    +0.000 A 
ENDBRANCH   5   7
ENDBRANCH   2   5
ENDBRANCH   1   2
BRANCH   1  17
ATOM     17  C   UNL     1       8.548   9.073  18.727  0.00  0.00    +0.000 C 
BRANCH  17  18
ATOM     18  C   UNL     1       9.029  10.391  18.094  0.00  0.00    +0.000 C 
BRANCH  18  19
ATOM     19  N   UNL     1      10.157  11.031  18.829  0.00  0.00    +0.000 NA
ATOM     20  C   UNL     1      11.066  11.845  17.984  0.00  0.00    +0.000 C 
ATOM     21  C   UNL     1      10.374  13.118  17.466  0.00  0.00    +0.000 C 
ATOM     22  N   UNL     1       9.886  13.864  18.615  0.00  0.00    +0.000 N 
ATOM     23  C   UNL     1       9.010  13.143  19.529  0.00  0.00    +0.000 C 
ATOM     24  C   UNL     1       9.689  11.838  19.982  0.00  0.00    +0.000 C 
BRANCH  22  25
ATOM     25  C   UNL     1      10.260  15.236  18.828  0.00  0.00    +0.000 A 
ATOM     26  C   UNL     1      11.439  15.745  18.244  0.00  0.00    +0.000 A 
ATOM     27  C   UNL     1      11.805  17.080  18.419  0.00  0.00    +0.000 A 
ATOM     28  C   UNL     1      11.016  17.926  19.199  0.00  0.00    +0.000 A 
ATOM     29  C   UNL     1       9.852  17.438  19.797  0.00  0.00    +0.000 A 
ATOM     30 CL   UNL     1       8.875  18.500  20.794  0.00  0.00    +0.000 Cl
ATOM     31  C   UNL     1       9.467  16.104  19.604  0.00  0.00    +0.000 A 
ENDBRANCH  22  25
ENDBRANCH  18  19
ENDBRANCH  17  18
ENDBRANCH   1  17
TORSDOF 7
ENDMDL
MODEL 7
REMARK VINA RESULT:      -8.1      1.473      1.774
REMARK  Name = 
REMARK  7 active torsions:
REMARK  status: ('A' for Active; 'I' for Inactive)
REMARK    1  A    between atoms: S_2  and  N_4
REMARK    2  A    between atoms: S_2  and  C_21
REMARK    3  A    between atoms: N_4  and  C_5
REMARK    4  A    between atoms: C_5  and  C_6
REMARK    5  A    between atoms: C_6  and  C_7
REMARK    6  A    between atoms: C_7  and  N_8
REMARK    7  A    between atoms: N_11  and  C_12
REMARK                            x       y       z     vdW  Elec       q    Type
REMARK                         _______ _______ _______ _____ _____    ______ ____
ROOT
ATOM      1  C   UNL     1       7.789   8.233  17.635  0.00  0.00    +0.000 C 
ENDROOT
BRANCH   1   2
ATOM      2  N   UNL     1       7.835   6.926  18.305  0.00  0.00    +0.000 NA
ATOM      3  H   UNL     1       8.825   6.591  18.336  0.00  0.00    +0.000 HD
BRANCH   2   5
ATOM      4  O   UNL     1       6.569   6.349  16.055  0.00  0.00    +0.000 OA
ATOM      5  S   UNL     1       6.891   5.713  17.415  0.00  0.00    +0.000 S 
ATOM      6  O   UNL     1       7.926   4.647  17.023  0.00  0.00    +0.000 OA
BRANCH   5   7
ATOM      7  C   UNL     1       5.464   4.967  18.210  0.00  0.00    +0.000 A 
ATOM      8  C   UNL     1       5.276   3.582  18.148  0.00  0.00    +0.000 A 
ATOM      9  N   UNL     1       4.178   3.013  18.714  0.00  0.00    +0.000 NA
ATOM     10  C   UNL     1       3.232   3.760  19.346  0.00  0.00    +0.000 A 
ATOM     11  C   UNL     1       2.101   3.147  19.895  0.00  0.00    +0.000 A 
ATOM     12  C   UNL     1       1.125   3.922  20.533  0.00  0.00    +0.000 A 
ATOM     13  C   UNL     1       1.280   5.309  20.629  0.00  0.00    +0.000 A 
ATOM     14  C   UNL     1       2.410   5.929  20.089  0.00  0.00    +0.000 A 
ATOM     15  C   UNL     1       3.389   5.159  19.444  0.00  0.00    +0.000 A 
ATOM     16  C   UNL     1       4.521   5.755  18.877  0.00  0.00    +0.000 A 
ENDBRANCH   5   7
ENDBRANCH   2   5
ENDBRANCH   1   2
BRANCH   1  17
ATOM     17  C   UNL     1       8.415   9.286  18.558  0.00  0.00    +0.000 C 
BRANCH  17  18
ATOM     18  C   UNL     1       9.372  10.247  17.826  0.00  0.00    +0.000 C 
BRANCH  18  19
ATOM     19  N   UNL     1      10.168  11.110  18.744  0.00  0.00    +0.000 NA
ATOM     20  C   UNL     1      11.256  11.877  18.087  0.00  0.00    +0.000 C 
ATOM     21  C   UNL     1      10.701  12.972  17.159  0.00  0.00    +0.000 C 
ATOM     22  N   UNL     1       9.831  13.830  17.945  0.00  0.00    +0.000 N 
ATOM     23  C   UNL     1       8.747  13.170  18.660  0.00  0.00    +0.000 C 
ATOM     24  C   UNL     1       9.311  12.032  19.530  0.00  0.00    +0.000 C 
BRANCH  22  25
ATOM     25  C   UNL     1      10.043  15.250  18.010  0.00  0.00    +0.000 A 
ATOM     26  C   UNL     1      11.022  15.856  17.194  0.00  0.00    +0.000 A 
ATOM     27  C   UNL     1      11.225  17.236  17.225  0.00  0.00    +0.000 A 
ATOM     28  C   UNL     1      10.473  18.035  18.087  0.00  0.00    +0.000 A 
ATOM     29  C   UNL     1       9.508  17.453  18.912  0.00  0.00    +0.000 A 
ATOM     30 CL   UNL     1       8.580  18.461  20.009  0.00  0.00    +0.000 Cl
ATOM     31  C   UNL     1       9.283  16.071  18.867  0.00  0.00    +0.000 A 
ENDBRANCH  22  25
ENDBRANCH  18  19
ENDBRANCH  17  18
ENDBRANCH   1  17
TORSDOF 7
ENDMDL
MODEL 8
REMARK VINA RESULT:      -8.1      4.667     10.672
REMARK  Name = 
REMARK  7 active torsions:
REMARK  status: ('A' for Active; 'I' for Inactive)
REMARK    1  A    between atoms: S_2  and  N_4
REMARK    2  A    between atoms: S_2  and  C_21
REMARK    3  A    between atoms: N_4  and  C_5
REMARK    4  A    between atoms: C_5  and  C_6
REMARK    5  A    between atoms: C_6  and  C_7
REMARK    6  A    between atoms: C_7  and  N_8
REMARK    7  A    between atoms: N_11  and  C_12
REMARK                            x       y       z     vdW  Elec       q    Type
REMARK                         _______ _______ _______ _____ _____    ______ ____
ROOT
ATOM      1  C   UNL     1       8.546  10.020  18.305  0.00  0.00    +0.000 C 
ENDROOT
BRANCH   1   2
ATOM      2  N   UNL     1       9.941  10.430  18.089  0.00  0.00    +0.000 NA
ATOM      3  H   UNL     1      10.578   9.689  18.460  0.00  0.00    +0.000 HD
BRANCH   2   5
ATOM      4  O   UNL     1      11.776  11.808  19.402  0.00  0.00    +0.000 OA
ATOM      5  S   UNL     1      10.313  11.934  18.957  0.00  0.00    +0.000 S 
ATOM      6  O   UNL     1      10.415  12.992  17.847  0.00  0.00    +0.000 OA
BRANCH   5   7
ATOM      7  C   UNL     1       9.211  12.476  20.267  0.00  0.00    +0.000 A 
ATOM      8  C   UNL     1       8.510  13.680  20.135  0.00  0.00    +0.000 A 
ATOM      9  N   UNL     1       7.704  14.118  21.139  0.00  0.00    +0.000 NA
ATOM     10  C   UNL     1       7.557  13.415  22.294  0.00  0.00    +0.000 A 
ATOM     11  C   UNL     1       6.740  13.906  23.319  0.00  0.00    +0.000 A 
ATOM     12  C   UNL     1       6.604  13.185  24.512  0.00  0.00    +0.000 A 
ATOM     13  C   UNL     1       7.277  11.970  24.680  0.00  0.00    +0.000 A 
ATOM     14  C   UNL     1       8.089  11.469  23.659  0.00  0.00    +0.000 A 
ATOM     15  C   UNL     1       8.235  12.189  22.465  0.00  0.00    +0.000 A 
ATOM     16  C   UNL     1       9.057  11.722  21.434  0.00  0.00    +0.000 A 
ENDBRANCH   5   7
ENDBRANCH   2   5
ENDBRANCH   1   2
BRANCH   1  17
ATOM     17  C   UNL     1       8.483   8.489  18.372  0.00  0.00    +0.000 C 
BRANCH  17  18
ATOM     18  C   UNL     1       7.399   7.883  17.461  0.00  0.00    +0.000 C 
BRANCH  18  19
ATOM     19  N   UNL     1       7.512   6.406  17.299  0.00  0.00    +0.000 NA
ATOM     20  C   UNL     1       7.444   5.635  18.566  0.00  0.00    +0.000 C 
ATOM     21  C   UNL     1       6.040   5.694  19.193  0.00  0.00    +0.000 C 
ATOM     22  N   UNL     1       5.086   5.208  18.210  0.00  0.00    +0.000 N 
ATOM     23  C   UNL     1       5.095   5.877  16.916  0.00  0.00    +0.000 C 
ATOM     24  C   UNL     1       6.520   5.871  16.334  0.00  0.00    +0.000 C 
BRANCH  22  25
ATOM     25  C   UNL     1       4.194   4.121  18.509  0.00  0.00    +0.000 A 
ATOM     26  C   UNL     1       3.952   3.121  17.544  0.00  0.00    +0.000 A 
ATOM     27  C   UNL     1       3.108   2.045  17.825  0.00  0.00    +0.000 A 
ATOM     28  C   UNL     1       2.472   1.960  19.064  0.00  0.00    +0.000 A 
ATOM     29  C   UNL     1       2.689   2.947  20.029  0.00  0.00    +0.000 A 
ATOM     30 CL   UNL     1       1.870   2.844  21.577  0.00  0.00    +0.000 Cl
ATOM     31  C   UNL     1       3.554   4.016  19.760  0.00  0.00    +0.000 A 
ENDBRANCH  22  25
ENDBRANCH  18  19
ENDBRANCH  17  18
ENDBRANCH   1  17
TORSDOF 7
ENDMDL
MODEL 9
REMARK VINA RESULT:      -8.0      1.798      2.048
REMARK  Name = 
REMARK  7 active torsions:
REMARK  status: ('A' for Active; 'I' for Inactive)
REMARK    1  A    between atoms: S_2  and  N_4
REMARK    2  A    between atoms: S_2  and  C_21
REMARK    3  A    between atoms: N_4  and  C_5
REMARK    4  A    between atoms: C_5  and  C_6
REMARK    5  A    between atoms: C_6  and  C_7
REMARK    6  A    between atoms: C_7  and  N_8
REMARK    7  A    between atoms: N_11  and  C_12
REMARK                            x       y       z     vdW  Elec       q    Type
REMARK                         _______ _______ _______ _____ _____    ______ ____
ROOT
ATOM      1  C   UNL     1       7.504   7.410  18.097  0.00  0.00    +0.000 C 
ENDROOT
BRANCH   1   2
ATOM      2  N   UNL     1       7.674   7.100  16.670  0.00  0.00    +0.000 NA
ATOM      3  H   UNL     1       7.205   7.840  16.100  0.00  0.00    +0.000 HD
BRANCH   2   5
ATOM      4  O   UNL     1       7.005   5.440  14.724  0.00  0.00    +0.000 OA
ATOM      5  S   UNL     1       6.918   5.549  16.253  0.00  0.00    +0.000 S 
ATOM      6  O   UNL     1       7.946   4.498  16.699  0.00  0.00    +0.000 OA
BRANCH   5   7
ATOM      7  C   UNL     1       5.286   5.175  16.904  0.00  0.00    +0.000 A 
ATOM      8  C   UNL     1       4.415   6.216  17.241  0.00  0.00    +0.000 A 
ATOM      9  N   UNL     1       3.192   5.943  17.770  0.00  0.00    +0.000 NA
ATOM     10  C   UNL     1       2.781   4.667  17.996  0.00  0.00    +0.000 A 
ATOM     11  C   UNL     1       1.527   4.420  18.566  0.00  0.00    +0.000 A 
ATOM     12  C   UNL     1       1.115   3.104  18.809  0.00  0.00    +0.000 A 
ATOM     13  C   UNL     1       1.950   2.033  18.475  0.00  0.00    +0.000 A 
ATOM     14  C   UNL     1       3.201   2.269  17.898  0.00  0.00    +0.000 A 
ATOM     15  C   UNL     1       3.623   3.585  17.658  0.00  0.00    +0.000 A 
ATOM     16  C   UNL     1       4.878   3.853  17.101  0.00  0.00    +0.000 A 
ENDBRANCH   5   7
ENDBRANCH   2   5
ENDBRANCH   1   2
BRANCH   1  17
ATOM     17  C   UNL     1       8.656   8.316  18.549  0.00  0.00    +0.000 C 
BRANCH  17  18
ATOM     18  C   UNL     1       8.460   9.793  18.157  0.00  0.00    +0.000 C 
BRANCH  18  19
ATOM     19  N   UNL     1       9.676  10.631  18.360  0.00  0.00    +0.000 NA
ATOM     20  C   UNL     1       9.615  11.975  17.733  0.00  0.00    +0.000 C 
ATOM     21  C   UNL     1       8.587  12.883  18.429  0.00  0.00    +0.000 C 
ATOM     22  N   UNL     1       8.932  12.957  19.839  0.00  0.00    +0.000 N 
ATOM     23  C   UNL     1       9.051  11.687  20.543  0.00  0.00    +0.000 C 
ATOM     24  C   UNL     1      10.030  10.765  19.795  0.00  0.00    +0.000 C 
BRANCH  22  25
ATOM     25  C   UNL     1       9.149  14.221  20.490  0.00  0.00    +0.000 A 
ATOM     26  C   UNL     1      10.287  14.410  21.303  0.00  0.00    +0.000 A 
ATOM     27  C   UNL     1      10.528  15.637  21.922  0.00  0.00    +0.000 A 
ATOM     28  C   UNL     1       9.627  16.691  21.761  0.00  0.00    +0.000 A 
ATOM     29  C   UNL     1       8.488  16.520  20.970  0.00  0.00    +0.000 A 
ATOM     30 CL   UNL     1       7.349  17.842  20.789  0.00  0.00    +0.000 Cl
ATOM     31  C   UNL     1       8.255  15.297  20.326  0.00  0.00    +0.000 A 
ENDBRANCH  22  25
ENDBRANCH  18  19
ENDBRANCH  17  18
ENDBRANCH   1  17
TORSDOF 7
ENDMDL
