MODEL 1
REMARK VINA RESULT:     -10.1      0.000      0.000
REMARK  Name = 
REMARK  7 active torsions:
REMARK  status: ('A' for Active; 'I' for Inactive)
REMARK    1  A    between atoms: C_1  and  C_2
REMARK    2  A    between atoms: C_7  and  O_8
REMARK    3  A    between atoms: O_8  and  C_9
REMARK    4  A    between atoms: N_20  and  C_21
REMARK    5  A    between atoms: C_21  and  C_22
REMARK    6  A    between atoms: N_24  and  C_25
REMARK    7  A    between atoms: C_25  and  C_26
REMARK                            x       y       z     vdW  Elec       q    Type
REMARK                         _______ _______ _______ _____ _____    ______ ____
ROOT
ATOM      1  C   UNL     1       2.722   6.755  18.186  0.00  0.00    +0.000 A 
ATOM      2  N   UNL     1       1.786   5.868  18.333  0.00  0.00    +0.000 NA
ATOM      3  C   UNL     1       2.159   4.517  18.153  0.00  0.00    +0.000 A 
ATOM      4  C   UNL     1       1.223   3.548  18.520  0.00  0.00    +0.000 A 
ATOM      5  C   UNL     1       1.568   2.199  18.534  0.00  0.00    +0.000 A 
ATOM      6  C   UNL     1       2.854   1.810  18.158  0.00  0.00    +0.000 A 
ATOM      7  C   UNL     1       3.800   2.763  17.761  0.00  0.00    +0.000 A 
ATOM      8  C   UNL     1       3.463   4.118  17.765  0.00  0.00    +0.000 A 
ATOM      9  N   UNL     1       4.379   5.141  17.458  0.00  0.00    +0.000 N 
ATOM     10  C   UNL     1       5.675   5.128  17.013  0.00  0.00    +0.000 A 
ATOM     11  O   UNL     1       6.398   4.176  16.743  0.00  0.00    +0.000 OA
ATOM     12  N   UNL     1       6.046   6.485  16.928  0.00  0.00    +0.000 N 
ATOM     13  N   UNL     1       5.015   7.293  17.350  0.00  0.00    +0.000 NA
ATOM     14  C   UNL     1       4.072   6.446  17.640  0.00  0.00    +0.000 A 
ENDROOT
BRANCH   1  15
ATOM     15  O   UNL     1       2.664   8.066  18.585  0.00  0.00    +0.000 OA
BRANCH  15  22
ATOM     16  C   UNL     1       1.596   8.253  21.495  0.00  0.00    +0.000 C 
ATOM     17  C   UNL     1       1.002   8.899  20.278  0.00  0.00    +0.000 A 
ATOM     18  C   UNL     1      -0.131   9.708  20.478  0.00  0.00    +0.000 A 
ATOM     19  C   UNL     1      -0.729  10.394  19.421  0.00  0.00    +0.000 A 
ATOM     20  C   UNL     1      -0.217  10.268  18.133  0.00  0.00    +0.000 A 
ATOM     21  C   UNL     1       0.881   9.441  17.903  0.00  0.00    +0.000 A 
ATOM     22  C   UNL     1       1.479   8.748  18.964  0.00  0.00    +0.000 A 
ENDBRANCH  15  22
ENDBRANCH   1  15
BRANCH  12  23
ATOM     23  C   UNL     1       7.373   7.015  16.675  0.00  0.00    +0.000 C 
BRANCH  23  24
ATOM     24  C   UNL     1       7.981   7.711  17.889  0.00  0.00    +0.000 C 
ATOM     25  O   UNL     1       8.289   7.093  18.904  0.00  0.00    +0.000 OA
ATOM     26  N   UNL     1       8.256   9.049  17.730  0.00  0.00    +0.000 N 
ATOM     27  H   UNL     1       7.958   9.513  16.878  0.00  0.00    +0.000 HD
BRANCH  26  28
ATOM     28  C   UNL     1       8.841   9.861  18.788  0.00  0.00    +0.000 C 
BRANCH  28  29
ATOM     29  C   UNL     1       9.470  11.077  18.158  0.00  0.00    +0.000 A 
ATOM     30  C   UNL     1      10.881  11.181  18.075  0.00  0.00    +0.000 A 
ATOM     31  C   UNL     1      11.496  12.420  17.880  0.00  0.00    +0.000 A 
ATOM     32  C   UNL     1      10.670  13.520  17.829  0.00  0.00    +0.000 A 
ATOM     33  C   UNL     1       9.296  13.405  17.804  0.00  0.00    +0.000 A 
ATOM     34  C   UNL     1       8.662  12.194  17.910  0.00  0.00    +0.000 A 
ATOM     35  O   UNL     1       8.680  14.619  17.882  0.00  0.00    +0.000 OA
ATOM     36  C   UNL     1       9.794  15.383  18.382  0.00  0.00    +0.000 C 
ATOM     37  O   UNL     1      11.059  14.821  17.967  0.00  0.00    +0.000 OA
ENDBRANCH  28  29
ENDBRANCH  26  28
ENDBRANCH  23  24
ENDBRANCH  12  23
TORSDOF 6
ENDMDL
MODEL 2
REMARK VINA RESULT:      -9.7      0.673      1.293
REMARK  Name = 
REMARK  7 active torsions:
REMARK  status: ('A' for Active; 'I' for Inactive)
REMARK    1  A    between atoms: C_1  and  C_2
REMARK    2  A    between atoms: C_7  and  O_8
REMARK    3  A    between atoms: O_8  and  C_9
REMARK    4  A    between atoms: N_20  and  C_21
REMARK    5  A    between atoms: C_21  and  C_22
REMARK    6  A    between atoms: N_24  and  C_25
REMARK    7  A    between atoms: C_25  and  C_26
REMARK                            x       y       z     vdW  Elec       q    Type
REMARK                         _______ _______ _______ _____ _____    ______ ____
ROOT
ATOM      1  C   UNL     1       2.686   6.434  19.049  0.00  0.00    +0.000 A 
ATOM      2  N   UNL     1       1.743   5.560  19.230  0.00  0.00    +0.000 NA
ATOM      3  C   UNL     1       1.998   4.249  18.770  0.00  0.00    +0.000 A 
ATOM      4  C   UNL     1       1.090   3.258  19.150  0.00  0.00    +0.000 A 
ATOM      5  C   UNL     1       1.354   1.917  18.884  0.00  0.00    +0.000 A 
ATOM      6  C   UNL     1       2.524   1.562  18.212  0.00  0.00    +0.000 A 
ATOM      7  C   UNL     1       3.434   2.541  17.798  0.00  0.00    +0.000 A 
ATOM      8  C   UNL     1       3.182   3.886  18.081  0.00  0.00    +0.000 A 
ATOM      9  N   UNL     1       4.084   4.921  17.772  0.00  0.00    +0.000 N 
ATOM     10  C   UNL     1       5.273   4.947  17.090  0.00  0.00    +0.000 A 
ATOM     11  O   UNL     1       5.877   4.034  16.540  0.00  0.00    +0.000 OA
ATOM     12  N   UNL     1       5.700   6.288  17.153  0.00  0.00    +0.000 N 
ATOM     13  N   UNL     1       4.813   7.043  17.887  0.00  0.00    +0.000 NA
ATOM     14  C   UNL     1       3.892   6.185  18.214  0.00  0.00    +0.000 A 
ENDROOT
BRANCH   1  15
ATOM     15  O   UNL     1       2.778   7.661  19.656  0.00  0.00    +0.000 OA
BRANCH  15  22
ATOM     16  C   UNL     1       1.584   9.817  17.767  0.00  0.00    +0.000 C 
ATOM     17  C   UNL     1       1.076   9.434  19.126  0.00  0.00    +0.000 A 
ATOM     18  C   UNL     1      -0.085  10.087  19.577  0.00  0.00    +0.000 A 
ATOM     19  C   UNL     1      -0.667   9.769  20.804  0.00  0.00    +0.000 A 
ATOM     20  C   UNL     1      -0.086   8.801  21.618  0.00  0.00    +0.000 A 
ATOM     21  C   UNL     1       1.087   8.168  21.211  0.00  0.00    +0.000 A 
ATOM     22  C   UNL     1       1.675   8.492  19.981  0.00  0.00    +0.000 A 
ENDBRANCH  15  22
ENDBRANCH   1  15
BRANCH  12  23
ATOM     23  C   UNL     1       6.986   6.818  16.739  0.00  0.00    +0.000 C 
BRANCH  23  24
ATOM     24  C   UNL     1       7.761   7.471  17.879  0.00  0.00    +0.000 C 
ATOM     25  O   UNL     1       8.180   6.821  18.833  0.00  0.00    +0.000 OA
ATOM     26  N   UNL     1       8.047   8.806  17.716  0.00  0.00    +0.000 N 
ATOM     27  H   UNL     1       7.654   9.296  16.919  0.00  0.00    +0.000 HD
BRANCH  26  28
ATOM     28  C   UNL     1       8.781   9.578  18.707  0.00  0.00    +0.000 C 
BRANCH  28  29
ATOM     29  C   UNL     1       9.240  10.861  18.063  0.00  0.00    +0.000 A 
ATOM     30  C   UNL     1      10.622  11.167  17.999  0.00  0.00    +0.000 A 
ATOM     31  C   UNL     1      11.055  12.479  17.789  0.00  0.00    +0.000 A 
ATOM     32  C   UNL     1      10.080  13.446  17.704  0.00  0.00    +0.000 A 
ATOM     33  C   UNL     1       8.737  13.133  17.660  0.00  0.00    +0.000 A 
ATOM     34  C   UNL     1       8.283  11.845  17.780  0.00  0.00    +0.000 A 
ATOM     35  O   UNL     1       7.952  14.247  17.703  0.00  0.00    +0.000 OA
ATOM     36  C   UNL     1       8.934  15.172  18.205  0.00  0.00    +0.000 C 
ATOM     37  O   UNL     1      10.274  14.792  17.821  0.00  0.00    +0.000 OA
ENDBRANCH  28  29
ENDBRANCH  26  28
ENDBRANCH  23  24
ENDBRANCH  12  23
TORSDOF 6
ENDMDL
MODEL 3
REMARK VINA RESULT:      -9.7      1.274      1.773
REMARK  Name = 
REMARK  7 active torsions:
REMARK  status: ('A' for Active; 'I' for Inactive)
REMARK    1  A    between atoms: C_1  and  C_2
REMARK    2  A    between atoms: C_7  and  O_8
REMARK    3  A    between atoms: O_8  and  C_9
REMARK    4  A    between atoms: N_20  and  C_21
REMARK    5  A    between atoms: C_21  and  C_22
REMARK    6  A    between atoms: N_24  and  C_25
REMARK    7  A    between atoms: C_25  and  C_26
REMARK                            x       y       z     vdW  Elec       q    Type
REMARK                         _______ _______ _______ _____ _____    ______ ____
ROOT
ATOM      1  C   UNL     1       2.314   6.857  19.230  0.00  0.00    +0.000 A 
ATOM      2  N   UNL     1       1.555   5.993  19.831  0.00  0.00    +0.000 NA
ATOM      3  C   UNL     1       2.110   4.715  20.063  0.00  0.00    +0.000 A 
ATOM      4  C   UNL     1       1.390   3.854  20.895  0.00  0.00    +0.000 A 
ATOM      5  C   UNL     1       1.942   2.645  21.310  0.00  0.00    +0.000 A 
ATOM      6  C   UNL     1       3.217   2.281  20.874  0.00  0.00    +0.000 A 
ATOM      7  C   UNL     1       3.944   3.116  20.019  0.00  0.00    +0.000 A 
ATOM      8  C   UNL     1       3.401   4.338  19.616  0.00  0.00    +0.000 A 
ATOM      9  N   UNL     1       4.099   5.269  18.825  0.00  0.00    +0.000 N 
ATOM     10  C   UNL     1       5.317   5.228  18.195  0.00  0.00    +0.000 A 
ATOM     11  O   UNL     1       6.140   4.323  18.148  0.00  0.00    +0.000 OA
ATOM     12  N   UNL     1       5.456   6.492  17.588  0.00  0.00    +0.000 N 
ATOM     13  N   UNL     1       4.371   7.289  17.879  0.00  0.00    +0.000 NA
ATOM     14  C   UNL     1       3.617   6.512  18.599  0.00  0.00    +0.000 A 
ENDROOT
BRANCH   1  15
ATOM     15  O   UNL     1       2.100   8.211  19.160  0.00  0.00    +0.000 OA
BRANCH  15  22
ATOM     16  C   UNL     1      -0.154  10.159  18.286  0.00  0.00    +0.000 C 
ATOM     17  C   UNL     1       0.223   9.796  19.692  0.00  0.00    +0.000 A 
ATOM     18  C   UNL     1      -0.550  10.361  20.722  0.00  0.00    +0.000 A 
ATOM     19  C   UNL     1      -0.316  10.049  22.061  0.00  0.00    +0.000 A 
ATOM     20  C   UNL     1       0.715   9.177  22.400  0.00  0.00    +0.000 A 
ATOM     21  C   UNL     1       1.519   8.634  21.401  0.00  0.00    +0.000 A 
ATOM     22  C   UNL     1       1.287   8.952  20.056  0.00  0.00    +0.000 A 
ENDBRANCH  15  22
ENDBRANCH   1  15
BRANCH  12  23
ATOM     23  C   UNL     1       6.641   7.028  16.945  0.00  0.00    +0.000 C 
BRANCH  23  24
ATOM     24  C   UNL     1       7.663   7.579  17.934  0.00  0.00    +0.000 C 
ATOM     25  O   UNL     1       8.260   6.851  18.722  0.00  0.00    +0.000 OA
ATOM     26  N   UNL     1       7.945   8.919  17.812  0.00  0.00    +0.000 N 
ATOM     27  H   UNL     1       7.403   9.477  17.159  0.00  0.00    +0.000 HD
BRANCH  26  28
ATOM     28  C   UNL     1       8.899   9.602  18.674  0.00  0.00    +0.000 C 
BRANCH  28  29
ATOM     29  C   UNL     1       9.278  10.907  18.021  0.00  0.00    +0.000 A 
ATOM     30  C   UNL     1      10.644  11.258  17.880  0.00  0.00    +0.000 A 
ATOM     31  C   UNL     1      11.022  12.585  17.663  0.00  0.00    +0.000 A 
ATOM     32  C   UNL     1      10.013  13.521  17.649  0.00  0.00    +0.000 A 
ATOM     33  C   UNL     1       8.681  13.166  17.680  0.00  0.00    +0.000 A 
ATOM     34  C   UNL     1       8.275  11.863  17.810  0.00  0.00    +0.000 A 
ATOM     35  O   UNL     1       7.865  14.253  17.786  0.00  0.00    +0.000 OA
ATOM     36  C   UNL     1       8.845  15.203  18.241  0.00  0.00    +0.000 C 
ATOM     37  O   UNL     1      10.172  14.871  17.773  0.00  0.00    +0.000 OA
ENDBRANCH  28  29
ENDBRANCH  26  28
ENDBRANCH  23  24
ENDBRANCH  12  23
TORSDOF 6
ENDMDL
MODEL 4
REMARK VINA RESULT:      -9.5      1.000      1.763
REMARK  Name = 
REMARK  7 active torsions:
REMARK  status: ('A' for Active; 'I' for Inactive)
REMARK    1  A    between atoms: C_1  and  C_2
REMARK    2  A    between atoms: C_7  and  O_8
REMARK    3  A    between atoms: O_8  and  C_9
REMARK    4  A    between atoms: N_20  and  C_21
REMARK    5  A    between atoms: C_21  and  C_22
REMARK    6  A    between atoms: N_24  and  C_25
REMARK    7  A    between atoms: C_25  and  C_26
REMARK                            x       y       z     vdW  Elec       q    Type
REMARK                         _______ _______ _______ _____ _____    ______ ____
ROOT
ATOM      1  C   UNL     1       2.501   6.467  19.290  0.00  0.00    +0.000 A 
ATOM      2  N   UNL     1       1.614   5.533  19.451  0.00  0.00    +0.000 NA
ATOM      3  C   UNL     1       1.882   4.292  18.832  0.00  0.00    +0.000 A 
ATOM      4  C   UNL     1       1.052   3.222  19.176  0.00  0.00    +0.000 A 
ATOM      5  C   UNL     1       1.347   1.931  18.745  0.00  0.00    +0.000 A 
ATOM      6  C   UNL     1       2.469   1.707  17.946  0.00  0.00    +0.000 A 
ATOM      7  C   UNL     1       3.298   2.769  17.569  0.00  0.00    +0.000 A 
ATOM      8  C   UNL     1       3.017   4.062  18.015  0.00  0.00    +0.000 A 
ATOM      9  N   UNL     1       3.845   5.167  17.748  0.00  0.00    +0.000 N 
ATOM     10  C   UNL     1       4.970   5.325  16.979  0.00  0.00    +0.000 A 
ATOM     11  O   UNL     1       5.561   4.506  16.286  0.00  0.00    +0.000 OA
ATOM     12  N   UNL     1       5.345   6.672  17.152  0.00  0.00    +0.000 N 
ATOM     13  N   UNL     1       4.493   7.300  18.033  0.00  0.00    +0.000 NA
ATOM     14  C   UNL     1       3.640   6.368  18.338  0.00  0.00    +0.000 A 
ENDROOT
BRANCH   1  15
ATOM     15  O   UNL     1       2.594   7.627  20.017  0.00  0.00    +0.000 OA
BRANCH  15  22
ATOM     16  C   UNL     1       1.636   9.576  17.797  0.00  0.00    +0.000 C 
ATOM     17  C   UNL     1       1.054   9.426  19.172  0.00  0.00    +0.000 A 
ATOM     18  C   UNL     1      -0.067  10.219  19.477  0.00  0.00    +0.000 A 
ATOM     19  C   UNL     1      -0.714  10.120  20.709  0.00  0.00    +0.000 A 
ATOM     20  C   UNL     1      -0.237   9.237  21.674  0.00  0.00    +0.000 A 
ATOM     21  C   UNL     1       0.895   8.469  21.411  0.00  0.00    +0.000 A 
ATOM     22  C   UNL     1       1.548   8.573  20.175  0.00  0.00    +0.000 A 
ENDBRANCH  15  22
ENDBRANCH   1  15
BRANCH  12  23
ATOM     23  C   UNL     1       6.567   7.306  16.695  0.00  0.00    +0.000 C 
BRANCH  23  24
ATOM     24  C   UNL     1       7.576   7.538  17.815  0.00  0.00    +0.000 C 
ATOM     25  O   UNL     1       7.980   6.622  18.525  0.00  0.00    +0.000 OA
ATOM     26  N   UNL     1       8.079   8.815  17.905  0.00  0.00    +0.000 N 
ATOM     27  H   UNL     1       7.692   9.538  17.307  0.00  0.00    +0.000 HD
BRANCH  26  28
ATOM     28  C   UNL     1       9.054   9.204  18.914  0.00  0.00    +0.000 C 
BRANCH  28  29
ATOM     29  C   UNL     1       9.310  10.684  18.779  0.00  0.00    +0.000 A 
ATOM     30  C   UNL     1       8.597  11.440  17.816  0.00  0.00    +0.000 A 
ATOM     31  C   UNL     1       9.072  12.682  17.387  0.00  0.00    +0.000 A 
ATOM     32  C   UNL     1      10.278  13.095  17.905  0.00  0.00    +0.000 A 
ATOM     33  C   UNL     1      10.916  12.409  18.917  0.00  0.00    +0.000 A 
ATOM     34  C   UNL     1      10.432  11.228  19.418  0.00  0.00    +0.000 A 
ATOM     35  O   UNL     1      12.151  12.923  19.184  0.00  0.00    +0.000 OA
ATOM     36  C   UNL     1      12.330  13.668  17.966  0.00  0.00    +0.000 C 
ATOM     37  O   UNL     1      11.068  14.089  17.402  0.00  0.00    +0.000 OA
ENDBRANCH  28  29
ENDBRANCH  26  28
ENDBRANCH  23  24
ENDBRANCH  12  23
TORSDOF 6
ENDMDL
MODEL 5
REMARK VINA RESULT:      -9.4      1.647      2.103
REMARK  Name = 
REMARK  7 active torsions:
REMARK  status: ('A' for Active; 'I' for Inactive)
REMARK    1  A    between atoms: C_1  and  C_2
REMARK    2  A    between atoms: C_7  and  O_8
REMARK    3  A    between atoms: O_8  and  C_9
REMARK    4  A    between atoms: N_20  and  C_21
REMARK    5  A    between atoms: C_21  and  C_22
REMARK    6  A    between atoms: N_24  and  C_25
REMARK    7  A    between atoms: C_25  and  C_26
REMARK                            x       y       z     vdW  Elec       q    Type
REMARK                         _______ _______ _______ _____ _____    ______ ____
ROOT
ATOM      1  C   UNL     1       2.215   6.883  19.753  0.00  0.00    +0.000 A 
ATOM      2  N   UNL     1       1.564   6.053  20.509  0.00  0.00    +0.000 NA
ATOM      3  C   UNL     1       1.911   4.688  20.396  0.00  0.00    +0.000 A 
ATOM      4  C   UNL     1       1.379   3.819  21.351  0.00  0.00    +0.000 A 
ATOM      5  C   UNL     1       1.800   2.494  21.416  0.00  0.00    +0.000 A 
ATOM      6  C   UNL     1       2.748   2.024  20.505  0.00  0.00    +0.000 A 
ATOM      7  C   UNL     1       3.274   2.871  19.524  0.00  0.00    +0.000 A 
ATOM      8  C   UNL     1       2.868   4.206  19.468  0.00  0.00    +0.000 A 
ATOM      9  N   UNL     1       3.409   5.140  18.566  0.00  0.00    +0.000 N 
ATOM     10  C   UNL     1       4.297   5.025  17.527  0.00  0.00    +0.000 A 
ATOM     11  O   UNL     1       4.863   4.031  17.092  0.00  0.00    +0.000 OA
ATOM     12  N   UNL     1       4.453   6.336  17.034  0.00  0.00    +0.000 N 
ATOM     13  N   UNL     1       3.711   7.224  17.781  0.00  0.00    +0.000 NA
ATOM     14  C   UNL     1       3.123   6.459  18.653  0.00  0.00    +0.000 A 
ENDROOT
BRANCH   1  15
ATOM     15  O   UNL     1       2.252   8.247  19.896  0.00  0.00    +0.000 OA
BRANCH  15  22
ATOM     16  C   UNL     1       0.778   9.219  22.450  0.00  0.00    +0.000 C 
ATOM     17  C   UNL     1       0.463   9.599  21.033  0.00  0.00    +0.000 A 
ATOM     18  C   UNL     1      -0.580  10.523  20.841  0.00  0.00    +0.000 A 
ATOM     19  C   UNL     1      -0.919  10.980  19.568  0.00  0.00    +0.000 A 
ATOM     20  C   UNL     1      -0.233  10.505  18.453  0.00  0.00    +0.000 A 
ATOM     21  C   UNL     1       0.778   9.560  18.614  0.00  0.00    +0.000 A 
ATOM     22  C   UNL     1       1.115   9.096  19.893  0.00  0.00    +0.000 A 
ENDBRANCH  15  22
ENDBRANCH   1  15
BRANCH  12  23
ATOM     23  C   UNL     1       5.417   6.792  16.050  0.00  0.00    +0.000 C 
BRANCH  23  24
ATOM     24  C   UNL     1       6.836   6.889  16.600  0.00  0.00    +0.000 C 
ATOM     25  O   UNL     1       7.743   6.174  16.184  0.00  0.00    +0.000 OA
ATOM     26  N   UNL     1       7.052   7.896  17.511  0.00  0.00    +0.000 N 
ATOM     27  H   UNL     1       6.259   8.441  17.836  0.00  0.00    +0.000 HD
BRANCH  26  28
ATOM     28  C   UNL     1       8.349   8.129  18.130  0.00  0.00    +0.000 C 
BRANCH  28  29
ATOM     29  C   UNL     1       8.470   9.601  18.434  0.00  0.00    +0.000 A 
ATOM     30  C   UNL     1       7.980  10.557  17.510  0.00  0.00    +0.000 A 
ATOM     31  C   UNL     1       8.420  11.882  17.552  0.00  0.00    +0.000 A 
ATOM     32  C   UNL     1       9.378  12.187  18.492  0.00  0.00    +0.000 A 
ATOM     33  C   UNL     1       9.774  11.284  19.456  0.00  0.00    +0.000 A 
ATOM     34  C   UNL     1       9.299   9.998  19.491  0.00  0.00    +0.000 A 
ATOM     35  O   UNL     1      10.819  11.752  20.196  0.00  0.00    +0.000 OA
ATOM     36  C   UNL     1      11.254  12.793  19.302  0.00  0.00    +0.000 C 
ATOM     37  O   UNL     1      10.164  13.303  18.502  0.00  0.00    +0.000 OA
ENDBRANCH  28  29
ENDBRANCH  26  28
ENDBRANCH  23  24
ENDBRANCH  12  23
TORSDOF 6
ENDMDL
MODEL 6
REMARK VINA RESULT:      -9.0      1.307      1.946
REMARK  Name = 
REMARK  7 active torsions:
REMARK  status: ('A' for Active; 'I' for Inactive)
REMARK    1  A    between atoms: C_1  and  C_2
REMARK    2  A    between atoms: C_7  and  O_8
REMARK    3  A    between atoms: O_8  and  C_9
REMARK    4  A    between atoms: N_20  and  C_21
REMARK    5  A    between atoms: C_21  and  C_22
REMARK    6  A    between atoms: N_24  and  C_25
REMARK    7  A    between atoms: C_25  and  C_26
REMARK                            x       y       z     vdW  Elec       q    Type
REMARK                         _______ _______ _______ _____ _____    ______ ____
ROOT
ATOM      1  C   UNL     1       2.621   6.514  18.290  0.00  0.00    +0.000 A 
ATOM      2  N   UNL     1       1.619   5.696  18.177  0.00  0.00    +0.000 NA
ATOM      3  C   UNL     1       1.906   4.320  18.318  0.00  0.00    +0.000 A 
ATOM      4  C   UNL     1       0.814   3.454  18.415  0.00  0.00    +0.000 A 
ATOM      5  C   UNL     1       1.004   2.109  18.723  0.00  0.00    +0.000 A 
ATOM      6  C   UNL     1       2.296   1.618  18.915  0.00  0.00    +0.000 A 
ATOM      7  C   UNL     1       3.404   2.464  18.796  0.00  0.00    +0.000 A 
ATOM      8  C   UNL     1       3.217   3.817  18.506  0.00  0.00    +0.000 A 
ATOM      9  N   UNL     1       4.272   4.747  18.449  0.00  0.00    +0.000 N 
ATOM     10  C   UNL     1       5.634   4.617  18.536  0.00  0.00    +0.000 A 
ATOM     11  O   UNL     1       6.313   3.608  18.679  0.00  0.00    +0.000 OA
ATOM     12  N   UNL     1       6.133   5.930  18.435  0.00  0.00    +0.000 N 
ATOM     13  N   UNL     1       5.099   6.833  18.331  0.00  0.00    +0.000 NA
ATOM     14  C   UNL     1       4.042   6.075  18.341  0.00  0.00    +0.000 A 
ENDROOT
BRANCH   1  15
ATOM     15  O   UNL     1       2.539   7.871  18.476  0.00  0.00    +0.000 OA
BRANCH  15  22
ATOM     16  C   UNL     1       0.493  10.108  17.805  0.00  0.00    +0.000 C 
ATOM     17  C   UNL     1       0.733   9.485  19.149  0.00  0.00    +0.000 A 
ATOM     18  C   UNL     1      -0.079   9.928  20.208  0.00  0.00    +0.000 A 
ATOM     19  C   UNL     1       0.029   9.378  21.485  0.00  0.00    +0.000 A 
ATOM     20  C   UNL     1       0.970   8.384  21.736  0.00  0.00    +0.000 A 
ATOM     21  C   UNL     1       1.813   7.956  20.713  0.00  0.00    +0.000 A 
ATOM     22  C   UNL     1       1.709   8.512  19.431  0.00  0.00    +0.000 A 
ENDBRANCH  15  22
ENDBRANCH   1  15
BRANCH  12  23
ATOM     23  C   UNL     1       7.502   6.365  18.643  0.00  0.00    +0.000 C 
BRANCH  23  24
ATOM     24  C   UNL     1       7.902   7.536  17.751  0.00  0.00    +0.000 C 
ATOM     25  O   UNL     1       7.867   7.458  16.526  0.00  0.00    +0.000 OA
ATOM     26  N   UNL     1       8.199   8.707  18.406  0.00  0.00    +0.000 N 
ATOM     27  H   UNL     1       8.234   8.706  19.421  0.00  0.00    +0.000 HD
BRANCH  26  28
ATOM     28  C   UNL     1       8.594   9.920  17.704  0.00  0.00    +0.000 C 
BRANCH  28  29
ATOM     29  C   UNL     1       9.560  10.679  18.578  0.00  0.00    +0.000 A 
ATOM     30  C   UNL     1       9.375  10.703  19.983  0.00  0.00    +0.000 A 
ATOM     31  C   UNL     1       9.979  11.689  20.767  0.00  0.00    +0.000 A 
ATOM     32  C   UNL     1      10.706  12.649  20.101  0.00  0.00    +0.000 A 
ATOM     33  C   UNL     1      10.972  12.564  18.751  0.00  0.00    +0.000 A 
ATOM     34  C   UNL     1      10.461  11.561  17.968  0.00  0.00    +0.000 A 
ATOM     35  O   UNL     1      11.596  13.682  18.281  0.00  0.00    +0.000 OA
ATOM     36  C   UNL     1      11.275  14.568  19.369  0.00  0.00    +0.000 C 
ATOM     37  O   UNL     1      11.102  13.852  20.612  0.00  0.00    +0.000 OA
ENDBRANCH  28  29
ENDBRANCH  26  28
ENDBRANCH  23  24
ENDBRANCH  12  23
TORSDOF 6
ENDMDL
MODEL 7
REMARK VINA RESULT:      -8.9      1.404      1.973
REMARK  Name = 
REMARK  7 active torsions:
REMARK  status: ('A' for Active; 'I' for Inactive)
REMARK    1  A    between atoms: C_1  and  C_2
REMARK    2  A    between atoms: C_7  and  O_8
REMARK    3  A    between atoms: O_8  and  C_9
REMARK    4  A    between atoms: N_20  and  C_21
REMARK    5  A    between atoms: C_21  and  C_22
REMARK    6  A    between atoms: N_24  and  C_25
REMARK    7  A    between atoms: C_25  and  C_26
REMARK                            x       y       z     vdW  Elec       q    Type
REMARK                         _______ _______ _______ _____ _____    ______ ____
ROOT
ATOM      1  C   UNL     1       2.313   6.714  18.921  0.00  0.00    +0.000 A 
ATOM      2  N   UNL     1       1.533   5.844  19.485  0.00  0.00    +0.000 NA
ATOM      3  C   UNL     1       2.115   4.604  19.835  0.00  0.00    +0.000 A 
ATOM      4  C   UNL     1       1.350   3.750  20.633  0.00  0.00    +0.000 A 
ATOM      5  C   UNL     1       1.906   2.588  21.161  0.00  0.00    +0.000 A 
ATOM      6  C   UNL     1       3.233   2.263  20.874  0.00  0.00    +0.000 A 
ATOM      7  C   UNL     1       4.008   3.092  20.055  0.00  0.00    +0.000 A 
ATOM      8  C   UNL     1       3.459   4.268  19.540  0.00  0.00    +0.000 A 
ATOM      9  N   UNL     1       4.196   5.193  18.777  0.00  0.00    +0.000 N 
ATOM     10  C   UNL     1       5.471   5.180  18.274  0.00  0.00    +0.000 A 
ATOM     11  O   UNL     1       6.332   4.313  18.355  0.00  0.00    +0.000 OA
ATOM     12  N   UNL     1       5.620   6.421  17.623  0.00  0.00    +0.000 N 
ATOM     13  N   UNL     1       4.479   7.178  17.763  0.00  0.00    +0.000 NA
ATOM     14  C   UNL     1       3.687   6.401  18.442  0.00  0.00    +0.000 A 
ENDROOT
BRANCH   1  15
ATOM     15  O   UNL     1       2.052   8.051  18.763  0.00  0.00    +0.000 OA
BRANCH  15  22
ATOM     16  C   UNL     1      -0.179  10.063  17.980  0.00  0.00    +0.000 C 
ATOM     17  C   UNL     1       0.280   9.729  19.368  0.00  0.00    +0.000 A 
ATOM     18  C   UNL     1      -0.395  10.358  20.429  0.00  0.00    +0.000 A 
ATOM     19  C   UNL     1      -0.080  10.079  21.759  0.00  0.00    +0.000 A 
ATOM     20  C   UNL     1       0.937   9.175  22.056  0.00  0.00    +0.000 A 
ATOM     21  C   UNL     1       1.647   8.569  21.023  0.00  0.00    +0.000 A 
ATOM     22  C   UNL     1       1.334   8.854  19.687  0.00  0.00    +0.000 A 
ENDBRANCH  15  22
ENDBRANCH   1  15
BRANCH  12  23
ATOM     23  C   UNL     1       6.841   6.981  17.075  0.00  0.00    +0.000 C 
BRANCH  23  24
ATOM     24  C   UNL     1       7.827   7.432  18.148  0.00  0.00    +0.000 C 
ATOM     25  O   UNL     1       8.326   6.641  18.943  0.00  0.00    +0.000 OA
ATOM     26  N   UNL     1       8.196   8.755  18.097  0.00  0.00    +0.000 N 
ATOM     27  H   UNL     1       7.733   9.368  17.433  0.00  0.00    +0.000 HD
BRANCH  26  28
ATOM     28  C   UNL     1       9.131   9.346  19.044  0.00  0.00    +0.000 C 
BRANCH  28  29
ATOM     29  C   UNL     1       9.007  10.846  18.959  0.00  0.00    +0.000 A 
ATOM     30  C   UNL     1       8.591  11.454  17.748  0.00  0.00    +0.000 A 
ATOM     31  C   UNL     1       8.844  12.805  17.503  0.00  0.00    +0.000 A 
ATOM     32  C   UNL     1       9.556  13.485  18.464  0.00  0.00    +0.000 A 
ATOM     33  C   UNL     1       9.867  12.922  19.684  0.00  0.00    +0.000 A 
ATOM     34  C   UNL     1       9.559  11.621  19.987  0.00  0.00    +0.000 A 
ATOM     35  O   UNL     1      10.682  13.725  20.426  0.00  0.00    +0.000 OA
ATOM     36  C   UNL     1      11.149  14.580  19.366  0.00  0.00    +0.000 C 
ATOM     37  O   UNL     1      10.180  14.689  18.299  0.00  0.00    +0.000 OA
ENDBRANCH  28  29
ENDBRANCH  26  28
ENDBRANCH  23  24
ENDBRANCH  12  23
TORSDOF 6
ENDMDL
MODEL 8
REMARK VINA RESULT:      -8.9      4.437      8.501
REMARK  Name = 
REMARK  7 active torsions:
REMARK  status: ('A' for Active; 'I' for Inactive)
REMARK    1  A    between atoms: C_1  and  C_2
REMARK    2  A    between atoms: C_7  and  O_8
REMARK    3  A    between atoms: O_8  and  C_9
REMARK    4  A    between atoms: N_20  and  C_21
REMARK    5  A    between atoms: C_21  and  C_22
REMARK    6  A    between atoms: N_24  and  C_25
REMARK    7  A    between atoms: C_25  and  C_26
REMARK                            x       y       z     vdW  Elec       q    Type
REMARK                         _______ _______ _______ _____ _____    ______ ____
ROOT
ATOM      1  C   UNL     1      -1.291  12.186  19.415  0.00  0.00    +0.000 A 
ATOM      2  N   UNL     1      -1.229  13.451  19.695  0.00  0.00    +0.000 NA
ATOM      3  C   UNL     1      -0.030  14.117  19.355  0.00  0.00    +0.000 A 
ATOM      4  C   UNL     1      -0.033  15.511  19.449  0.00  0.00    +0.000 A 
ATOM      5  C   UNL     1       1.046  16.254  18.976  0.00  0.00    +0.000 A 
ATOM      6  C   UNL     1       2.147  15.600  18.422  0.00  0.00    +0.000 A 
ATOM      7  C   UNL     1       2.181  14.204  18.343  0.00  0.00    +0.000 A 
ATOM      8  C   UNL     1       1.093  13.456  18.799  0.00  0.00    +0.000 A 
ATOM      9  N   UNL     1       1.015  12.056  18.681  0.00  0.00    +0.000 N 
ATOM     10  C   UNL     1       1.905  11.107  18.246  0.00  0.00    +0.000 A 
ATOM     11  O   UNL     1       3.053  11.242  17.842  0.00  0.00    +0.000 OA
ATOM     12  N   UNL     1       1.211   9.884  18.346  0.00  0.00    +0.000 N 
ATOM     13  N   UNL     1      -0.075  10.094  18.790  0.00  0.00    +0.000 NA
ATOM     14  C   UNL     1      -0.121  11.381  18.970  0.00  0.00    +0.000 A 
ENDROOT
BRANCH   1  15
ATOM     15  O   UNL     1      -2.428  11.418  19.387  0.00  0.00    +0.000 OA
BRANCH  15  22
ATOM     16  C   UNL     1      -2.723  10.733  16.373  0.00  0.00    +0.000 C 
ATOM     17  C   UNL     1      -3.765  11.350  17.259  0.00  0.00    +0.000 A 
ATOM     18  C   UNL     1      -5.019  11.608  16.678  0.00  0.00    +0.000 A 
ATOM     19  C   UNL     1      -6.072  12.134  17.427  0.00  0.00    +0.000 A 
ATOM     20  C   UNL     1      -5.884  12.434  18.774  0.00  0.00    +0.000 A 
ATOM     21  C   UNL     1      -4.639  12.224  19.362  0.00  0.00    +0.000 A 
ATOM     22  C   UNL     1      -3.580  11.701  18.608  0.00  0.00    +0.000 A 
ENDBRANCH  15  22
ENDBRANCH   1  15
BRANCH  12  23
ATOM     23  C   UNL     1       1.641   8.592  17.846  0.00  0.00    +0.000 C 
BRANCH  23  24
ATOM     24  C   UNL     1       2.258   7.707  18.925  0.00  0.00    +0.000 C 
ATOM     25  O   UNL     1       1.989   7.852  20.114  0.00  0.00    +0.000 OA
ATOM     26  N   UNL     1       3.047   6.678  18.470  0.00  0.00    +0.000 N 
ATOM     27  H   UNL     1       3.254   6.621  17.478  0.00  0.00    +0.000 HD
BRANCH  26  28
ATOM     28  C   UNL     1       3.708   5.739  19.366  0.00  0.00    +0.000 C 
BRANCH  28  29
ATOM     29  C   UNL     1       4.849   5.096  18.621  0.00  0.00    +0.000 A 
ATOM     30  C   UNL     1       6.183   5.308  19.049  0.00  0.00    +0.000 A 
ATOM     31  C   UNL     1       7.256   5.079  18.185  0.00  0.00    +0.000 A 
ATOM     32  C   UNL     1       6.945   4.695  16.901  0.00  0.00    +0.000 A 
ATOM     33  C   UNL     1       5.656   4.388  16.518  0.00  0.00    +0.000 A 
ATOM     34  C   UNL     1       4.590   4.524  17.368  0.00  0.00    +0.000 A 
ATOM     35  O   UNL     1       5.563   4.159  15.177  0.00  0.00    +0.000 OA
ATOM     36  C   UNL     1       6.799   4.776  14.775  0.00  0.00    +0.000 C 
ATOM     37  O   UNL     1       7.789   4.729  15.827  0.00  0.00    +0.000 OA
ENDBRANCH  28  29
ENDBRANCH  26  28
ENDBRANCH  23  24
ENDBRANCH  12  23
TORSDOF 6
ENDMDL
MODEL 9
REMARK VINA RESULT:      -8.8      1.411      1.608
REMARK  Name = 
REMARK  7 active torsions:
REMARK  status: ('A' for Active; 'I' for Inactive)
REMARK    1  A    between atoms: C_1  and  C_2
REMARK    2  A    between atoms: C_7  and  O_8
REMARK    3  A    between atoms: O_8  and  C_9
REMARK    4  A    between atoms: N_20  and  C_21
REMARK    5  A    between atoms: C_21  and  C_22
REMARK    6  A    between atoms: N_24  and  C_25
REMARK    7  A    between atoms: C_25  and  C_26
REMARK                            x       y       z     vdW  Elec       q    Type
REMARK                         _______ _______ _______ _____ _____    ______ ____
ROOT
ATOM      1  C   UNL     1       2.071   6.853  19.740  0.00  0.00    +0.000 A 
ATOM      2  N   UNL     1       1.293   5.928  20.213  0.00  0.00    +0.000 NA
ATOM      3  C   UNL     1       1.604   4.596  19.858  0.00  0.00    +0.000 A 
ATOM      4  C   UNL     1       0.914   3.584  20.531  0.00  0.00    +0.000 A 
ATOM      5  C   UNL     1       1.276   2.250  20.365  0.00  0.00    +0.000 A 
ATOM      6  C   UNL     1       2.323   1.919  19.504  0.00  0.00    +0.000 A 
ATOM      7  C   UNL     1       3.009   2.914  18.800  0.00  0.00    +0.000 A 
ATOM      8  C   UNL     1       2.663   4.255  18.979  0.00  0.00    +0.000 A 
ATOM      9  N   UNL     1       3.355   5.319  18.372  0.00  0.00    +0.000 N 
ATOM     10  C   UNL     1       4.374   5.364  17.455  0.00  0.00    +0.000 A 
ATOM     11  O   UNL     1       4.960   4.446  16.894  0.00  0.00    +0.000 OA
ATOM     12  N   UNL     1       4.643   6.736  17.276  0.00  0.00    +0.000 N 
ATOM     13  N   UNL     1       3.837   7.496  18.093  0.00  0.00    +0.000 NA
ATOM     14  C   UNL     1       3.107   6.607  18.701  0.00  0.00    +0.000 A 
ENDROOT
BRANCH   1  15
ATOM     15  O   UNL     1       2.137   8.153  20.173  0.00  0.00    +0.000 OA
BRANCH  15  22
ATOM     16  C   UNL     1       0.518   9.231  22.594  0.00  0.00    +0.000 C 
ATOM     17  C   UNL     1       0.370   9.645  21.160  0.00  0.00    +0.000 A 
ATOM     18  C   UNL     1      -0.569  10.655  20.885  0.00  0.00    +0.000 A 
ATOM     19  C   UNL     1      -0.749  11.148  19.592  0.00  0.00    +0.000 A 
ATOM     20  C   UNL     1      -0.005  10.622  18.540  0.00  0.00    +0.000 A 
ATOM     21  C   UNL     1       0.903   9.594  18.780  0.00  0.00    +0.000 A 
ATOM     22  C   UNL     1       1.080   9.095  20.078  0.00  0.00    +0.000 A 
ENDBRANCH  15  22
ENDBRANCH   1  15
BRANCH  12  23
ATOM     23  C   UNL     1       5.749   7.322  16.542  0.00  0.00    +0.000 C 
BRANCH  23  24
ATOM     24  C   UNL     1       7.060   7.307  17.321  0.00  0.00    +0.000 C 
ATOM     25  O   UNL     1       7.745   6.293  17.418  0.00  0.00    +0.000 OA
ATOM     26  N   UNL     1       7.472   8.522  17.815  0.00  0.00    +0.000 N 
ATOM     27  H   UNL     1       6.854   9.322  17.725  0.00  0.00    +0.000 HD
BRANCH  26  28
ATOM     28  C   UNL     1       8.702   8.684  18.577  0.00  0.00    +0.000 C 
BRANCH  28  29
ATOM     29  C   UNL     1       9.098  10.137  18.533  0.00  0.00    +0.000 A 
ATOM     30  C   UNL     1       9.840  10.701  19.601  0.00  0.00    +0.000 A 
ATOM     31  C   UNL     1       9.877  12.084  19.794  0.00  0.00    +0.000 A 
ATOM     32  C   UNL     1       9.121  12.849  18.935  0.00  0.00    +0.000 A 
ATOM     33  C   UNL     1       8.487  12.309  17.836  0.00  0.00    +0.000 A 
ATOM     34  C   UNL     1       8.501  10.964  17.572  0.00  0.00    +0.000 A 
ATOM     35  O   UNL     1       7.696  13.221  17.203  0.00  0.00    +0.000 OA
ATOM     36  C   UNL     1       7.598  14.184  18.269  0.00  0.00    +0.000 C 
ATOM     37  O   UNL     1       8.759  14.151  19.128  0.00  0.00    +0.000 OA
ENDBRANCH  28  29
ENDBRANCH  26  28
ENDBRANCH  23  24
ENDBRANCH  12  23
TORSDOF 6
ENDMDL
