MODEL 1
REMARK VINA RESULT:      -7.6      0.000      0.000
REMARK  Name = 
REMARK  10 active torsions:
REMARK  status: ('A' for Active; 'I' for Inactive)
REMARK    1  A    between atoms: C_1  and  C_2
REMARK    2  A    between atoms: C_5  and  C_6
REMARK    3  A    between atoms: C_6  and  O_7
REMARK    4  A    between atoms: C_6  and  C_13
REMARK    5  A    between atoms: O_7  and  C_8
REMARK    6  A    between atoms: C_8  and  C_9
REMARK    7  A    between atoms: C_9  and  N_10
REMARK    8  A    between atoms: N_10  and  C_11
REMARK    9  A    between atoms: N_10  and  C_12
REMARK   10  A    between atoms: C_17  and  C_18
REMARK                            x       y       z     vdW  Elec       q    Type
REMARK                         _______ _______ _______ _____ _____    ______ ____
ROOT
ATOM      1  C   UNL     1       3.074   5.555  19.073  0.00  0.00    +0.000 C 
ENDROOT
BRANCH   1   6
ATOM      2  C   UNL     1       0.819  10.927  18.780  0.00  0.00    +0.000 C 
ATOM      3  C   UNL     1       1.411   9.558  18.865  0.00  0.00    +0.000 A 
ATOM      4  C   UNL     1       1.320   8.813  20.045  0.00  0.00    +0.000 A 
ATOM      5  C   UNL     1       1.916   7.562  20.141  0.00  0.00    +0.000 A 
ATOM      6  C   UNL     1       2.525   6.974  19.026  0.00  0.00    +0.000 A 
ATOM      7  C   UNL     1       2.590   7.708  17.833  0.00  0.00    +0.000 A 
ATOM      8  C   UNL     1       2.046   8.990  17.759  0.00  0.00    +0.000 A 
ENDBRANCH   1   6
BRANCH   1   9
ATOM      9  C   UNL     1       4.469   5.444  18.461  0.00  0.00    +0.000 A 
ATOM     10  C   UNL     1       5.594   5.575  19.293  0.00  0.00    +0.000 A 
ATOM     11  C   UNL     1       6.885   5.428  18.788  0.00  0.00    +0.000 A 
ATOM     12  C   UNL     1       7.074   5.131  17.441  0.00  0.00    +0.000 A 
ATOM     13  C   UNL     1       5.974   4.982  16.584  0.00  0.00    +0.000 A 
ATOM     14  C   UNL     1       4.676   5.166  17.098  0.00  0.00    +0.000 A 
BRANCH  13  15
ATOM     15  C   UNL     1       6.174   4.583  15.141  0.00  0.00    +0.000 C 
ATOM     16  F   UNL     1       6.175   3.231  14.949  0.00  0.00    +0.000 F 
ATOM     17  F   UNL     1       5.192   5.063  14.328  0.00  0.00    +0.000 F 
ATOM     18  F   UNL     1       7.348   5.030  14.619  0.00  0.00    +0.000 F 
ENDBRANCH  13  15
ENDBRANCH   1   9
BRANCH   1  19
ATOM     19  O   UNL     1       3.069   4.998  20.395  0.00  0.00    +0.000 OA
BRANCH  19  20
ATOM     20  C   UNL     1       2.126   3.933  20.601  0.00  0.00    +0.000 C 
BRANCH  20  21
ATOM     21  C   UNL     1       2.657   2.506  20.349  0.00  0.00    +0.000 C 
BRANCH  21  22
ATOM     22  N   UNL     1       2.126   1.860  19.134  0.00  0.00    +0.000 NA
ATOM     23  C   UNL     1       0.872   2.485  18.709  0.00  0.00    +0.000 C 
ATOM     24  C   UNL     1       3.113   1.928  18.056  0.00  0.00    +0.000 C 
ENDBRANCH  21  22
ENDBRANCH  20  21
ENDBRANCH  19  20
ENDBRANCH   1  19
TORSDOF 7
ENDMDL
MODEL 2
REMARK VINA RESULT:      -7.6      1.802      2.385
REMARK  Name = 
REMARK  10 active torsions:
REMARK  status: ('A' for Active; 'I' for Inactive)
REMARK    1  A    between atoms: C_1  and  C_2
REMARK    2  A    between atoms: C_5  and  C_6
REMARK    3  A    between atoms: C_6  and  O_7
REMARK    4  A    between atoms: C_6  and  C_13
REMARK    5  A    between atoms: O_7  and  C_8
REMARK    6  A    between atoms: C_8  and  C_9
REMARK    7  A    between atoms: C_9  and  N_10
REMARK    8  A    between atoms: N_10  and  C_11
REMARK    9  A    between atoms: N_10  and  C_12
REMARK   10  A    between atoms: C_17  and  C_18
REMARK                            x       y       z     vdW  Elec       q    Type
REMARK                         _______ _______ _______ _____ _____    ______ ____
ROOT
ATOM      1  C   UNL     1       2.599   5.625  19.198  0.00  0.00    +0.000 C 
ENDROOT
BRANCH   1   6
ATOM      2  C   UNL     1       0.980  11.221  18.889  0.00  0.00    +0.000 C 
ATOM      3  C   UNL     1       1.410   9.793  18.978  0.00  0.00    +0.000 A 
ATOM      4  C   UNL     1       1.245   9.070  20.164  0.00  0.00    +0.000 A 
ATOM      5  C   UNL     1       1.692   7.759  20.263  0.00  0.00    +0.000 A 
ATOM      6  C   UNL     1       2.218   7.098  19.146  0.00  0.00    +0.000 A 
ATOM      7  C   UNL     1       2.356   7.812  17.948  0.00  0.00    +0.000 A 
ATOM      8  C   UNL     1       1.963   9.149  17.870  0.00  0.00    +0.000 A 
ENDBRANCH   1   6
BRANCH   1   9
ATOM      9  C   UNL     1       3.902   5.329  18.458  0.00  0.00    +0.000 A 
ATOM     10  C   UNL     1       3.846   4.905  17.119  0.00  0.00    +0.000 A 
ATOM     11  C   UNL     1       5.011   4.674  16.387  0.00  0.00    +0.000 A 
ATOM     12  C   UNL     1       6.255   4.879  16.979  0.00  0.00    +0.000 A 
ATOM     13  C   UNL     1       6.348   5.312  18.310  0.00  0.00    +0.000 A 
ATOM     14  C   UNL     1       5.165   5.510  19.048  0.00  0.00    +0.000 A 
BRANCH  13  15
ATOM     15  C   UNL     1       7.693   5.609  18.928  0.00  0.00    +0.000 C 
ATOM     16  F   UNL     1       8.214   6.809  18.538  0.00  0.00    +0.000 F 
ATOM     17  F   UNL     1       7.639   5.664  20.288  0.00  0.00    +0.000 F 
ATOM     18  F   UNL     1       8.639   4.680  18.624  0.00  0.00    +0.000 F 
ENDBRANCH  13  15
ENDBRANCH   1   9
BRANCH   1  19
ATOM     19  O   UNL     1       2.665   5.113  20.536  0.00  0.00    +0.000 OA
BRANCH  19  20
ATOM     20  C   UNL     1       1.704   4.087  20.840  0.00  0.00    +0.000 C 
BRANCH  20  21
ATOM     21  C   UNL     1       2.236   2.638  20.819  0.00  0.00    +0.000 C 
BRANCH  21  22
ATOM     22  N   UNL     1       1.917   1.886  19.591  0.00  0.00    +0.000 NA
ATOM     23  C   UNL     1       0.824   2.522  18.852  0.00  0.00    +0.000 C 
ATOM     24  C   UNL     1       3.104   1.781  18.742  0.00  0.00    +0.000 C 
ENDBRANCH  21  22
ENDBRANCH  20  21
ENDBRANCH  19  20
ENDBRANCH   1  19
TORSDOF 7
ENDMDL
MODEL 3
REMARK VINA RESULT:      -7.6      3.471      5.227
REMARK  Name = 
REMARK  10 active torsions:
REMARK  status: ('A' for Active; 'I' for Inactive)
REMARK    1  A    between atoms: C_1  and  C_2
REMARK    2  A    between atoms: C_5  and  C_6
REMARK    3  A    between atoms: C_6  and  O_7
REMARK    4  A    between atoms: C_6  and  C_13
REMARK    5  A    between atoms: O_7  and  C_8
REMARK    6  A    between atoms: C_8  and  C_9
REMARK    7  A    between atoms: C_9  and  N_10
REMARK    8  A    between atoms: N_10  and  C_11
REMARK    9  A    between atoms: N_10  and  C_12
REMARK   10  A    between atoms: C_17  and  C_18
REMARK                            x       y       z     vdW  Elec       q    Type
REMARK                         _______ _______ _______ _____ _____    ______ ____
ROOT
ATOM      1  C   UNL     1       3.079   6.927  18.567  0.00  0.00    +0.000 C 
ENDROOT
BRANCH   1   6
ATOM      2  C   UNL     1      -0.768  11.157  19.721  0.00  0.00    +0.000 C 
ATOM      3  C   UNL     1       0.231  10.084  19.433  0.00  0.00    +0.000 A 
ATOM      4  C   UNL     1       0.689   9.244  20.452  0.00  0.00    +0.000 A 
ATOM      5  C   UNL     1       1.657   8.280  20.196  0.00  0.00    +0.000 A 
ATOM      6  C   UNL     1       2.113   8.058  18.891  0.00  0.00    +0.000 A 
ATOM      7  C   UNL     1       1.632   8.880  17.862  0.00  0.00    +0.000 A 
ATOM      8  C   UNL     1       0.707   9.888  18.136  0.00  0.00    +0.000 A 
ENDBRANCH   1   6
BRANCH   1   9
ATOM      9  C   UNL     1       2.478   5.547  18.830  0.00  0.00    +0.000 A 
ATOM     10  C   UNL     1       1.866   4.854  17.772  0.00  0.00    +0.000 A 
ATOM     11  C   UNL     1       1.352   3.570  17.953  0.00  0.00    +0.000 A 
ATOM     12  C   UNL     1       1.455   2.950  19.195  0.00  0.00    +0.000 A 
ATOM     13  C   UNL     1       2.069   3.607  20.271  0.00  0.00    +0.000 A 
ATOM     14  C   UNL     1       2.555   4.916  20.085  0.00  0.00    +0.000 A 
BRANCH  13  15
ATOM     15  C   UNL     1       2.252   2.907  21.596  0.00  0.00    +0.000 C 
ATOM     16  F   UNL     1       2.369   3.765  22.651  0.00  0.00    +0.000 F 
ATOM     17  F   UNL     1       1.200   2.097  21.905  0.00  0.00    +0.000 F 
ATOM     18  F   UNL     1       3.360   2.118  21.637  0.00  0.00    +0.000 F 
ENDBRANCH  13  15
ENDBRANCH   1   9
BRANCH   1  19
ATOM     19  O   UNL     1       3.590   6.995  17.229  0.00  0.00    +0.000 OA
BRANCH  19  20
ATOM     20  C   UNL     1       4.961   6.591  17.082  0.00  0.00    +0.000 C 
BRANCH  20  21
ATOM     21  C   UNL     1       5.401   6.206  15.653  0.00  0.00    +0.000 C 
BRANCH  21  22
ATOM     22  N   UNL     1       6.707   5.525  15.576  0.00  0.00    +0.000 NA
ATOM     23  C   UNL     1       7.082   4.956  16.872  0.00  0.00    +0.000 C 
ATOM     24  C   UNL     1       6.668   4.475  14.558  0.00  0.00    +0.000 C 
ENDBRANCH  21  22
ENDBRANCH  20  21
ENDBRANCH  19  20
ENDBRANCH   1  19
TORSDOF 7
ENDMDL
MODEL 4
REMARK VINA RESULT:      -7.6      3.557      5.429
REMARK  Name = 
REMARK  10 active torsions:
REMARK  status: ('A' for Active; 'I' for Inactive)
REMARK    1  A    between atoms: C_1  and  C_2
REMARK    2  A    between atoms: C_5  and  C_6
REMARK    3  A    between atoms: C_6  and  O_7
REMARK    4  A    between atoms: C_6  and  C_13
REMARK    5  A    between atoms: O_7  and  C_8
REMARK    6  A    between atoms: C_8  and  C_9
REMARK    7  A    between atoms: C_9  and  N_10
REMARK    8  A    between atoms: N_10  and  C_11
REMARK    9  A    between atoms: N_10  and  C_12
REMARK   10  A    between atoms: C_17  and  C_18
REMARK                            x       y       z     vdW  Elec       q    Type
REMARK                         _______ _______ _______ _____ _____    ______ ____
ROOT
ATOM      1  C   UNL     1       3.188   6.655  18.472  0.00  0.00    +0.000 C 
ENDROOT
BRANCH   1   6
ATOM      2  C   UNL     1      -0.153  11.310  19.565  0.00  0.00    +0.000 C 
ATOM      3  C   UNL     1       0.688  10.109  19.276  0.00  0.00    +0.000 A 
ATOM      4  C   UNL     1       1.228   9.906  18.002  0.00  0.00    +0.000 A 
ATOM      5  C   UNL     1       1.967   8.764  17.719  0.00  0.00    +0.000 A 
ATOM      6  C   UNL     1       2.277   7.847  18.730  0.00  0.00    +0.000 A 
ATOM      7  C   UNL     1       1.762   8.065  20.016  0.00  0.00    +0.000 A 
ATOM      8  C   UNL     1       0.968   9.182  20.280  0.00  0.00    +0.000 A 
ENDBRANCH   1   6
BRANCH   1   9
ATOM      9  C   UNL     1       2.518   5.322  18.802  0.00  0.00    +0.000 A 
ATOM     10  C   UNL     1       1.916   4.584  17.768  0.00  0.00    +0.000 A 
ATOM     11  C   UNL     1       1.340   3.338  18.013  0.00  0.00    +0.000 A 
ATOM     12  C   UNL     1       1.370   2.799  19.296  0.00  0.00    +0.000 A 
ATOM     13  C   UNL     1       1.973   3.502  20.350  0.00  0.00    +0.000 A 
ATOM     14  C   UNL     1       2.521   4.775  20.097  0.00  0.00    +0.000 A 
BRANCH  13  15
ATOM     15  C   UNL     1       2.076   2.886  21.724  0.00  0.00    +0.000 C 
ATOM     16  F   UNL     1       3.051   1.936  21.820  0.00  0.00    +0.000 F 
ATOM     17  F   UNL     1       2.372   3.805  22.686  0.00  0.00    +0.000 F 
ATOM     18  F   UNL     1       0.927   2.276  22.126  0.00  0.00    +0.000 F 
ENDBRANCH  13  15
ENDBRANCH   1   9
BRANCH   1  19
ATOM     19  O   UNL     1       3.708   6.628  17.136  0.00  0.00    +0.000 OA
BRANCH  19  20
ATOM     20  C   UNL     1       5.100   6.967  17.020  0.00  0.00    +0.000 C 
BRANCH  20  21
ATOM     21  C   UNL     1       6.007   5.884  16.398  0.00  0.00    +0.000 C 
BRANCH  21  22
ATOM     22  N   UNL     1       7.381   5.854  16.933  0.00  0.00    +0.000 NA
ATOM     23  C   UNL     1       7.643   7.021  17.779  0.00  0.00    +0.000 C 
ATOM     24  C   UNL     1       7.599   4.623  17.693  0.00  0.00    +0.000 C 
ENDBRANCH  21  22
ENDBRANCH  20  21
ENDBRANCH  19  20
ENDBRANCH   1  19
TORSDOF 7
ENDMDL
MODEL 5
REMARK VINA RESULT:      -7.5      0.105      1.247
REMARK  Name = 
REMARK  10 active torsions:
REMARK  status: ('A' for Active; 'I' for Inactive)
REMARK    1  A    between atoms: C_1  and  C_2
REMARK    2  A    between atoms: C_5  and  C_6
REMARK    3  A    between atoms: C_6  and  O_7
REMARK    4  A    between atoms: C_6  and  C_13
REMARK    5  A    between atoms: O_7  and  C_8
REMARK    6  A    between atoms: C_8  and  C_9
REMARK    7  A    between atoms: C_9  and  N_10
REMARK    8  A    between atoms: N_10  and  C_11
REMARK    9  A    between atoms: N_10  and  C_12
REMARK   10  A    between atoms: C_17  and  C_18
REMARK                            x       y       z     vdW  Elec       q    Type
REMARK                         _______ _______ _______ _____ _____    ______ ____
ROOT
ATOM      1  C   UNL     1       3.094   5.526  19.093  0.00  0.00    +0.000 C 
ENDROOT
BRANCH   1   6
ATOM      2  C   UNL     1       0.957  10.946  18.818  0.00  0.00    +0.000 C 
ATOM      3  C   UNL     1       1.489   9.552  18.878  0.00  0.00    +0.000 A 
ATOM      4  C   UNL     1       2.119   8.980  17.768  0.00  0.00    +0.000 A 
ATOM      5  C   UNL     1       2.567   7.665  17.807  0.00  0.00    +0.000 A 
ATOM      6  C   UNL     1       2.497   6.923  18.992  0.00  0.00    +0.000 A 
ATOM      7  C   UNL     1       1.893   7.505  20.115  0.00  0.00    +0.000 A 
ATOM      8  C   UNL     1       1.387   8.804  20.052  0.00  0.00    +0.000 A 
ENDBRANCH   1   6
BRANCH   1   9
ATOM      9  C   UNL     1       4.489   5.437  18.479  0.00  0.00    +0.000 A 
ATOM     10  C   UNL     1       5.613   5.603  19.307  0.00  0.00    +0.000 A 
ATOM     11  C   UNL     1       6.906   5.478  18.801  0.00  0.00    +0.000 A 
ATOM     12  C   UNL     1       7.099   5.168  17.457  0.00  0.00    +0.000 A 
ATOM     13  C   UNL     1       6.001   4.984  16.604  0.00  0.00    +0.000 A 
ATOM     14  C   UNL     1       4.700   5.146  17.119  0.00  0.00    +0.000 A 
BRANCH  13  15
ATOM     15  C   UNL     1       6.207   4.571  15.166  0.00  0.00    +0.000 C 
ATOM     16  F   UNL     1       7.409   4.968  14.656  0.00  0.00    +0.000 F 
ATOM     17  F   UNL     1       6.174   3.218  15.004  0.00  0.00    +0.000 F 
ATOM     18  F   UNL     1       5.264   5.075  14.324  0.00  0.00    +0.000 F 
ENDBRANCH  13  15
ENDBRANCH   1   9
BRANCH   1  19
ATOM     19  O   UNL     1       3.113   5.023  20.436  0.00  0.00    +0.000 OA
BRANCH  19  20
ATOM     20  C   UNL     1       2.295   3.862  20.660  0.00  0.00    +0.000 C 
BRANCH  20  21
ATOM     21  C   UNL     1       2.906   2.513  20.224  0.00  0.00    +0.000 C 
BRANCH  21  22
ATOM     22  N   UNL     1       2.222   1.869  19.088  0.00  0.00    +0.000 NA
ATOM     23  C   UNL     1       0.912   2.477  18.846  0.00  0.00    +0.000 C 
ATOM     24  C   UNL     1       3.049   1.961  17.884  0.00  0.00    +0.000 C 
ENDBRANCH  21  22
ENDBRANCH  20  21
ENDBRANCH  19  20
ENDBRANCH   1  19
TORSDOF 7
ENDMDL
MODEL 6
REMARK VINA RESULT:      -7.5      3.336      5.165
REMARK  Name = 
REMARK  10 active torsions:
REMARK  status: ('A' for Active; 'I' for Inactive)
REMARK    1  A    between atoms: C_1  and  C_2
REMARK    2  A    between atoms: C_5  and  C_6
REMARK    3  A    between atoms: C_6  and  O_7
REMARK    4  A    between atoms: C_6  and  C_13
REMARK    5  A    between atoms: O_7  and  C_8
REMARK    6  A    between atoms: C_8  and  C_9
REMARK    7  A    between atoms: C_9  and  N_10
REMARK    8  A    between atoms: N_10  and  C_11
REMARK    9  A    between atoms: N_10  and  C_12
REMARK   10  A    between atoms: C_17  and  C_18
REMARK                            x       y       z     vdW  Elec       q    Type
REMARK                         _______ _______ _______ _____ _____    ______ ____
ROOT
ATOM      1  C   UNL     1       3.090   7.022  18.657  0.00  0.00    +0.000 C 
ENDROOT
BRANCH   1   6
ATOM      2  C   UNL     1      -0.698  11.332  19.704  0.00  0.00    +0.000 C 
ATOM      3  C   UNL     1       0.258  10.218  19.428  0.00  0.00    +0.000 A 
ATOM      4  C   UNL     1       0.768  10.018  18.141  0.00  0.00    +0.000 A 
ATOM      5  C   UNL     1       1.616   8.951  17.873  0.00  0.00    +0.000 A 
ATOM      6  C   UNL     1       2.064   8.119  18.906  0.00  0.00    +0.000 A 
ATOM      7  C   UNL     1       1.578   8.337  20.202  0.00  0.00    +0.000 A 
ATOM      8  C   UNL     1       0.676   9.372  20.455  0.00  0.00    +0.000 A 
ENDBRANCH   1   6
BRANCH   1   9
ATOM      9  C   UNL     1       2.514   5.622  18.863  0.00  0.00    +0.000 A 
ATOM     10  C   UNL     1       1.915   4.961  17.777  0.00  0.00    +0.000 A 
ATOM     11  C   UNL     1       1.424   3.662  17.906  0.00  0.00    +0.000 A 
ATOM     12  C   UNL     1       1.539   2.994  19.121  0.00  0.00    +0.000 A 
ATOM     13  C   UNL     1       2.141   3.618  20.224  0.00  0.00    +0.000 A 
ATOM     14  C   UNL     1       2.603   4.942  20.091  0.00  0.00    +0.000 A 
BRANCH  13  15
ATOM     15  C   UNL     1       2.336   2.868  21.519  0.00  0.00    +0.000 C 
ATOM     16  F   UNL     1       2.388   3.682  22.614  0.00  0.00    +0.000 F 
ATOM     17  F   UNL     1       1.323   1.991  21.769  0.00  0.00    +0.000 F 
ATOM     18  F   UNL     1       3.483   2.137  21.548  0.00  0.00    +0.000 F 
ENDBRANCH  13  15
ENDBRANCH   1   9
BRANCH   1  19
ATOM     19  O   UNL     1       3.706   7.116  17.365  0.00  0.00    +0.000 OA
BRANCH  19  20
ATOM     20  C   UNL     1       4.973   6.446  17.248  0.00  0.00    +0.000 C 
BRANCH  20  21
ATOM     21  C   UNL     1       5.268   5.799  15.877  0.00  0.00    +0.000 C 
BRANCH  21  22
ATOM     22  N   UNL     1       5.984   4.512  15.949  0.00  0.00    +0.000 NA
ATOM     23  C   UNL     1       6.411   4.071  14.620  0.00  0.00    +0.000 C 
ATOM     24  C   UNL     1       7.141   4.628  16.837  0.00  0.00    +0.000 C 
ENDBRANCH  21  22
ENDBRANCH  20  21
ENDBRANCH  19  20
ENDBRANCH   1  19
TORSDOF 7
ENDMDL
MODEL 7
REMARK VINA RESULT:      -7.4      3.578      5.318
REMARK  Name = 
REMARK  10 active torsions:
REMARK  status: ('A' for Active; 'I' for Inactive)
REMARK    1  A    between atoms: C_1  and  C_2
REMARK    2  A    between atoms: C_5  and  C_6
REMARK    3  A    between atoms: C_6  and  O_7
REMARK    4  A    between atoms: C_6  and  C_13
REMARK    5  A    between atoms: O_7  and  C_8
REMARK    6  A    between atoms: C_8  and  C_9
REMARK    7  A    between atoms: C_9  and  N_10
REMARK    8  A    between atoms: N_10  and  C_11
REMARK    9  A    between atoms: N_10  and  C_12
REMARK   10  A    between atoms: C_17  and  C_18
REMARK                            x       y       z     vdW  Elec       q    Type
REMARK                         _______ _______ _______ _____ _____    ______ ____
ROOT
ATOM      1  C   UNL     1       3.473   6.524  18.285  0.00  0.00    +0.000 C 
ENDROOT
BRANCH   1   6
ATOM      2  C   UNL     1      -0.232  10.841  19.573  0.00  0.00    +0.000 C 
ATOM      3  C   UNL     1       0.731   9.744  19.252  0.00  0.00    +0.000 A 
ATOM      4  C   UNL     1       1.102   8.813  20.227  0.00  0.00    +0.000 A 
ATOM      5  C   UNL     1       2.037   7.825  19.944  0.00  0.00    +0.000 A 
ATOM      6  C   UNL     1       2.544   7.674  18.648  0.00  0.00    +0.000 A 
ATOM      7  C   UNL     1       2.150   8.589  17.662  0.00  0.00    +0.000 A 
ATOM      8  C   UNL     1       1.259   9.618  17.967  0.00  0.00    +0.000 A 
ENDBRANCH   1   6
BRANCH   1   9
ATOM      9  C   UNL     1       2.874   5.158  18.614  0.00  0.00    +0.000 A 
ATOM     10  C   UNL     1       2.548   4.283  17.563  0.00  0.00    +0.000 A 
ATOM     11  C   UNL     1       2.048   3.006  17.818  0.00  0.00    +0.000 A 
ATOM     12  C   UNL     1       1.880   2.575  19.130  0.00  0.00    +0.000 A 
ATOM     13  C   UNL     1       2.205   3.417  20.204  0.00  0.00    +0.000 A 
ATOM     14  C   UNL     1       2.677   4.717  19.934  0.00  0.00    +0.000 A 
BRANCH  13  15
ATOM     15  C   UNL     1       2.098   2.924  21.627  0.00  0.00    +0.000 C 
ATOM     16  F   UNL     1       2.997   1.943  21.929  0.00  0.00    +0.000 F 
ATOM     17  F   UNL     1       2.322   3.912  22.538  0.00  0.00    +0.000 F 
ATOM     18  F   UNL     1       0.874   2.407  21.924  0.00  0.00    +0.000 F 
ENDBRANCH  13  15
ENDBRANCH   1   9
BRANCH   1  19
ATOM     19  O   UNL     1       3.898   6.560  16.916  0.00  0.00    +0.000 OA
BRANCH  19  20
ATOM     20  C   UNL     1       5.275   6.921  16.717  0.00  0.00    +0.000 C 
BRANCH  20  21
ATOM     21  C   UNL     1       6.304   5.787  16.916  0.00  0.00    +0.000 C 
BRANCH  21  22
ATOM     22  N   UNL     1       7.562   6.208  17.561  0.00  0.00    +0.000 NA
ATOM     23  C   UNL     1       7.681   7.667  17.582  0.00  0.00    +0.000 C 
ATOM     24  C   UNL     1       7.632   5.678  18.923  0.00  0.00    +0.000 C 
ENDBRANCH  21  22
ENDBRANCH  20  21
ENDBRANCH  19  20
ENDBRANCH   1  19
TORSDOF 7
ENDMDL
MODEL 8
REMARK VINA RESULT:      -7.4      3.515      5.313
REMARK  Name = 
REMARK  10 active torsions:
REMARK  status: ('A' for Active; 'I' for Inactive)
REMARK    1  A    between atoms: C_1  and  C_2
REMARK    2  A    between atoms: C_5  and  C_6
REMARK    3  A    between atoms: C_6  and  O_7
REMARK    4  A    between atoms: C_6  and  C_13
REMARK    5  A    between atoms: O_7  and  C_8
REMARK    6  A    between atoms: C_8  and  C_9
REMARK    7  A    between atoms: C_9  and  N_10
REMARK    8  A    between atoms: N_10  and  C_11
REMARK    9  A    between atoms: N_10  and  C_12
REMARK   10  A    between atoms: C_17  and  C_18
REMARK                            x       y       z     vdW  Elec       q    Type
REMARK                         _______ _______ _______ _____ _____    ______ ____
ROOT
ATOM      1  C   UNL     1       3.092   6.915  18.712  0.00  0.00    +0.000 C 
ENDROOT
BRANCH   1   6
ATOM      2  C   UNL     1      -0.827  11.195  19.306  0.00  0.00    +0.000 C 
ATOM      3  C   UNL     1       0.190  10.111  19.161  0.00  0.00    +0.000 A 
ATOM      4  C   UNL     1       0.609   9.372  20.272  0.00  0.00    +0.000 A 
ATOM      5  C   UNL     1       1.593   8.399  20.147  0.00  0.00    +0.000 A 
ATOM      6  C   UNL     1       2.106   8.062  18.889  0.00  0.00    +0.000 A 
ATOM      7  C   UNL     1       1.665   8.781  17.769  0.00  0.00    +0.000 A 
ATOM      8  C   UNL     1       0.723   9.801  17.909  0.00  0.00    +0.000 A 
ENDBRANCH   1   6
BRANCH   1   9
ATOM      9  C   UNL     1       2.454   5.549  18.953  0.00  0.00    +0.000 A 
ATOM     10  C   UNL     1       1.819   4.891  17.886  0.00  0.00    +0.000 A 
ATOM     11  C   UNL     1       1.269   3.620  18.047  0.00  0.00    +0.000 A 
ATOM     12  C   UNL     1       1.359   2.975  19.277  0.00  0.00    +0.000 A 
ATOM     13  C   UNL     1       1.995   3.596  20.362  0.00  0.00    +0.000 A 
ATOM     14  C   UNL     1       2.517   4.895  20.196  0.00  0.00    +0.000 A 
BRANCH  13  15
ATOM     15  C   UNL     1       2.162   2.868  21.674  0.00  0.00    +0.000 C 
ATOM     16  F   UNL     1       1.083   2.102  22.009  0.00  0.00    +0.000 F 
ATOM     17  F   UNL     1       3.223   2.012  21.662  0.00  0.00    +0.000 F 
ATOM     18  F   UNL     1       2.364   3.703  22.729  0.00  0.00    +0.000 F 
ENDBRANCH  13  15
ENDBRANCH   1   9
BRANCH   1  19
ATOM     19  O   UNL     1       3.747   6.935  17.436  0.00  0.00    +0.000 OA
BRANCH  19  20
ATOM     20  C   UNL     1       4.772   5.941  17.266  0.00  0.00    +0.000 C 
BRANCH  20  21
ATOM     21  C   UNL     1       5.758   6.182  16.104  0.00  0.00    +0.000 C 
BRANCH  21  22
ATOM     22  N   UNL     1       7.181   6.060  16.472  0.00  0.00    +0.000 NA
ATOM     23  C   UNL     1       7.559   7.073  17.460  0.00  0.00    +0.000 C 
ATOM     24  C   UNL     1       7.453   4.721  16.996  0.00  0.00    +0.000 C 
ENDBRANCH  21  22
ENDBRANCH  20  21
ENDBRANCH  19  20
ENDBRANCH   1  19
TORSDOF 7
ENDMDL
MODEL 9
REMARK VINA RESULT:      -7.3      1.011      1.832
REMARK  Name = 
REMARK  10 active torsions:
REMARK  status: ('A' for Active; 'I' for Inactive)
REMARK    1  A    between atoms: C_1  and  C_2
REMARK    2  A    between atoms: C_5  and  C_6
REMARK    3  A    between atoms: C_6  and  O_7
REMARK    4  A    between atoms: C_6  and  C_13
REMARK    5  A    between atoms: O_7  and  C_8
REMARK    6  A    between atoms: C_8  and  C_9
REMARK    7  A    between atoms: C_9  and  N_10
REMARK    8  A    between atoms: N_10  and  C_11
REMARK    9  A    between atoms: N_10  and  C_12
REMARK   10  A    between atoms: C_17  and  C_18
REMARK                            x       y       z     vdW  Elec       q    Type
REMARK                         _______ _______ _______ _____ _____    ______ ____
ROOT
ATOM      1  C   UNL     1       3.497   5.463  18.536  0.00  0.00    +0.000 C 
ENDROOT
BRANCH   1   6
ATOM      2  C   UNL     1       0.776  10.570  19.271  0.00  0.00    +0.000 C 
ATOM      3  C   UNL     1       1.458   9.256  19.073  0.00  0.00    +0.000 A 
ATOM      4  C   UNL     1       2.067   8.945  17.853  0.00  0.00    +0.000 A 
ATOM      5  C   UNL     1       2.656   7.703  17.651  0.00  0.00    +0.000 A 
ATOM      6  C   UNL     1       2.747   6.778  18.698  0.00  0.00    +0.000 A 
ATOM      7  C   UNL     1       2.163   7.100  19.931  0.00  0.00    +0.000 A 
ATOM      8  C   UNL     1       1.517   8.324  20.110  0.00  0.00    +0.000 A 
ENDBRANCH   1   6
BRANCH   1   9
ATOM      9  C   UNL     1       4.740   5.599  17.659  0.00  0.00    +0.000 A 
ATOM     10  C   UNL     1       5.867   6.265  18.169  0.00  0.00    +0.000 A 
ATOM     11  C   UNL     1       7.042   6.367  17.424  0.00  0.00    +0.000 A 
ATOM     12  C   UNL     1       7.116   5.788  16.161  0.00  0.00    +0.000 A 
ATOM     13  C   UNL     1       6.014   5.105  15.625  0.00  0.00    +0.000 A 
ATOM     14  C   UNL     1       4.822   5.039  16.372  0.00  0.00    +0.000 A 
BRANCH  13  15
ATOM     15  C   UNL     1       6.117   4.411  14.288  0.00  0.00    +0.000 C 
ATOM     16  F   UNL     1       4.965   4.466  13.559  0.00  0.00    +0.000 F 
ATOM     17  F   UNL     1       7.076   4.959  13.490  0.00  0.00    +0.000 F 
ATOM     18  F   UNL     1       6.424   3.089  14.393  0.00  0.00    +0.000 F 
ENDBRANCH  13  15
ENDBRANCH   1   9
BRANCH   1  19
ATOM     19  O   UNL     1       3.841   4.858  19.790  0.00  0.00    +0.000 OA
BRANCH  19  20
ATOM     20  C   UNL     1       4.034   3.435  19.744  0.00  0.00    +0.000 C 
BRANCH  20  21
ATOM     21  C   UNL     1       2.802   2.601  19.333  0.00  0.00    +0.000 C 
BRANCH  21  22
ATOM     22  N   UNL     1       1.745   2.523  20.359  0.00  0.00    +0.000 NA
ATOM     23  C   UNL     1       2.310   2.613  21.707  0.00  0.00    +0.000 C 
ATOM     24  C   UNL     1       0.764   3.588  20.153  0.00  0.00    +0.000 C 
ENDBRANCH  21  22
ENDBRANCH  20  21
ENDBRANCH  19  20
ENDBRANCH   1  19
TORSDOF 7
ENDMDL
