MODEL 1
REMARK VINA RESULT:      -8.1      0.000      0.000
REMARK  Name = 
REMARK  6 active torsions:
REMARK  status: ('A' for Active; 'I' for Inactive)
REMARK    1  A    between atoms: C_1  and  N_2
REMARK    2  A    between atoms: C_3  and  C_5
REMARK    3  A    between atoms: C_9  and  N_10
REMARK    4  A    between atoms: C_18  and  O_19
REMARK    5  A    between atoms: O_19  and  C_20
REMARK    6  A    between atoms: C_25  and  C_26
REMARK                            x       y       z     vdW  Elec       q    Type
REMARK                         _______ _______ _______ _____ _____    ______ ____
ROOT
ATOM      1  N   UNL     1       4.233  14.168  17.898  0.00  0.00    +0.000 N 
ATOM      2  C   UNL     1       3.257  13.712  18.791  0.00  0.00    +0.000 A 
ATOM      3  N   UNL     1       3.127  14.246  20.001  0.00  0.00    +0.000 NA
ATOM      4  C   UNL     1       2.205  13.691  20.771  0.00  0.00    +0.000 A 
ATOM      5  N   UNL     1       1.444  12.660  20.447  0.00  0.00    +0.000 NA
ATOM      6  C   UNL     1       1.654  12.170  19.230  0.00  0.00    +0.000 A 
ATOM      7  N   UNL     1       0.939  11.025  18.844  0.00  0.00    +0.000 N 
ATOM      8  C   UNL     1       0.426  10.054  19.764  0.00  0.00    +0.000 C 
ATOM      9  C   UNL     1       1.097   8.946  18.943  0.00  0.00    +0.000 C 
ATOM     10  C   UNL     1       1.459  10.050  17.936  0.00  0.00    +0.000 C 
ATOM     11  N   UNL     1       2.529  12.687  18.364  0.00  0.00    +0.000 NA
ATOM     12  H   UNL     1       4.235  13.569  17.083  0.00  0.00    +0.000 HD
ENDROOT
BRANCH   1  17
ATOM     13  C   UNL     1       7.824  15.188  18.110  0.00  0.00    +0.000 A 
ATOM     14  C   UNL     1       7.691  16.517  18.516  0.00  0.00    +0.000 A 
ATOM     15  C   UNL     1       6.422  17.046  18.742  0.00  0.00    +0.000 A 
ATOM     16  C   UNL     1       5.287  16.251  18.550  0.00  0.00    +0.000 A 
ATOM     17  C   UNL     1       5.397  14.917  18.127  0.00  0.00    +0.000 A 
ATOM     18  C   UNL     1       6.682  14.394  17.952  0.00  0.00    +0.000 A 
BRANCH  13  21
ATOM     19  C   UNL     1      11.460  15.041  17.075  0.00  0.00    +0.000 C 
ATOM     20  N   UNL     1      10.124  15.492  17.372  0.00  0.00    +0.000 N 
ATOM     21  C   UNL     1       9.181  14.626  17.885  0.00  0.00    +0.000 C 
ATOM     22  O   UNL     1       9.421  13.458  18.169  0.00  0.00    +0.000 OA
ATOM     23  H   UNL     1       9.916  16.476  17.283  0.00  0.00    +0.000 HD
ENDBRANCH  13  21
ENDBRANCH   1  17
BRANCH   9  24
ATOM     24  O   UNL     1       2.186   8.260  19.611  0.00  0.00    +0.000 OA
BRANCH  24  25
ATOM     25  C   UNL     1       2.324   6.905  19.434  0.00  0.00    +0.000 A 
ATOM     26  C   UNL     1       2.833   6.505  18.201  0.00  0.00    +0.000 A 
ATOM     27  C   UNL     1       2.996   5.148  17.917  0.00  0.00    +0.000 A 
ATOM     28  C   UNL     1       2.640   4.182  18.863  0.00  0.00    +0.000 A 
ATOM     29 CL   UNL     1       2.862   2.525  18.432  0.00  0.00    +0.000 Cl
ATOM     30  C   UNL     1       2.122   4.568  20.108  0.00  0.00    +0.000 A 
ATOM     31  C   UNL     1       1.696   3.608  21.181  0.00  0.00    +0.000 C 
ATOM     32  C   UNL     1       1.983   5.940  20.383  0.00  0.00    +0.000 A 
ENDBRANCH  24  25
ENDBRANCH   9  24
TORSDOF 4
ENDMDL
MODEL 2
REMARK VINA RESULT:      -8.0      0.455      1.243
REMARK  Name = 
REMARK  6 active torsions:
REMARK  status: ('A' for Active; 'I' for Inactive)
REMARK    1  A    between atoms: C_1  and  N_2
REMARK    2  A    between atoms: C_3  and  C_5
REMARK    3  A    between atoms: C_9  and  N_10
REMARK    4  A    between atoms: C_18  and  O_19
REMARK    5  A    between atoms: O_19  and  C_20
REMARK    6  A    between atoms: C_25  and  C_26
REMARK                            x       y       z     vdW  Elec       q    Type
REMARK                         _______ _______ _______ _____ _____    ______ ____
ROOT
ATOM      1  N   UNL     1       4.071  14.205  17.901  0.00  0.00    +0.000 N 
ATOM      2  C   UNL     1       3.113  13.698  18.784  0.00  0.00    +0.000 A 
ATOM      3  N   UNL     1       2.965  14.204  20.004  0.00  0.00    +0.000 NA
ATOM      4  C   UNL     1       2.064  13.602  20.764  0.00  0.00    +0.000 A 
ATOM      5  N   UNL     1       1.340  12.551  20.421  0.00  0.00    +0.000 NA
ATOM      6  C   UNL     1       1.566  12.093  19.194  0.00  0.00    +0.000 A 
ATOM      7  N   UNL     1       0.891  10.930  18.786  0.00  0.00    +0.000 N 
ATOM      8  C   UNL     1       0.414   9.924  19.688  0.00  0.00    +0.000 C 
ATOM      9  C   UNL     1       1.122   8.857  18.846  0.00  0.00    +0.000 C 
ATOM     10  C   UNL     1       1.445   9.992  17.861  0.00  0.00    +0.000 C 
ATOM     11  N   UNL     1       2.421  12.656  18.338  0.00  0.00    +0.000 NA
ATOM     12  H   UNL     1       4.094  13.623  17.074  0.00  0.00    +0.000 HD
ENDROOT
BRANCH   1  17
ATOM     13  C   UNL     1       7.623  15.352  18.120  0.00  0.00    +0.000 A 
ATOM     14  C   UNL     1       7.444  16.663  18.564  0.00  0.00    +0.000 A 
ATOM     15  C   UNL     1       6.157  17.138  18.810  0.00  0.00    +0.000 A 
ATOM     16  C   UNL     1       5.051  16.308  18.603  0.00  0.00    +0.000 A 
ATOM     17  C   UNL     1       5.208  14.990  18.144  0.00  0.00    +0.000 A 
ATOM     18  C   UNL     1       6.510  14.520  17.947  0.00  0.00    +0.000 A 
BRANCH  13  21
ATOM     19  C   UNL     1      11.223  15.333  16.958  0.00  0.00    +0.000 C 
ATOM     20  N   UNL     1       9.878  15.732  17.283  0.00  0.00    +0.000 N 
ATOM     21  C   UNL     1       8.999  14.847  17.872  0.00  0.00    +0.000 C 
ATOM     22  O   UNL     1       9.308  13.708  18.204  0.00  0.00    +0.000 OA
ATOM     23  H   UNL     1       9.616  16.698  17.153  0.00  0.00    +0.000 HD
ENDBRANCH  13  21
ENDBRANCH   1  17
BRANCH   9  24
ATOM     24  O   UNL     1       2.236   8.197  19.501  0.00  0.00    +0.000 OA
BRANCH  24  25
ATOM     25  C   UNL     1       2.330   6.829  19.431  0.00  0.00    +0.000 A 
ATOM     26  C   UNL     1       1.808   6.131  20.518  0.00  0.00    +0.000 A 
ATOM     27  C   UNL     1       1.870   4.737  20.551  0.00  0.00    +0.000 A 
ATOM     28  C   UNL     1       2.465   4.033  19.500  0.00  0.00    +0.000 A 
ATOM     29 CL   UNL     1       2.511   2.311  19.620  0.00  0.00    +0.000 Cl
ATOM     30  C   UNL     1       2.999   4.720  18.401  0.00  0.00    +0.000 A 
ATOM     31  C   UNL     1       3.673   4.056  17.233  0.00  0.00    +0.000 C 
ATOM     32  C   UNL     1       2.911   6.124  18.376  0.00  0.00    +0.000 A 
ENDBRANCH  24  25
ENDBRANCH   9  24
TORSDOF 4
ENDMDL
MODEL 3
REMARK VINA RESULT:      -7.9      0.981      1.676
REMARK  Name = 
REMARK  6 active torsions:
REMARK  status: ('A' for Active; 'I' for Inactive)
REMARK    1  A    between atoms: C_1  and  N_2
REMARK    2  A    between atoms: C_3  and  C_5
REMARK    3  A    between atoms: C_9  and  N_10
REMARK    4  A    between atoms: C_18  and  O_19
REMARK    5  A    between atoms: O_19  and  C_20
REMARK    6  A    between atoms: C_25  and  C_26
REMARK                            x       y       z     vdW  Elec       q    Type
REMARK                         _______ _______ _______ _____ _____    ______ ____
ROOT
ATOM      1  N   UNL     1       4.167  14.237  17.873  0.00  0.00    +0.000 N 
ATOM      2  C   UNL     1       3.215  13.707  18.750  0.00  0.00    +0.000 A 
ATOM      3  N   UNL     1       3.074  14.183  19.983  0.00  0.00    +0.000 NA
ATOM      4  C   UNL     1       2.178  13.561  20.733  0.00  0.00    +0.000 A 
ATOM      5  N   UNL     1       1.453  12.518  20.369  0.00  0.00    +0.000 NA
ATOM      6  C   UNL     1       1.672  12.090  19.129  0.00  0.00    +0.000 A 
ATOM      7  N   UNL     1       0.995  10.938  18.697  0.00  0.00    +0.000 N 
ATOM      8  C   UNL     1       0.525   9.909  19.577  0.00  0.00    +0.000 C 
ATOM      9  C   UNL     1       1.230   8.864  18.704  0.00  0.00    +0.000 C 
ATOM     10  C   UNL     1       1.545  10.023  17.745  0.00  0.00    +0.000 C 
ATOM     11  N   UNL     1       2.521  12.676  18.282  0.00  0.00    +0.000 NA
ATOM     12  H   UNL     1       4.185  13.675  17.032  0.00  0.00    +0.000 HD
ENDROOT
BRANCH   1  17
ATOM     13  C   UNL     1       7.719  15.382  18.099  0.00  0.00    +0.000 A 
ATOM     14  C   UNL     1       7.541  16.682  18.576  0.00  0.00    +0.000 A 
ATOM     15  C   UNL     1       6.256  17.149  18.842  0.00  0.00    +0.000 A 
ATOM     16  C   UNL     1       5.149  16.323  18.621  0.00  0.00    +0.000 A 
ATOM     17  C   UNL     1       5.305  15.018  18.128  0.00  0.00    +0.000 A 
ATOM     18  C   UNL     1       6.606  14.554  17.912  0.00  0.00    +0.000 A 
BRANCH  13  21
ATOM     19  C   UNL     1      10.502  12.948  17.295  0.00  0.00    +0.000 C 
ATOM     20  N   UNL     1       9.211  13.544  17.531  0.00  0.00    +0.000 N 
ATOM     21  C   UNL     1       9.094  14.885  17.829  0.00  0.00    +0.000 C 
ATOM     22  O   UNL     1      10.045  15.657  17.858  0.00  0.00    +0.000 OA
ATOM     23  H   UNL     1       8.386  12.981  17.387  0.00  0.00    +0.000 HD
ENDBRANCH  13  21
ENDBRANCH   1  17
BRANCH   9  24
ATOM     24  O   UNL     1       2.348   8.189  19.335  0.00  0.00    +0.000 OA
BRANCH  24  25
ATOM     25  C   UNL     1       2.742   6.965  18.853  0.00  0.00    +0.000 A 
ATOM     26  C   UNL     1       2.194   5.857  19.495  0.00  0.00    +0.000 A 
ATOM     27  C   UNL     1       2.545   4.568  19.090  0.00  0.00    +0.000 A 
ATOM     28  C   UNL     1       3.456   4.381  18.046  0.00  0.00    +0.000 A 
ATOM     29 CL   UNL     1       3.846   2.755  17.612  0.00  0.00    +0.000 Cl
ATOM     30  C   UNL     1       4.020   5.485  17.392  0.00  0.00    +0.000 A 
ATOM     31  C   UNL     1       5.018   5.388  16.274  0.00  0.00    +0.000 C 
ATOM     32  C   UNL     1       3.640   6.776  17.801  0.00  0.00    +0.000 A 
ENDBRANCH  24  25
ENDBRANCH   9  24
TORSDOF 4
ENDMDL
MODEL 4
REMARK VINA RESULT:      -7.9      6.162      9.105
REMARK  Name = 
REMARK  6 active torsions:
REMARK  status: ('A' for Active; 'I' for Inactive)
REMARK    1  A    between atoms: C_1  and  N_2
REMARK    2  A    between atoms: C_3  and  C_5
REMARK    3  A    between atoms: C_9  and  N_10
REMARK    4  A    between atoms: C_18  and  O_19
REMARK    5  A    between atoms: O_19  and  C_20
REMARK    6  A    between atoms: C_25  and  C_26
REMARK                            x       y       z     vdW  Elec       q    Type
REMARK                         _______ _______ _______ _____ _____    ______ ____
ROOT
ATOM      1  N   UNL     1       3.649   7.321  17.754  0.00  0.00    +0.000 N 
ATOM      2  C   UNL     1       2.809   7.582  18.842  0.00  0.00    +0.000 A 
ATOM      3  N   UNL     1       2.526   6.640  19.735  0.00  0.00    +0.000 NA
ATOM      4  C   UNL     1       1.675   6.995  20.686  0.00  0.00    +0.000 A 
ATOM      5  N   UNL     1       1.084   8.172  20.795  0.00  0.00    +0.000 NA
ATOM      6  C   UNL     1       1.403   9.049  19.848  0.00  0.00    +0.000 A 
ATOM      7  N   UNL     1       0.755  10.295  19.853  0.00  0.00    +0.000 N 
ATOM      8  C   UNL     1      -0.541  10.520  20.420  0.00  0.00    +0.000 C 
ATOM      9  C   UNL     1      -0.980  11.184  19.110  0.00  0.00    +0.000 C 
ATOM     10  C   UNL     1       0.482  11.036  18.661  0.00  0.00    +0.000 C 
ATOM     11  N   UNL     1       2.282   8.801  18.875  0.00  0.00    +0.000 NA
ATOM     12  H   UNL     1       3.653   8.127  17.143  0.00  0.00    +0.000 HD
ENDROOT
BRANCH   1  17
ATOM     13  C   UNL     1       5.395   4.789  15.628  0.00  0.00    +0.000 A 
ATOM     14  C   UNL     1       4.872   3.606  16.153  0.00  0.00    +0.000 A 
ATOM     15  C   UNL     1       3.931   3.664  17.179  0.00  0.00    +0.000 A 
ATOM     16  C   UNL     1       3.522   4.901  17.688  0.00  0.00    +0.000 A 
ATOM     17  C   UNL     1       4.047   6.102  17.184  0.00  0.00    +0.000 A 
ATOM     18  C   UNL     1       4.955   6.023  16.123  0.00  0.00    +0.000 A 
BRANCH  13  21
ATOM     19  C   UNL     1       6.924   3.823  12.305  0.00  0.00    +0.000 C 
ATOM     20  N   UNL     1       6.020   3.990  13.414  0.00  0.00    +0.000 N 
ATOM     21  C   UNL     1       6.388   4.722  14.524  0.00  0.00    +0.000 C 
ATOM     22  O   UNL     1       7.457   5.313  14.619  0.00  0.00    +0.000 OA
ATOM     23  H   UNL     1       5.079   3.636  13.328  0.00  0.00    +0.000 HD
ENDBRANCH  13  21
ENDBRANCH   1  17
BRANCH   9  24
ATOM     24  O   UNL     1      -1.991  10.460  18.362  0.00  0.00    +0.000 OA
BRANCH  24  25
ATOM     25  C   UNL     1      -3.197  11.068  18.115  0.00  0.00    +0.000 A 
ATOM     26  C   UNL     1      -3.634  11.030  16.793  0.00  0.00    +0.000 A 
ATOM     27  C   UNL     1      -4.841  11.634  16.436  0.00  0.00    +0.000 A 
ATOM     28  C   UNL     1      -5.612  12.291  17.400  0.00  0.00    +0.000 A 
ATOM     29 CL   UNL     1      -7.086  13.023  16.876  0.00  0.00    +0.000 Cl
ATOM     30  C   UNL     1      -5.184  12.344  18.734  0.00  0.00    +0.000 A 
ATOM     31  C   UNL     1      -5.931  13.038  19.836  0.00  0.00    +0.000 C 
ATOM     32  C   UNL     1      -3.975  11.712  19.078  0.00  0.00    +0.000 A 
ENDBRANCH  24  25
ENDBRANCH   9  24
TORSDOF 4
ENDMDL
MODEL 5
REMARK VINA RESULT:      -7.6      4.823      5.438
REMARK  Name = 
REMARK  6 active torsions:
REMARK  status: ('A' for Active; 'I' for Inactive)
REMARK    1  A    between atoms: C_1  and  N_2
REMARK    2  A    between atoms: C_3  and  C_5
REMARK    3  A    between atoms: C_9  and  N_10
REMARK    4  A    between atoms: C_18  and  O_19
REMARK    5  A    between atoms: O_19  and  C_20
REMARK    6  A    between atoms: C_25  and  C_26
REMARK                            x       y       z     vdW  Elec       q    Type
REMARK                         _______ _______ _______ _____ _____    ______ ____
ROOT
ATOM      1  N   UNL     1       9.610  10.238  20.327  0.00  0.00    +0.000 N 
ATOM      2  C   UNL     1       8.962   9.734  19.194  0.00  0.00    +0.000 A 
ATOM      3  N   UNL     1       8.493  10.545  18.251  0.00  0.00    +0.000 NA
ATOM      4  C   UNL     1       7.852   9.950  17.258  0.00  0.00    +0.000 A 
ATOM      5  N   UNL     1       7.627   8.652  17.149  0.00  0.00    +0.000 NA
ATOM      6  C   UNL     1       8.108   7.915  18.145  0.00  0.00    +0.000 A 
ATOM      7  N   UNL     1       7.840   6.536  18.139  0.00  0.00    +0.000 N 
ATOM      8  C   UNL     1       6.706   5.945  17.493  0.00  0.00    +0.000 C 
ATOM      9  C   UNL     1       6.375   5.201  18.793  0.00  0.00    +0.000 C 
ATOM     10  C   UNL     1       7.698   5.765  19.334  0.00  0.00    +0.000 C 
ATOM     11  N   UNL     1       8.805   8.416  19.167  0.00  0.00    +0.000 NA
ATOM     12  H   UNL     1       9.796   9.475  20.964  0.00  0.00    +0.000 HD
ENDROOT
BRANCH   1  17
ATOM     13  C   UNL     1      10.342  13.854  20.931  0.00  0.00    +0.000 A 
ATOM     14  C   UNL     1       9.465  14.123  21.983  0.00  0.00    +0.000 A 
ATOM     15  C   UNL     1       8.668  13.101  22.495  0.00  0.00    +0.000 A 
ATOM     16  C   UNL     1       8.739  11.816  21.948  0.00  0.00    +0.000 A 
ATOM     17  C   UNL     1       9.604  11.528  20.880  0.00  0.00    +0.000 A 
ATOM     18  C   UNL     1      10.427  12.556  20.413  0.00  0.00    +0.000 A 
BRANCH  13  21
ATOM     19  C   UNL     1      11.563  17.366  20.233  0.00  0.00    +0.000 C 
ATOM     20  N   UNL     1      10.828  16.232  20.730  0.00  0.00    +0.000 N 
ATOM     21  C   UNL     1      11.200  14.946  20.399  0.00  0.00    +0.000 C 
ATOM     22  O   UNL     1      12.187  14.681  19.724  0.00  0.00    +0.000 OA
ATOM     23  H   UNL     1      10.089  16.391  21.399  0.00  0.00    +0.000 HD
ENDBRANCH  13  21
ENDBRANCH   1  17
BRANCH   9  24
ATOM     24  O   UNL     1       5.148   5.619  19.444  0.00  0.00    +0.000 OA
BRANCH  24  25
ATOM     25  C   UNL     1       4.042   4.810  19.358  0.00  0.00    +0.000 A 
ATOM     26  C   UNL     1       3.568   4.569  18.070  0.00  0.00    +0.000 A 
ATOM     27  C   UNL     1       2.438   3.772  17.877  0.00  0.00    +0.000 A 
ATOM     28  C   UNL     1       1.769   3.220  18.973  0.00  0.00    +0.000 A 
ATOM     29 CL   UNL     1       0.374   2.254  18.651  0.00  0.00    +0.000 Cl
ATOM     30  C   UNL     1       2.230   3.456  20.276  0.00  0.00    +0.000 A 
ATOM     31  C   UNL     1       1.573   2.923  21.516  0.00  0.00    +0.000 C 
ATOM     32  C   UNL     1       3.382   4.246  20.450  0.00  0.00    +0.000 A 
ENDBRANCH  24  25
ENDBRANCH   9  24
TORSDOF 4
ENDMDL
MODEL 6
REMARK VINA RESULT:      -7.5      5.456      9.893
REMARK  Name = 
REMARK  6 active torsions:
REMARK  status: ('A' for Active; 'I' for Inactive)
REMARK    1  A    between atoms: C_1  and  N_2
REMARK    2  A    between atoms: C_3  and  C_5
REMARK    3  A    between atoms: C_9  and  N_10
REMARK    4  A    between atoms: C_18  and  O_19
REMARK    5  A    between atoms: O_19  and  C_20
REMARK    6  A    between atoms: C_25  and  C_26
REMARK                            x       y       z     vdW  Elec       q    Type
REMARK                         _______ _______ _______ _____ _____    ______ ____
ROOT
ATOM      1  N   UNL     1       8.151   8.994  17.354  0.00  0.00    +0.000 N 
ATOM      2  C   UNL     1       8.640  10.001  18.192  0.00  0.00    +0.000 A 
ATOM      3  N   UNL     1       9.213   9.711  19.355  0.00  0.00    +0.000 NA
ATOM      4  C   UNL     1       9.584  10.754  20.082  0.00  0.00    +0.000 A 
ATOM      5  N   UNL     1       9.407  12.024  19.760  0.00  0.00    +0.000 NA
ATOM      6  C   UNL     1       8.805  12.226  18.593  0.00  0.00    +0.000 A 
ATOM      7  N   UNL     1       8.512  13.548  18.219  0.00  0.00    +0.000 N 
ATOM      8  C   UNL     1       8.316  14.618  19.151  0.00  0.00    +0.000 C 
ATOM      9  C   UNL     1       6.997  14.965  18.450  0.00  0.00    +0.000 C 
ATOM     10  C   UNL     1       7.384  13.898  17.413  0.00  0.00    +0.000 C 
ATOM     11  N   UNL     1       8.434  11.243  17.769  0.00  0.00    +0.000 NA
ATOM     12  H   UNL     1       7.665   9.422  16.577  0.00  0.00    +0.000 HD
ENDROOT
BRANCH   1  17
ATOM     13  C   UNL     1       6.968   5.467  16.977  0.00  0.00    +0.000 A 
ATOM     14  C   UNL     1       7.312   4.944  18.225  0.00  0.00    +0.000 A 
ATOM     15  C   UNL     1       7.901   5.770  19.180  0.00  0.00    +0.000 A 
ATOM     16  C   UNL     1       8.157   7.113  18.884  0.00  0.00    +0.000 A 
ATOM     17  C   UNL     1       7.833   7.655  17.630  0.00  0.00    +0.000 A 
ATOM     18  C   UNL     1       7.201   6.820  16.704  0.00  0.00    +0.000 A 
BRANCH  13  21
ATOM     19  C   UNL     1       6.232   3.900  13.613  0.00  0.00    +0.000 C 
ATOM     20  N   UNL     1       6.810   4.679  14.678  0.00  0.00    +0.000 N 
ATOM     21  C   UNL     1       6.328   4.584  15.967  0.00  0.00    +0.000 C 
ATOM     22  O   UNL     1       5.438   3.810  16.300  0.00  0.00    +0.000 OA
ATOM     23  H   UNL     1       7.632   5.230  14.483  0.00  0.00    +0.000 HD
ENDBRANCH  13  21
ENDBRANCH   1  17
BRANCH   9  24
ATOM     24  O   UNL     1       5.802  14.734  19.240  0.00  0.00    +0.000 OA
BRANCH  24  25
ATOM     25  C   UNL     1       4.680  15.481  18.980  0.00  0.00    +0.000 A 
ATOM     26  C   UNL     1       4.214  15.436  17.668  0.00  0.00    +0.000 A 
ATOM     27  C   UNL     1       3.089  16.174  17.299  0.00  0.00    +0.000 A 
ATOM     28  C   UNL     1       2.429  16.972  18.239  0.00  0.00    +0.000 A 
ATOM     29 CL   UNL     1       1.051  17.863  17.700  0.00  0.00    +0.000 Cl
ATOM     30  C   UNL     1       2.888  17.033  19.562  0.00  0.00    +0.000 A 
ATOM     31  C   UNL     1       2.260  17.872  20.638  0.00  0.00    +0.000 C 
ATOM     32  C   UNL     1       4.012  16.267  19.921  0.00  0.00    +0.000 A 
ENDBRANCH  24  25
ENDBRANCH   9  24
TORSDOF 4
ENDMDL
MODEL 7
REMARK VINA RESULT:      -7.5      6.451      9.509
REMARK  Name = 
REMARK  6 active torsions:
REMARK  status: ('A' for Active; 'I' for Inactive)
REMARK    1  A    between atoms: C_1  and  N_2
REMARK    2  A    between atoms: C_3  and  C_5
REMARK    3  A    between atoms: C_9  and  N_10
REMARK    4  A    between atoms: C_18  and  O_19
REMARK    5  A    between atoms: O_19  and  C_20
REMARK    6  A    between atoms: C_25  and  C_26
REMARK                            x       y       z     vdW  Elec       q    Type
REMARK                         _______ _______ _______ _____ _____    ______ ____
ROOT
ATOM      1  N   UNL     1       1.203  10.076  20.123  0.00  0.00    +0.000 N 
ATOM      2  C   UNL     1       0.516  10.194  21.335  0.00  0.00    +0.000 A 
ATOM      3  N   UNL     1       0.545   9.221  22.240  0.00  0.00    +0.000 NA
ATOM      4  C   UNL     1      -0.190   9.428  23.321  0.00  0.00    +0.000 A 
ATOM      5  N   UNL     1      -0.948  10.486  23.551  0.00  0.00    +0.000 NA
ATOM      6  C   UNL     1      -0.939  11.401  22.586  0.00  0.00    +0.000 A 
ATOM      7  N   UNL     1      -1.780  12.517  22.723  0.00  0.00    +0.000 N 
ATOM      8  C   UNL     1      -2.989  12.518  23.492  0.00  0.00    +0.000 C 
ATOM      9  C   UNL     1      -3.739  13.091  22.284  0.00  0.00    +0.000 C 
ATOM     10  C   UNL     1      -2.363  13.195  21.607  0.00  0.00    +0.000 C 
ATOM     11  N   UNL     1      -0.198  11.304  21.480  0.00  0.00    +0.000 NA
ATOM     12  H   UNL     1       0.973  10.868  19.538  0.00  0.00    +0.000 HD
ENDROOT
BRANCH   1  17
ATOM     13  C   UNL     1       2.339   6.583  19.422  0.00  0.00    +0.000 A 
ATOM     14  C   UNL     1       2.633   6.676  18.061  0.00  0.00    +0.000 A 
ATOM     15  C   UNL     1       2.481   7.895  17.403  0.00  0.00    +0.000 A 
ATOM     16  C   UNL     1       2.023   9.016  18.102  0.00  0.00    +0.000 A 
ATOM     17  C   UNL     1       1.707   8.941  19.468  0.00  0.00    +0.000 A 
ATOM     18  C   UNL     1       1.911   7.720  20.118  0.00  0.00    +0.000 A 
BRANCH  13  21
ATOM     19  C   UNL     1       3.514   3.043  20.052  0.00  0.00    +0.000 C 
ATOM     20  N   UNL     1       3.310   4.351  19.485  0.00  0.00    +0.000 N 
ATOM     21  C   UNL     1       2.517   5.283  20.121  0.00  0.00    +0.000 C 
ATOM     22  O   UNL     1       1.990   5.091  21.210  0.00  0.00    +0.000 OA
ATOM     23  H   UNL     1       3.829   4.605  18.657  0.00  0.00    +0.000 HD
ENDBRANCH  13  21
ENDBRANCH   1  17
BRANCH   9  24
ATOM     24  O   UNL     1      -4.717  12.201  21.689  0.00  0.00    +0.000 OA
BRANCH  24  25
ATOM     25  C   UNL     1      -5.252  12.524  20.466  0.00  0.00    +0.000 A 
ATOM     26  C   UNL     1      -6.297  13.445  20.488  0.00  0.00    +0.000 A 
ATOM     27  C   UNL     1      -6.919  13.827  19.298  0.00  0.00    +0.000 A 
ATOM     28  C   UNL     1      -6.504  13.281  18.079  0.00  0.00    +0.000 A 
ATOM     29 CL   UNL     1      -7.331  13.797  16.653  0.00  0.00    +0.000 Cl
ATOM     30  C   UNL     1      -5.457  12.350  18.040  0.00  0.00    +0.000 A 
ATOM     31  C   UNL     1      -4.952  11.695  16.787  0.00  0.00    +0.000 C 
ATOM     32  C   UNL     1      -4.830  11.991  19.248  0.00  0.00    +0.000 A 
ENDBRANCH  24  25
ENDBRANCH   9  24
TORSDOF 4
ENDMDL
MODEL 8
REMARK VINA RESULT:      -7.4      4.844      6.088
REMARK  Name = 
REMARK  6 active torsions:
REMARK  status: ('A' for Active; 'I' for Inactive)
REMARK    1  A    between atoms: C_1  and  N_2
REMARK    2  A    between atoms: C_3  and  C_5
REMARK    3  A    between atoms: C_9  and  N_10
REMARK    4  A    between atoms: C_18  and  O_19
REMARK    5  A    between atoms: O_19  and  C_20
REMARK    6  A    between atoms: C_25  and  C_26
REMARK                            x       y       z     vdW  Elec       q    Type
REMARK                         _______ _______ _______ _____ _____    ______ ____
ROOT
ATOM      1  N   UNL     1       9.692  10.459  20.353  0.00  0.00    +0.000 N 
ATOM      2  C   UNL     1       9.029   9.936  19.238  0.00  0.00    +0.000 A 
ATOM      3  N   UNL     1       8.491  10.732  18.320  0.00  0.00    +0.000 NA
ATOM      4  C   UNL     1       7.844  10.117  17.343  0.00  0.00    +0.000 A 
ATOM      5  N   UNL     1       7.674   8.812  17.229  0.00  0.00    +0.000 NA
ATOM      6  C   UNL     1       8.221   8.089  18.200  0.00  0.00    +0.000 A 
ATOM      7  N   UNL     1       8.016   6.700  18.189  0.00  0.00    +0.000 N 
ATOM      8  C   UNL     1       6.888   6.063  17.577  0.00  0.00    +0.000 C 
ATOM      9  C   UNL     1       6.636   5.294  18.879  0.00  0.00    +0.000 C 
ATOM     10  C   UNL     1       7.950   5.912  19.381  0.00  0.00    +0.000 C 
ATOM     11  N   UNL     1       8.930   8.612  19.203  0.00  0.00    +0.000 NA
ATOM     12  H   UNL     1       9.934   9.699  20.976  0.00  0.00    +0.000 HD
ENDROOT
BRANCH   1  17
ATOM     13  C   UNL     1       8.819  13.342  22.567  0.00  0.00    +0.000 A 
ATOM     14  C   UNL     1       9.682  14.320  22.070  0.00  0.00    +0.000 A 
ATOM     15  C   UNL     1      10.516  14.022  20.995  0.00  0.00    +0.000 A 
ATOM     16  C   UNL     1      10.496  12.744  20.425  0.00  0.00    +0.000 A 
ATOM     17  C   UNL     1       9.647  11.742  20.919  0.00  0.00    +0.000 A 
ATOM     18  C   UNL     1       8.785  12.077  21.969  0.00  0.00    +0.000 A 
BRANCH  13  21
ATOM     19  C   UNL     1       7.574  13.569  26.133  0.00  0.00    +0.000 C 
ATOM     20  N   UNL     1       8.380  13.335  24.963  0.00  0.00    +0.000 N 
ATOM     21  C   UNL     1       7.922  13.671  23.706  0.00  0.00    +0.000 C 
ATOM     22  O   UNL     1       6.849  14.229  23.506  0.00  0.00    +0.000 OA
ATOM     23  H   UNL     1       9.325  13.002  25.087  0.00  0.00    +0.000 HD
ENDBRANCH  13  21
ENDBRANCH   1  17
BRANCH   9  24
ATOM     24  O   UNL     1       5.414   5.650  19.576  0.00  0.00    +0.000 OA
BRANCH  24  25
ATOM     25  C   UNL     1       4.307   4.853  19.424  0.00  0.00    +0.000 A 
ATOM     26  C   UNL     1       3.094   5.426  19.799  0.00  0.00    +0.000 A 
ATOM     27  C   UNL     1       1.911   4.691  19.697  0.00  0.00    +0.000 A 
ATOM     28  C   UNL     1       1.937   3.374  19.229  0.00  0.00    +0.000 A 
ATOM     29 CL   UNL     1       0.433   2.529  19.143  0.00  0.00    +0.000 Cl
ATOM     30  C   UNL     1       3.150   2.781  18.851  0.00  0.00    +0.000 A 
ATOM     31  C   UNL     1       3.285   1.370  18.354  0.00  0.00    +0.000 C 
ATOM     32  C   UNL     1       4.329   3.543  18.943  0.00  0.00    +0.000 A 
ENDBRANCH  24  25
ENDBRANCH   9  24
TORSDOF 4
ENDMDL
MODEL 9
REMARK VINA RESULT:      -7.4      5.488      9.954
REMARK  Name = 
REMARK  6 active torsions:
REMARK  status: ('A' for Active; 'I' for Inactive)
REMARK    1  A    between atoms: C_1  and  N_2
REMARK    2  A    between atoms: C_3  and  C_5
REMARK    3  A    between atoms: C_9  and  N_10
REMARK    4  A    between atoms: C_18  and  O_19
REMARK    5  A    between atoms: O_19  and  C_20
REMARK    6  A    between atoms: C_25  and  C_26
REMARK                            x       y       z     vdW  Elec       q    Type
REMARK                         _______ _______ _______ _____ _____    ______ ____
ROOT
ATOM      1  N   UNL     1       8.105   9.031  17.359  0.00  0.00    +0.000 N 
ATOM      2  C   UNL     1       8.638  10.032  18.177  0.00  0.00    +0.000 A 
ATOM      3  N   UNL     1       9.287   9.734  19.297  0.00  0.00    +0.000 NA
ATOM      4  C   UNL     1       9.694  10.771  20.012  0.00  0.00    +0.000 A 
ATOM      5  N   UNL     1       9.487  12.043  19.719  0.00  0.00    +0.000 NA
ATOM      6  C   UNL     1       8.809  12.254  18.595  0.00  0.00    +0.000 A 
ATOM      7  N   UNL     1       8.481  13.577  18.258  0.00  0.00    +0.000 N 
ATOM      8  C   UNL     1       8.336  14.634  19.214  0.00  0.00    +0.000 C 
ATOM      9  C   UNL     1       6.972  14.976  18.604  0.00  0.00    +0.000 C 
ATOM     10  C   UNL     1       7.300  13.927  17.531  0.00  0.00    +0.000 C 
ATOM     11  N   UNL     1       8.395  11.278  17.785  0.00  0.00    +0.000 NA
ATOM     12  H   UNL     1       7.567   9.464  16.620  0.00  0.00    +0.000 HD
ENDROOT
BRANCH   1  17
ATOM     13  C   UNL     1       6.975   5.485  16.997  0.00  0.00    +0.000 A 
ATOM     14  C   UNL     1       7.358   4.964  18.234  0.00  0.00    +0.000 A 
ATOM     15  C   UNL     1       7.957   5.797  19.178  0.00  0.00    +0.000 A 
ATOM     16  C   UNL     1       8.182   7.145  18.881  0.00  0.00    +0.000 A 
ATOM     17  C   UNL     1       7.817   7.685  17.637  0.00  0.00    +0.000 A 
ATOM     18  C   UNL     1       7.177   6.843  16.724  0.00  0.00    +0.000 A 
BRANCH  13  21
ATOM     19  C   UNL     1       6.217   3.883  13.655  0.00  0.00    +0.000 C 
ATOM     20  N   UNL     1       6.803   4.670  14.709  0.00  0.00    +0.000 N 
ATOM     21  C   UNL     1       6.324   4.595  16.000  0.00  0.00    +0.000 C 
ATOM     22  O   UNL     1       5.429   3.832  16.345  0.00  0.00    +0.000 OA
ATOM     23  H   UNL     1       7.630   5.212  14.504  0.00  0.00    +0.000 HD
ENDBRANCH  13  21
ENDBRANCH   1  17
BRANCH   9  24
ATOM     24  O   UNL     1       5.832  14.724  19.466  0.00  0.00    +0.000 OA
BRANCH  24  25
ATOM     25  C   UNL     1       4.719  15.520  19.344  0.00  0.00    +0.000 A 
ATOM     26  C   UNL     1       4.069  15.835  20.535  0.00  0.00    +0.000 A 
ATOM     27  C   UNL     1       2.918  16.625  20.517  0.00  0.00    +0.000 A 
ATOM     28  C   UNL     1       2.405  17.095  19.304  0.00  0.00    +0.000 A 
ATOM     29 CL   UNL     1       0.972  18.058  19.365  0.00  0.00    +0.000 Cl
ATOM     30  C   UNL     1       3.045  16.783  18.096  0.00  0.00    +0.000 A 
ATOM     31  C   UNL     1       2.564  17.225  16.744  0.00  0.00    +0.000 C 
ATOM     32  C   UNL     1       4.215  16.002  18.136  0.00  0.00    +0.000 A 
ENDBRANCH  24  25
ENDBRANCH   9  24
TORSDOF 4
ENDMDL
