MODEL 1
REMARK VINA RESULT:      -6.4      0.000      0.000
REMARK  Name = 
REMARK  4 active torsions:
REMARK  status: ('A' for Active; 'I' for Inactive)
REMARK    1  A    between atoms: C_1  and  N_2
REMARK    2  A    between atoms: N_2  and  C_3
REMARK    3  A    between atoms: N_6  and  C_7
REMARK    4  A    between atoms: C_8  and  C_9
REMARK                            x       y       z     vdW  Elec       q    Type
REMARK                         _______ _______ _______ _____ _____    ______ ____
ROOT
ATOM      1  C   UNL     1       2.072   7.156  19.806  0.00  0.00    +0.000 A 
ATOM      2  C   UNL     1       2.662   7.683  18.697  0.00  0.00    +0.000 A 
ATOM      3  C   UNL     1       3.468   6.909  17.824  0.00  0.00    +0.000 A 
ATOM      4  N   UNL     1       4.072   7.289  16.720  0.00  0.00    +0.000 NA
ATOM      5  C   UNL     1       4.713   6.180  16.246  0.00  0.00    +0.000 A 
ATOM      6  C   UNL     1       5.499   6.068  15.086  0.00  0.00    +0.000 A 
ATOM      7  C   UNL     1       6.077   4.839  14.766  0.00  0.00    +0.000 A 
ATOM      8  C   UNL     1       5.878   3.738  15.587  0.00  0.00    +0.000 A 
ATOM      9  C   UNL     1       5.093   3.834  16.745  0.00  0.00    +0.000 A 
ATOM     10  C   UNL     1       4.508   5.072  17.073  0.00  0.00    +0.000 A 
ATOM     11  N   UNL     1       3.692   5.559  18.099  0.00  0.00    +0.000 N 
ATOM     12  C   UNL     1       3.137   4.920  19.246  0.00  0.00    +0.000 A 
ATOM     13  C   UNL     1       3.376   3.571  19.546  0.00  0.00    +0.000 A 
ATOM     14  C   UNL     1       2.819   2.982  20.684  0.00  0.00    +0.000 A 
ATOM     15  C   UNL     1       2.048   3.736  21.545  0.00  0.00    +0.000 A 
ATOM     16  C   UNL     1       1.833   5.086  21.272  0.00  0.00    +0.000 A 
ATOM     17  C   UNL     1       2.336   5.706  20.106  0.00  0.00    +0.000 A 
ENDROOT
BRANCH   1  23
ATOM     18  C   UNL     1      -0.866  10.295  22.761  0.00  0.00    +0.000 C 
ATOM     19  N   UNL     1       0.006  10.462  21.533  0.00  0.00    +0.000 N 
ATOM     20  C   UNL     1      -0.018  11.934  21.101  0.00  0.00    +0.000 C 
ATOM     21  C   UNL     1      -0.504   9.619  20.334  0.00  0.00    +0.000 C 
ATOM     22  C   UNL     1      -0.201   8.114  20.468  0.00  0.00    +0.000 C 
ATOM     23  N   UNL     1       1.239   7.876  20.707  0.00  0.00    +0.000 N 
ATOM     24  C   UNL     1       1.740   8.569  21.918  0.00  0.00    +0.000 C 
ATOM     25  C   UNL     1       1.471  10.096  21.876  0.00  0.00    +0.000 C 
ENDBRANCH   1  23
BRANCH   2  26
ATOM     26  C   UNL     1       2.400   9.151  18.402  0.00  0.00    +0.000 C 
ATOM     27  N   UNL     1       2.182  10.368  18.158  0.00  0.00    +0.000 NA
ENDBRANCH   2  26
TORSDOF 2
ENDMDL
MODEL 2
REMARK VINA RESULT:      -6.4      6.597     10.506
REMARK  Name = 
REMARK  4 active torsions:
REMARK  status: ('A' for Active; 'I' for Inactive)
REMARK    1  A    between atoms: C_1  and  N_2
REMARK    2  A    between atoms: N_2  and  C_3
REMARK    3  A    between atoms: N_6  and  C_7
REMARK    4  A    between atoms: C_8  and  C_9
REMARK                            x       y       z     vdW  Elec       q    Type
REMARK                         _______ _______ _______ _____ _____    ______ ____
ROOT
ATOM      1  C   UNL     1      -1.949  12.765  19.981  0.00  0.00    +0.000 A 
ATOM      2  C   UNL     1      -2.220  13.211  21.239  0.00  0.00    +0.000 A 
ATOM      3  C   UNL     1      -3.516  13.133  21.811  0.00  0.00    +0.000 A 
ATOM      4  N   UNL     1      -3.901  13.507  23.011  0.00  0.00    +0.000 NA
ATOM      5  C   UNL     1      -5.234  13.219  23.080  0.00  0.00    +0.000 A 
ATOM      6  C   UNL     1      -6.108  13.430  24.160  0.00  0.00    +0.000 A 
ATOM      7  C   UNL     1      -7.450  13.067  24.038  0.00  0.00    +0.000 A 
ATOM      8  C   UNL     1      -7.917  12.504  22.859  0.00  0.00    +0.000 A 
ATOM      9  C   UNL     1      -7.057  12.284  21.774  0.00  0.00    +0.000 A 
ATOM     10  C   UNL     1      -5.702  12.649  21.891  0.00  0.00    +0.000 A 
ATOM     11  N   UNL     1      -4.570  12.596  21.071  0.00  0.00    +0.000 N 
ATOM     12  C   UNL     1      -4.393  12.121  19.739  0.00  0.00    +0.000 A 
ATOM     13  C   UNL     1      -5.451  11.602  18.978  0.00  0.00    +0.000 A 
ATOM     14  C   UNL     1      -5.239  11.153  17.671  0.00  0.00    +0.000 A 
ATOM     15  C   UNL     1      -3.983  11.244  17.106  0.00  0.00    +0.000 A 
ATOM     16  C   UNL     1      -2.934  11.788  17.844  0.00  0.00    +0.000 A 
ATOM     17  C   UNL     1      -3.096  12.207  19.184  0.00  0.00    +0.000 A 
ENDROOT
BRANCH   1  23
ATOM     18  C   UNL     1       2.955  13.137  18.239  0.00  0.00    +0.000 C 
ATOM     19  N   UNL     1       2.225  13.504  19.515  0.00  0.00    +0.000 N 
ATOM     20  C   UNL     1       3.221  14.137  20.495  0.00  0.00    +0.000 C 
ATOM     21  C   UNL     1       1.611  12.263  20.217  0.00  0.00    +0.000 C 
ATOM     22  C   UNL     1       0.341  11.731  19.524  0.00  0.00    +0.000 C 
ATOM     23  N   UNL     1      -0.669  12.799  19.362  0.00  0.00    +0.000 N 
ATOM     24  C   UNL     1      -0.157  13.957  18.589  0.00  0.00    +0.000 C 
ATOM     25  C   UNL     1       1.130  14.556  19.210  0.00  0.00    +0.000 C 
ENDBRANCH   1  23
BRANCH   2  26
ATOM     26  C   UNL     1      -1.060  13.783  22.039  0.00  0.00    +0.000 C 
ATOM     27  N   UNL     1      -0.099  14.256  22.701  0.00  0.00    +0.000 NA
ENDBRANCH   2  26
TORSDOF 2
ENDMDL
MODEL 3
REMARK VINA RESULT:      -6.4      5.567      8.107
REMARK  Name = 
REMARK  4 active torsions:
REMARK  status: ('A' for Active; 'I' for Inactive)
REMARK    1  A    between atoms: C_1  and  N_2
REMARK    2  A    between atoms: N_2  and  C_3
REMARK    3  A    between atoms: N_6  and  C_7
REMARK    4  A    between atoms: C_8  and  C_9
REMARK                            x       y       z     vdW  Elec       q    Type
REMARK                         _______ _______ _______ _____ _____    ______ ____
ROOT
ATOM      1  C   UNL     1      -2.286  12.560  21.302  0.00  0.00    +0.000 A 
ATOM      2  C   UNL     1      -3.253  12.796  20.373  0.00  0.00    +0.000 A 
ATOM      3  C   UNL     1      -3.282  12.132  19.119  0.00  0.00    +0.000 A 
ATOM      4  N   UNL     1      -4.164  12.254  18.152  0.00  0.00    +0.000 NA
ATOM      5  C   UNL     1      -3.754  11.403  17.166  0.00  0.00    +0.000 A 
ATOM      6  C   UNL     1      -4.363  11.167  15.921  0.00  0.00    +0.000 A 
ATOM      7  C   UNL     1      -3.788  10.253  15.038  0.00  0.00    +0.000 A 
ATOM      8  C   UNL     1      -2.624   9.583  15.387  0.00  0.00    +0.000 A 
ATOM      9  C   UNL     1      -2.006   9.804  16.626  0.00  0.00    +0.000 A 
ATOM     10  C   UNL     1      -2.582  10.727  17.521  0.00  0.00    +0.000 A 
ATOM     11  N   UNL     1      -2.285  11.210  18.799  0.00  0.00    +0.000 N 
ATOM     12  C   UNL     1      -1.217  10.910  19.695  0.00  0.00    +0.000 A 
ATOM     13  C   UNL     1      -0.196  10.003  19.373  0.00  0.00    +0.000 A 
ATOM     14  C   UNL     1       0.838   9.740  20.276  0.00  0.00    +0.000 A 
ATOM     15  C   UNL     1       0.878  10.398  21.489  0.00  0.00    +0.000 A 
ATOM     16  C   UNL     1      -0.115  11.324  21.803  0.00  0.00    +0.000 A 
ATOM     17  C   UNL     1      -1.203  11.580  20.939  0.00  0.00    +0.000 A 
ENDROOT
BRANCH   1  23
ATOM     18  C   UNL     1      -2.529  15.150  25.824  0.00  0.00    +0.000 C 
ATOM     19  N   UNL     1      -3.319  15.146  24.530  0.00  0.00    +0.000 N 
ATOM     20  C   UNL     1      -4.450  16.177  24.633  0.00  0.00    +0.000 C 
ATOM     21  C   UNL     1      -3.973  13.768  24.247  0.00  0.00    +0.000 C 
ATOM     22  C   UNL     1      -2.973  12.702  23.757  0.00  0.00    +0.000 C 
ATOM     23  N   UNL     1      -2.215  13.179  22.580  0.00  0.00    +0.000 N 
ATOM     24  C   UNL     1      -1.474  14.436  22.848  0.00  0.00    +0.000 C 
ATOM     25  C   UNL     1      -2.402  15.569  23.355  0.00  0.00    +0.000 C 
ENDBRANCH   1  23
BRANCH   2  26
ATOM     26  C   UNL     1      -4.340  13.793  20.739  0.00  0.00    +0.000 C 
ATOM     27  N   UNL     1      -5.241  14.620  21.043  0.00  0.00    +0.000 NA
ENDBRANCH   2  26
TORSDOF 2
ENDMDL
MODEL 4
REMARK VINA RESULT:      -6.2      7.006     10.155
REMARK  Name = 
REMARK  4 active torsions:
REMARK  status: ('A' for Active; 'I' for Inactive)
REMARK    1  A    between atoms: C_1  and  N_2
REMARK    2  A    between atoms: N_2  and  C_3
REMARK    3  A    between atoms: N_6  and  C_7
REMARK    4  A    between atoms: C_8  and  C_9
REMARK                            x       y       z     vdW  Elec       q    Type
REMARK                         _______ _______ _______ _____ _____    ______ ____
ROOT
ATOM      1  C   UNL     1      -1.610  12.927  19.696  0.00  0.00    +0.000 A 
ATOM      2  C   UNL     1      -2.214  13.352  20.841  0.00  0.00    +0.000 A 
ATOM      3  C   UNL     1      -3.568  13.056  21.141  0.00  0.00    +0.000 A 
ATOM      4  N   UNL     1      -4.257  13.387  22.211  0.00  0.00    +0.000 NA
ATOM      5  C   UNL     1      -5.505  12.864  22.026  0.00  0.00    +0.000 A 
ATOM      6  C   UNL     1      -6.610  12.943  22.891  0.00  0.00    +0.000 A 
ATOM      7  C   UNL     1      -7.813  12.340  22.523  0.00  0.00    +0.000 A 
ATOM      8  C   UNL     1      -7.917  11.669  21.313  0.00  0.00    +0.000 A 
ATOM      9  C   UNL     1      -6.822  11.578  20.441  0.00  0.00    +0.000 A 
ATOM     10  C   UNL     1      -5.605  12.185  20.807  0.00  0.00    +0.000 A 
ATOM     11  N   UNL     1      -4.334  12.316  20.239  0.00  0.00    +0.000 N 
ATOM     12  C   UNL     1      -3.800  11.844  19.005  0.00  0.00    +0.000 A 
ATOM     13  C   UNL     1      -4.569  11.121  18.080  0.00  0.00    +0.000 A 
ATOM     14  C   UNL     1      -4.011  10.681  16.876  0.00  0.00    +0.000 A 
ATOM     15  C   UNL     1      -2.699  10.982  16.573  0.00  0.00    +0.000 A 
ATOM     16  C   UNL     1      -1.939  11.728  17.472  0.00  0.00    +0.000 A 
ATOM     17  C   UNL     1      -2.450  12.148  18.720  0.00  0.00    +0.000 A 
ENDROOT
BRANCH   1  23
ATOM     18  C   UNL     1       3.422  14.103  18.980  0.00  0.00    +0.000 C 
ATOM     19  N   UNL     1       2.400  14.323  20.078  0.00  0.00    +0.000 N 
ATOM     20  C   UNL     1       3.065  15.083  21.232  0.00  0.00    +0.000 C 
ATOM     21  C   UNL     1       1.863  12.985  20.653  0.00  0.00    +0.000 C 
ATOM     22  C   UNL     1       0.859  12.276  19.723  0.00  0.00    +0.000 C 
ATOM     23  N   UNL     1      -0.254  13.175  19.349  0.00  0.00    +0.000 N 
ATOM     24  C   UNL     1       0.213  14.416  18.683  0.00  0.00    +0.000 C 
ATOM     25  C   UNL     1       1.238  15.196  19.545  0.00  0.00    +0.000 C 
ENDBRANCH   1  23
BRANCH   2  26
ATOM     26  C   UNL     1      -1.365  14.146  21.820  0.00  0.00    +0.000 C 
ATOM     27  N   UNL     1      -0.661  14.805  22.631  0.00  0.00    +0.000 NA
ENDBRANCH   2  26
TORSDOF 2
ENDMDL
MODEL 5
REMARK VINA RESULT:      -6.0      6.663     10.045
REMARK  Name = 
REMARK  4 active torsions:
REMARK  status: ('A' for Active; 'I' for Inactive)
REMARK    1  A    between atoms: C_1  and  N_2
REMARK    2  A    between atoms: N_2  and  C_3
REMARK    3  A    between atoms: N_6  and  C_7
REMARK    4  A    between atoms: C_8  and  C_9
REMARK                            x       y       z     vdW  Elec       q    Type
REMARK                         _______ _______ _______ _____ _____    ______ ____
ROOT
ATOM      1  C   UNL     1      -4.307  14.200  21.461  0.00  0.00    +0.000 A 
ATOM      2  C   UNL     1      -3.088  13.639  21.226  0.00  0.00    +0.000 A 
ATOM      3  C   UNL     1      -2.868  12.709  20.177  0.00  0.00    +0.000 A 
ATOM      4  N   UNL     1      -1.746  12.115  19.836  0.00  0.00    +0.000 NA
ATOM      5  C   UNL     1      -2.054  11.325  18.766  0.00  0.00    +0.000 A 
ATOM      6  C   UNL     1      -1.194  10.487  18.036  0.00  0.00    +0.000 A 
ATOM      7  C   UNL     1      -1.700   9.749  16.966  0.00  0.00    +0.000 A 
ATOM      8  C   UNL     1      -3.042   9.841  16.627  0.00  0.00    +0.000 A 
ATOM      9  C   UNL     1      -3.913  10.676  17.343  0.00  0.00    +0.000 A 
ATOM     10  C   UNL     1      -3.407  11.422  18.424  0.00  0.00    +0.000 A 
ATOM     11  N   UNL     1      -3.927  12.330  19.351  0.00  0.00    +0.000 N 
ATOM     12  C   UNL     1      -5.245  12.846  19.529  0.00  0.00    +0.000 A 
ATOM     13  C   UNL     1      -6.322  12.453  18.720  0.00  0.00    +0.000 A 
ATOM     14  C   UNL     1      -7.601  12.975  18.930  0.00  0.00    +0.000 A 
ATOM     15  C   UNL     1      -7.822  13.866  19.961  0.00  0.00    +0.000 A 
ATOM     16  C   UNL     1      -6.764  14.236  20.789  0.00  0.00    +0.000 A 
ATOM     17  C   UNL     1      -5.447  13.770  20.579  0.00  0.00    +0.000 A 
ENDROOT
BRANCH   1  23
ATOM     18  C   UNL     1      -4.712  17.698  25.311  0.00  0.00    +0.000 C 
ATOM     19  N   UNL     1      -3.582  16.929  24.656  0.00  0.00    +0.000 N 
ATOM     20  C   UNL     1      -2.260  17.311  25.334  0.00  0.00    +0.000 C 
ATOM     21  C   UNL     1      -3.443  17.265  23.147  0.00  0.00    +0.000 C 
ATOM     22  C   UNL     1      -4.529  16.613  22.269  0.00  0.00    +0.000 C 
ATOM     23  N   UNL     1      -4.584  15.150  22.483  0.00  0.00    +0.000 N 
ATOM     24  C   UNL     1      -4.838  14.788  23.898  0.00  0.00    +0.000 C 
ATOM     25  C   UNL     1      -3.794  15.408  24.861  0.00  0.00    +0.000 C 
ENDBRANCH   1  23
BRANCH   2  26
ATOM     26  C   UNL     1      -1.940  14.069  22.125  0.00  0.00    +0.000 C 
ATOM     27  N   UNL     1      -0.989  14.426  22.869  0.00  0.00    +0.000 NA
ENDBRANCH   2  26
TORSDOF 2
ENDMDL
MODEL 6
REMARK VINA RESULT:      -6.0      8.931     10.567
REMARK  Name = 
REMARK  4 active torsions:
REMARK  status: ('A' for Active; 'I' for Inactive)
REMARK    1  A    between atoms: C_1  and  N_2
REMARK    2  A    between atoms: N_2  and  C_3
REMARK    3  A    between atoms: N_6  and  C_7
REMARK    4  A    between atoms: C_8  and  C_9
REMARK                            x       y       z     vdW  Elec       q    Type
REMARK                         _______ _______ _______ _____ _____    ______ ____
ROOT
ATOM      1  C   UNL     1       8.572  13.366  22.058  0.00  0.00    +0.000 A 
ATOM      2  C   UNL     1       8.716  14.720  22.027  0.00  0.00    +0.000 A 
ATOM      3  C   UNL     1       9.306  15.397  20.928  0.00  0.00    +0.000 A 
ATOM      4  N   UNL     1       9.485  16.690  20.767  0.00  0.00    +0.000 NA
ATOM      5  C   UNL     1      10.084  16.833  19.549  0.00  0.00    +0.000 A 
ATOM      6  C   UNL     1      10.481  18.024  18.917  0.00  0.00    +0.000 A 
ATOM      7  C   UNL     1      11.085  17.966  17.661  0.00  0.00    +0.000 A 
ATOM      8  C   UNL     1      11.293  16.742  17.042  0.00  0.00    +0.000 A 
ATOM      9  C   UNL     1      10.899  15.545  17.657  0.00  0.00    +0.000 A 
ATOM     10  C   UNL     1      10.290  15.598  18.925  0.00  0.00    +0.000 A 
ATOM     11  N   UNL     1       9.776  14.668  19.835  0.00  0.00    +0.000 N 
ATOM     12  C   UNL     1       9.690  13.246  19.782  0.00  0.00    +0.000 A 
ATOM     13  C   UNL     1      10.182  12.502  18.699  0.00  0.00    +0.000 A 
ATOM     14  C   UNL     1      10.085  11.108  18.687  0.00  0.00    +0.000 A 
ATOM     15  C   UNL     1       9.528  10.445  19.762  0.00  0.00    +0.000 A 
ATOM     16  C   UNL     1       9.067  11.175  20.855  0.00  0.00    +0.000 A 
ATOM     17  C   UNL     1       9.100  12.588  20.885  0.00  0.00    +0.000 A 
ENDROOT
BRANCH   1  23
ATOM     18  C   UNL     1       6.259  11.232  26.219  0.00  0.00    +0.000 C 
ATOM     19  N   UNL     1       6.598  12.638  25.766  0.00  0.00    +0.000 N 
ATOM     20  C   UNL     1       6.123  13.633  26.833  0.00  0.00    +0.000 C 
ATOM     21  C   UNL     1       5.889  13.012  24.437  0.00  0.00    +0.000 C 
ATOM     22  C   UNL     1       6.523  12.353  23.196  0.00  0.00    +0.000 C 
ATOM     23  N   UNL     1       7.973  12.635  23.121  0.00  0.00    +0.000 N 
ATOM     24  C   UNL     1       8.708  12.180  24.326  0.00  0.00    +0.000 C 
ATOM     25  C   UNL     1       8.133  12.789  25.630  0.00  0.00    +0.000 C 
ENDBRANCH   1  23
BRANCH   2  26
ATOM     26  C   UNL     1       8.189  15.503  23.218  0.00  0.00    +0.000 C 
ATOM     27  N   UNL     1       7.752  16.152  24.206  0.00  0.00    +0.000 NA
ENDBRANCH   2  26
TORSDOF 2
ENDMDL
MODEL 7
REMARK VINA RESULT:      -5.9      5.158      8.980
REMARK  Name = 
REMARK  4 active torsions:
REMARK  status: ('A' for Active; 'I' for Inactive)
REMARK    1  A    between atoms: C_1  and  N_2
REMARK    2  A    between atoms: N_2  and  C_3
REMARK    3  A    between atoms: N_6  and  C_7
REMARK    4  A    between atoms: C_8  and  C_9
REMARK                            x       y       z     vdW  Elec       q    Type
REMARK                         _______ _______ _______ _____ _____    ______ ____
ROOT
ATOM      1  C   UNL     1      -3.994  13.349  20.772  0.00  0.00    +0.000 A 
ATOM      2  C   UNL     1      -2.752  13.088  21.269  0.00  0.00    +0.000 A 
ATOM      3  C   UNL     1      -1.830  12.241  20.604  0.00  0.00    +0.000 A 
ATOM      4  N   UNL     1      -0.605  11.927  20.964  0.00  0.00    +0.000 NA
ATOM      5  C   UNL     1      -0.134  11.091  19.992  0.00  0.00    +0.000 A 
ATOM      6  C   UNL     1       1.129  10.480  19.917  0.00  0.00    +0.000 A 
ATOM      7  C   UNL     1       1.427   9.649  18.836  0.00  0.00    +0.000 A 
ATOM      8  C   UNL     1       0.481   9.428  17.845  0.00  0.00    +0.000 A 
ATOM      9  C   UNL     1      -0.782  10.032  17.904  0.00  0.00    +0.000 A 
ATOM     10  C   UNL     1      -1.088  10.871  18.993  0.00  0.00    +0.000 A 
ATOM     11  N   UNL     1      -2.190  11.629  19.402  0.00  0.00    +0.000 N 
ATOM     12  C   UNL     1      -3.473  11.822  18.812  0.00  0.00    +0.000 A 
ATOM     13  C   UNL     1      -3.854  11.192  17.617  0.00  0.00    +0.000 A 
ATOM     14  C   UNL     1      -5.125  11.400  17.073  0.00  0.00    +0.000 A 
ATOM     15  C   UNL     1      -6.031  12.210  17.727  0.00  0.00    +0.000 A 
ATOM     16  C   UNL     1      -5.671  12.813  18.931  0.00  0.00    +0.000 A 
ATOM     17  C   UNL     1      -4.381  12.668  19.488  0.00  0.00    +0.000 A 
ENDROOT
BRANCH   1  23
ATOM     18  C   UNL     1      -7.070  16.630  23.416  0.00  0.00    +0.000 C 
ATOM     19  N   UNL     1      -5.642  16.138  23.544  0.00  0.00    +0.000 N 
ATOM     20  C   UNL     1      -4.995  16.798  24.768  0.00  0.00    +0.000 C 
ATOM     21  C   UNL     1      -4.781  16.512  22.308  0.00  0.00    +0.000 C 
ATOM     22  C   UNL     1      -5.075  15.643  21.069  0.00  0.00    +0.000 C 
ATOM     23  N   UNL     1      -4.953  14.203  21.383  0.00  0.00    +0.000 N 
ATOM     24  C   UNL     1      -5.853  13.779  22.483  0.00  0.00    +0.000 C 
ATOM     25  C   UNL     1      -5.633  14.607  23.775  0.00  0.00    +0.000 C 
ENDBRANCH   1  23
BRANCH   2  26
ATOM     26  C   UNL     1      -2.368  13.770  22.572  0.00  0.00    +0.000 C 
ATOM     27  N   UNL     1      -2.050  14.336  23.652  0.00  0.00    +0.000 NA
ENDBRANCH   2  26
TORSDOF 2
ENDMDL
MODEL 8
REMARK VINA RESULT:      -5.9      6.616      9.177
REMARK  Name = 
REMARK  4 active torsions:
REMARK  status: ('A' for Active; 'I' for Inactive)
REMARK    1  A    between atoms: C_1  and  N_2
REMARK    2  A    between atoms: N_2  and  C_3
REMARK    3  A    between atoms: N_6  and  C_7
REMARK    4  A    between atoms: C_8  and  C_9
REMARK                            x       y       z     vdW  Elec       q    Type
REMARK                         _______ _______ _______ _____ _____    ______ ____
ROOT
ATOM      1  C   UNL     1      -2.628  13.061  21.351  0.00  0.00    +0.000 A 
ATOM      2  C   UNL     1      -1.807  12.231  20.649  0.00  0.00    +0.000 A 
ATOM      3  C   UNL     1      -2.178  11.675  19.398  0.00  0.00    +0.000 A 
ATOM      4  N   UNL     1      -1.476  10.883  18.617  0.00  0.00    +0.000 NA
ATOM      5  C   UNL     1      -2.267  10.634  17.532  0.00  0.00    +0.000 A 
ATOM      6  C   UNL     1      -1.969   9.840  16.411  0.00  0.00    +0.000 A 
ATOM      7  C   UNL     1      -2.915   9.705  15.396  0.00  0.00    +0.000 A 
ATOM      8  C   UNL     1      -4.141  10.348  15.493  0.00  0.00    +0.000 A 
ATOM      9  C   UNL     1      -4.451  11.147  16.602  0.00  0.00    +0.000 A 
ATOM     10  C   UNL     1      -3.500  11.286  17.631  0.00  0.00    +0.000 A 
ATOM     11  N   UNL     1      -3.429  11.964  18.852  0.00  0.00    +0.000 N 
ATOM     12  C   UNL     1      -4.367  12.806  19.519  0.00  0.00    +0.000 A 
ATOM     13  C   UNL     1      -5.638  13.082  18.992  0.00  0.00    +0.000 A 
ATOM     14  C   UNL     1      -6.533  13.907  19.679  0.00  0.00    +0.000 A 
ATOM     15  C   UNL     1      -6.183  14.435  20.905  0.00  0.00    +0.000 A 
ATOM     16  C   UNL     1      -4.935  14.138  21.451  0.00  0.00    +0.000 A 
ATOM     17  C   UNL     1      -3.983  13.350  20.765  0.00  0.00    +0.000 A 
ENDROOT
BRANCH   1  23
ATOM     18  C   UNL     1      -1.974  15.583  25.871  0.00  0.00    +0.000 C 
ATOM     19  N   UNL     1      -3.009  15.588  24.764  0.00  0.00    +0.000 N 
ATOM     20  C   UNL     1      -4.106  16.603  25.111  0.00  0.00    +0.000 C 
ATOM     21  C   UNL     1      -3.694  14.206  24.597  0.00  0.00    +0.000 C 
ATOM     22  C   UNL     1      -2.805  13.160  23.896  0.00  0.00    +0.000 C 
ATOM     23  N   UNL     1      -2.305  13.663  22.598  0.00  0.00    +0.000 N 
ATOM     24  C   UNL     1      -1.537  14.925  22.731  0.00  0.00    +0.000 C 
ATOM     25  C   UNL     1      -2.354  16.039  23.435  0.00  0.00    +0.000 C 
ENDBRANCH   1  23
BRANCH   2  26
ATOM     26  C   UNL     1      -0.442  11.934  21.248  0.00  0.00    +0.000 C 
ATOM     27  N   UNL     1       0.689  11.689  21.745  0.00  0.00    +0.000 NA
ENDBRANCH   2  26
TORSDOF 2
ENDMDL
MODEL 9
REMARK VINA RESULT:      -5.9      6.983     10.470
REMARK  Name = 
REMARK  4 active torsions:
REMARK  status: ('A' for Active; 'I' for Inactive)
REMARK    1  A    between atoms: C_1  and  N_2
REMARK    2  A    between atoms: N_2  and  C_3
REMARK    3  A    between atoms: N_6  and  C_7
REMARK    4  A    between atoms: C_8  and  C_9
REMARK                            x       y       z     vdW  Elec       q    Type
REMARK                         _______ _______ _______ _____ _____    ______ ____
ROOT
ATOM      1  C   UNL     1      -1.430  13.475  21.138  0.00  0.00    +0.000 A 
ATOM      2  C   UNL     1      -2.189  13.752  22.235  0.00  0.00    +0.000 A 
ATOM      3  C   UNL     1      -3.559  13.393  22.322  0.00  0.00    +0.000 A 
ATOM      4  N   UNL     1      -4.389  13.582  23.324  0.00  0.00    +0.000 NA
ATOM      5  C   UNL     1      -5.583  13.056  22.921  0.00  0.00    +0.000 A 
ATOM      6  C   UNL     1      -6.791  13.010  23.638  0.00  0.00    +0.000 A 
ATOM      7  C   UNL     1      -7.915  12.426  23.052  0.00  0.00    +0.000 A 
ATOM      8  C   UNL     1      -7.839  11.897  21.772  0.00  0.00    +0.000 A 
ATOM      9  C   UNL     1      -6.640  11.932  21.045  0.00  0.00    +0.000 A 
ATOM     10  C   UNL     1      -5.503  12.520  21.632  0.00  0.00    +0.000 A 
ATOM     11  N   UNL     1      -4.177  12.745  21.252  0.00  0.00    +0.000 N 
ATOM     12  C   UNL     1      -3.473  12.430  20.052  0.00  0.00    +0.000 A 
ATOM     13  C   UNL     1      -4.091  11.801  18.961  0.00  0.00    +0.000 A 
ATOM     14  C   UNL     1      -3.369  11.516  17.798  0.00  0.00    +0.000 A 
ATOM     15  C   UNL     1      -2.041  11.880  17.703  0.00  0.00    +0.000 A 
ATOM     16  C   UNL     1      -1.430  12.534  18.771  0.00  0.00    +0.000 A 
ATOM     17  C   UNL     1      -2.110  12.796  19.981  0.00  0.00    +0.000 A 
ENDROOT
BRANCH   1  23
ATOM     18  C   UNL     1       3.571  14.473  20.040  0.00  0.00    +0.000 C 
ATOM     19  N   UNL     1       2.377  13.939  19.275  0.00  0.00    +0.000 N 
ATOM     20  C   UNL     1       2.804  13.631  17.834  0.00  0.00    +0.000 C 
ATOM     21  C   UNL     1       1.218  14.968  19.205  0.00  0.00    +0.000 C 
ATOM     22  C   UNL     1       0.437  15.106  20.526  0.00  0.00    +0.000 C 
ATOM     23  N   UNL     1      -0.051  13.793  21.000  0.00  0.00    +0.000 N 
ATOM     24  C   UNL     1       1.045  12.813  21.198  0.00  0.00    +0.000 C 
ATOM     25  C   UNL     1       1.894  12.614  19.916  0.00  0.00    +0.000 C 
ENDBRANCH   1  23
BRANCH   2  26
ATOM     26  C   UNL     1      -1.501  14.447  23.399  0.00  0.00    +0.000 C 
ATOM     27  N   UNL     1      -0.931  15.023  24.363  0.00  0.00    +0.000 NA
ENDBRANCH   2  26
TORSDOF 2
ENDMDL
