MODEL 1
REMARK VINA RESULT:      -6.7      0.000      0.000
REMARK  Name = 
REMARK  12 active torsions:
REMARK  status: ('A' for Active; 'I' for Inactive)
REMARK    1  A    between atoms: C_1  and  C_2
REMARK    2  A    between atoms: C_4  and  O_5
REMARK    3  A    between atoms: C_8  and  N_9
REMARK    4  A    between atoms: C_10  and  C_12
REMARK    5  A    between atoms: C_12  and  C_13
REMARK    6  A    between atoms: C_13  and  N_14
REMARK    7  A    between atoms: C_13  and  C_19
REMARK    8  A    between atoms: N_14  and  C_15
REMARK    9  A    between atoms: C_15  and  C_16
REMARK   10  A    between atoms: C_16  and  C_17
REMARK   11  A    between atoms: C_16  and  C_18
REMARK   12  A    between atoms: C_19  and  O_21
REMARK                            x       y       z     vdW  Elec       q    Type
REMARK                         _______ _______ _______ _____ _____    ______ ____
ROOT
ATOM      1  N   UNK A   1       3.920   3.115  17.951  0.00  0.00    +0.000 N 
ATOM      2  C   UNK A   1       2.569   2.969  17.597  0.00  0.00    +0.000 C 
ATOM      3  O   UNK A   1       2.002   3.421  16.609  0.00  0.00    +0.000 OA
ATOM      4  H   UNK A   1       4.219   2.685  18.803  0.00  0.00    +0.000 HD
ENDROOT
BRANCH   1  11
ATOM      5  C   UNK A   1       5.719   5.207  19.213  0.00  0.00    +0.000 C 
ATOM      6  C   UNK A   1       5.772   4.767  17.770  0.00  0.00    +0.000 A 
ATOM      7  C   UNK A   1       6.748   5.409  16.969  0.00  0.00    +0.000 A 
ATOM      8  C   UNK A   1       6.899   5.074  15.631  0.00  0.00    +0.000 A 
ATOM      9  C   UNK A   1       6.110   4.094  15.066  0.00  0.00    +0.000 A 
ATOM     10  C   UNK A   1       5.137   3.460  15.841  0.00  0.00    +0.000 A 
ATOM     11  C   UNK A   1       4.936   3.777  17.190  0.00  0.00    +0.000 A 
BRANCH   8  12
ATOM     12  O   UNK A   1       7.816   5.694  14.834  0.00  0.00    +0.000 OA
ATOM     13  H   UNK A   1       8.003   6.575  15.197  0.00  0.00    +0.000 HD
ENDBRANCH   8  12
ENDBRANCH   1  11
BRANCH   2  14
ATOM     14  C   UNK A   1       1.739   2.291  18.669  0.00  0.00    +0.000 C 
BRANCH  14  15
ATOM     15  C   UNK A   1       1.320   3.225  19.835  0.00  0.00    +0.000 C 
BRANCH  15  16
ATOM     16  N   UNK A   1       1.656   4.648  19.507  0.00  0.00    +0.000 NA
ATOM     17  H   UNK A   1       2.538   4.734  19.010  0.00  0.00    +0.000 HD
BRANCH  16  18
ATOM     18  C   UNK A   0       1.769   5.538  20.677  0.00  0.00    +0.000 C 
BRANCH  18  19
ATOM     19  C   UNK A   0       2.282   6.922  20.220  0.00  0.00    +0.000 C 
ATOM     20  C   UNK A   0       2.355   6.994  18.692  0.00  0.00    +0.000 C 
ATOM     21  C   UNK A   0       1.395   8.048  20.761  0.00  0.00    +0.000 C 
ENDBRANCH  18  19
ENDBRANCH  16  18
ENDBRANCH  15  16
BRANCH  15  22
ATOM     22  C   UNK A   1       2.077   2.756  21.114  0.00  0.00    +0.000 C 
ATOM     23  O   UNK A   1       1.550   2.582  22.206  0.00  0.00    +0.000 OA
BRANCH  22  24
ATOM     24  O   UNK A   1       3.412   2.579  20.975  0.00  0.00    +0.000 OA
ATOM     25  H   UNK A   1       3.889   2.461  21.811  0.00  0.00    +0.000 HD
ENDBRANCH  22  24
ENDBRANCH  15  22
ENDBRANCH  14  15
ENDBRANCH   2  14
TORSDOF 9
ENDMDL
MODEL 2
REMARK VINA RESULT:      -6.6      2.065      6.480
REMARK  Name = 
REMARK  12 active torsions:
REMARK  status: ('A' for Active; 'I' for Inactive)
REMARK    1  A    between atoms: C_1  and  C_2
REMARK    2  A    between atoms: C_4  and  O_5
REMARK    3  A    between atoms: C_8  and  N_9
REMARK    4  A    between atoms: C_10  and  C_12
REMARK    5  A    between atoms: C_12  and  C_13
REMARK    6  A    between atoms: C_13  and  N_14
REMARK    7  A    between atoms: C_13  and  C_19
REMARK    8  A    between atoms: N_14  and  C_15
REMARK    9  A    between atoms: C_15  and  C_16
REMARK   10  A    between atoms: C_16  and  C_17
REMARK   11  A    between atoms: C_16  and  C_18
REMARK   12  A    between atoms: C_19  and  O_21
REMARK                            x       y       z     vdW  Elec       q    Type
REMARK                         _______ _______ _______ _____ _____    ______ ____
ROOT
ATOM      1  N   UNK A   1       3.470   4.138  17.499  0.00  0.00    +0.000 N 
ATOM      2  C   UNK A   1       4.858   4.148  17.287  0.00  0.00    +0.000 C 
ATOM      3  O   UNK A   1       5.741   3.911  18.103  0.00  0.00    +0.000 OA
ATOM      4  H   UNK A   1       2.886   4.365  16.720  0.00  0.00    +0.000 HD
ENDROOT
BRANCH   1  11
ATOM      5  C   UNK A   1       2.896   6.210  19.640  0.00  0.00    +0.000 C 
ATOM      6  C   UNK A   1       2.534   4.748  19.723  0.00  0.00    +0.000 A 
ATOM      7  C   UNK A   1       1.881   4.344  20.914  0.00  0.00    +0.000 A 
ATOM      8  C   UNK A   1       1.488   3.027  21.094  0.00  0.00    +0.000 A 
ATOM      9  C   UNK A   1       1.711   2.092  20.106  0.00  0.00    +0.000 A 
ATOM     10  C   UNK A   1       2.362   2.473  18.931  0.00  0.00    +0.000 A 
ATOM     11  C   UNK A   1       2.794   3.787  18.711  0.00  0.00    +0.000 A 
BRANCH   8  12
ATOM     12  O   UNK A   1       0.878   2.610  22.242  0.00  0.00    +0.000 OA
ATOM     13  H   UNK A   1       0.239   1.913  22.022  0.00  0.00    +0.000 HD
ENDBRANCH   8  12
ENDBRANCH   1  11
BRANCH   2  14
ATOM     14  C   UNK A   1       5.249   4.657  15.914  0.00  0.00    +0.000 C 
BRANCH  14  15
ATOM     15  C   UNK A   1       6.762   4.531  15.596  0.00  0.00    +0.000 C 
BRANCH  15  16
ATOM     16  N   UNK A   1       7.521   5.660  16.224  0.00  0.00    +0.000 NA
ATOM     17  H   UNK A   1       7.982   5.386  17.086  0.00  0.00    +0.000 HD
BRANCH  16  18
ATOM     18  C   UNK A   0       6.700   6.836  16.568  0.00  0.00    +0.000 C 
BRANCH  18  19
ATOM     19  C   UNK A   0       7.178   7.417  17.918  0.00  0.00    +0.000 C 
ATOM     20  C   UNK A   0       7.952   6.363  18.716  0.00  0.00    +0.000 C 
ATOM     21  C   UNK A   0       8.045   8.663  17.708  0.00  0.00    +0.000 C 
ENDBRANCH  18  19
ENDBRANCH  16  18
ENDBRANCH  15  16
BRANCH  15  22
ATOM     22  C   UNK A   1       6.925   4.545  14.046  0.00  0.00    +0.000 C 
ATOM     23  O   UNK A   1       7.500   5.425  13.418  0.00  0.00    +0.000 OA
BRANCH  22  24
ATOM     24  O   UNK A   1       6.342   3.517  13.385  0.00  0.00    +0.000 OA
ATOM     25  H   UNK A   1       5.426   3.342  13.646  0.00  0.00    +0.000 HD
ENDBRANCH  22  24
ENDBRANCH  15  22
ENDBRANCH  14  15
ENDBRANCH   2  14
TORSDOF 9
ENDMDL
MODEL 3
REMARK VINA RESULT:      -6.5      2.177      6.199
REMARK  Name = 
REMARK  12 active torsions:
REMARK  status: ('A' for Active; 'I' for Inactive)
REMARK    1  A    between atoms: C_1  and  C_2
REMARK    2  A    between atoms: C_4  and  O_5
REMARK    3  A    between atoms: C_8  and  N_9
REMARK    4  A    between atoms: C_10  and  C_12
REMARK    5  A    between atoms: C_12  and  C_13
REMARK    6  A    between atoms: C_13  and  N_14
REMARK    7  A    between atoms: C_13  and  C_19
REMARK    8  A    between atoms: N_14  and  C_15
REMARK    9  A    between atoms: C_15  and  C_16
REMARK   10  A    between atoms: C_16  and  C_17
REMARK   11  A    between atoms: C_16  and  C_18
REMARK   12  A    between atoms: C_19  and  O_21
REMARK                            x       y       z     vdW  Elec       q    Type
REMARK                         _______ _______ _______ _____ _____    ______ ____
ROOT
ATOM      1  N   UNK A   1       3.544   3.041  17.865  0.00  0.00    +0.000 N 
ATOM      2  C   UNK A   1       3.796   4.230  17.162  0.00  0.00    +0.000 C 
ATOM      3  O   UNK A   1       3.433   5.363  17.456  0.00  0.00    +0.000 OA
ATOM      4  H   UNK A   1       3.910   2.194  17.478  0.00  0.00    +0.000 HD
ENDROOT
BRANCH   1  11
ATOM      5  C   UNK A   1       4.972   2.064  20.357  0.00  0.00    +0.000 C 
ATOM      6  C   UNK A   1       3.514   2.447  20.281  0.00  0.00    +0.000 A 
ATOM      7  C   UNK A   1       2.783   2.320  21.488  0.00  0.00    +0.000 A 
ATOM      8  C   UNK A   1       1.439   2.658  21.541  0.00  0.00    +0.000 A 
ATOM      9  C   UNK A   1       0.799   3.141  20.420  0.00  0.00    +0.000 A 
ATOM     10  C   UNK A   1       1.504   3.262  19.221  0.00  0.00    +0.000 A 
ATOM     11  C   UNK A   1       2.856   2.916  19.114  0.00  0.00    +0.000 A 
BRANCH   8  12
ATOM     12  O   UNK A   1       0.710   2.524  22.686  0.00  0.00    +0.000 OA
ATOM     13  H   UNK A   1      -0.004   3.182  22.683  0.00  0.00    +0.000 HD
ENDBRANCH   8  12
ENDBRANCH   1  11
BRANCH   2  14
ATOM     14  C   UNK A   1       4.472   4.003  15.824  0.00  0.00    +0.000 C 
BRANCH  14  15
ATOM     15  C   UNK A   1       6.021   4.057  15.877  0.00  0.00    +0.000 C 
BRANCH  15  16
ATOM     16  N   UNK A   1       6.496   3.960  17.294  0.00  0.00    +0.000 NA
ATOM     17  H   UNK A   1       5.851   4.393  17.950  0.00  0.00    +0.000 HD
BRANCH  16  18
ATOM     18  C   UNK A   0       7.805   4.591  17.549  0.00  0.00    +0.000 C 
BRANCH  18  19
ATOM     19  C   UNK A   0       7.677   5.579  18.729  0.00  0.00    +0.000 C 
ATOM     20  C   UNK A   0       7.894   7.019  18.255  0.00  0.00    +0.000 C 
ATOM     21  C   UNK A   0       6.313   5.448  19.415  0.00  0.00    +0.000 C 
ENDBRANCH  18  19
ENDBRANCH  16  18
ENDBRANCH  15  16
BRANCH  15  22
ATOM     22  C   UNK A   1       6.472   5.402  15.230  0.00  0.00    +0.000 C 
ATOM     23  O   UNK A   1       5.888   6.469  15.370  0.00  0.00    +0.000 OA
BRANCH  22  24
ATOM     24  O   UNK A   1       7.566   5.333  14.435  0.00  0.00    +0.000 OA
ATOM     25  H   UNK A   1       7.385   5.469  13.493  0.00  0.00    +0.000 HD
ENDBRANCH  22  24
ENDBRANCH  15  22
ENDBRANCH  14  15
ENDBRANCH   2  14
TORSDOF 9
ENDMDL
MODEL 4
REMARK VINA RESULT:      -6.4      2.594      6.037
REMARK  Name = 
REMARK  12 active torsions:
REMARK  status: ('A' for Active; 'I' for Inactive)
REMARK    1  A    between atoms: C_1  and  C_2
REMARK    2  A    between atoms: C_4  and  O_5
REMARK    3  A    between atoms: C_8  and  N_9
REMARK    4  A    between atoms: C_10  and  C_12
REMARK    5  A    between atoms: C_12  and  C_13
REMARK    6  A    between atoms: C_13  and  N_14
REMARK    7  A    between atoms: C_13  and  C_19
REMARK    8  A    between atoms: N_14  and  C_15
REMARK    9  A    between atoms: C_15  and  C_16
REMARK   10  A    between atoms: C_16  and  C_17
REMARK   11  A    between atoms: C_16  and  C_18
REMARK   12  A    between atoms: C_19  and  O_21
REMARK                            x       y       z     vdW  Elec       q    Type
REMARK                         _______ _______ _______ _____ _____    ______ ____
ROOT
ATOM      1  N   UNK A   1       3.018   6.924  18.864  0.00  0.00    +0.000 N 
ATOM      2  C   UNK A   1       2.716   5.853  18.007  0.00  0.00    +0.000 C 
ATOM      3  O   UNK A   1       1.611   5.388  17.752  0.00  0.00    +0.000 OA
ATOM      4  H   UNK A   1       3.981   7.171  18.966  0.00  0.00    +0.000 HD
ENDROOT
BRANCH   1  11
ATOM      5  C   UNK A   1       1.927   9.485  17.658  0.00  0.00    +0.000 C 
ATOM      6  C   UNK A   1       1.576   8.946  19.024  0.00  0.00    +0.000 A 
ATOM      7  C   UNK A   1       0.667   9.729  19.777  0.00  0.00    +0.000 A 
ATOM      8  C   UNK A   1       0.260   9.323  21.040  0.00  0.00    +0.000 A 
ATOM      9  C   UNK A   1       0.723   8.139  21.573  0.00  0.00    +0.000 A 
ATOM     10  C   UNK A   1       1.627   7.362  20.846  0.00  0.00    +0.000 A 
ATOM     11  C   UNK A   1       2.080   7.739  19.575  0.00  0.00    +0.000 A 
BRANCH   8  12
ATOM     12  O   UNK A   1      -0.597  10.071  21.793  0.00  0.00    +0.000 OA
ATOM     13  H   UNK A   1      -0.436  11.011  21.612  0.00  0.00    +0.000 HD
ENDBRANCH   8  12
ENDBRANCH   1  11
BRANCH   2  14
ATOM     14  C   UNK A   1       3.947   5.142  17.482  0.00  0.00    +0.000 C 
BRANCH  14  15
ATOM     15  C   UNK A   1       4.538   4.091  18.457  0.00  0.00    +0.000 C 
BRANCH  15  16
ATOM     16  N   UNK A   1       3.677   3.971  19.677  0.00  0.00    +0.000 NA
ATOM     17  H   UNK A   1       4.118   4.367  20.503  0.00  0.00    +0.000 HD
BRANCH  16  18
ATOM     18  C   UNK A   0       3.316   2.589  20.042  0.00  0.00    +0.000 C 
BRANCH  18  19
ATOM     19  C   UNK A   0       1.778   2.471  20.143  0.00  0.00    +0.000 C 
ATOM     20  C   UNK A   0       1.179   3.735  20.766  0.00  0.00    +0.000 C 
ATOM     21  C   UNK A   0       1.152   2.210  18.769  0.00  0.00    +0.000 C 
ENDBRANCH  18  19
ENDBRANCH  16  18
ENDBRANCH  15  16
BRANCH  15  22
ATOM     22  C   UNK A   1       5.979   4.551  18.836  0.00  0.00    +0.000 C 
ATOM     23  O   UNK A   1       6.246   5.283  19.779  0.00  0.00    +0.000 OA
BRANCH  22  24
ATOM     24  O   UNK A   1       6.967   4.120  18.016  0.00  0.00    +0.000 OA
ATOM     25  H   UNK A   1       6.912   3.181  17.783  0.00  0.00    +0.000 HD
ENDBRANCH  22  24
ENDBRANCH  15  22
ENDBRANCH  14  15
ENDBRANCH   2  14
TORSDOF 9
ENDMDL
MODEL 5
REMARK VINA RESULT:      -6.4      2.214      6.455
REMARK  Name = 
REMARK  12 active torsions:
REMARK  status: ('A' for Active; 'I' for Inactive)
REMARK    1  A    between atoms: C_1  and  C_2
REMARK    2  A    between atoms: C_4  and  O_5
REMARK    3  A    between atoms: C_8  and  N_9
REMARK    4  A    between atoms: C_10  and  C_12
REMARK    5  A    between atoms: C_12  and  C_13
REMARK    6  A    between atoms: C_13  and  N_14
REMARK    7  A    between atoms: C_13  and  C_19
REMARK    8  A    between atoms: N_14  and  C_15
REMARK    9  A    between atoms: C_15  and  C_16
REMARK   10  A    between atoms: C_16  and  C_17
REMARK   11  A    between atoms: C_16  and  C_18
REMARK   12  A    between atoms: C_19  and  O_21
REMARK                            x       y       z     vdW  Elec       q    Type
REMARK                         _______ _______ _______ _____ _____    ______ ____
ROOT
ATOM      1  N   UNK A   1       4.119   3.906  17.515  0.00  0.00    +0.000 N 
ATOM      2  C   UNK A   1       4.359   5.217  17.072  0.00  0.00    +0.000 C 
ATOM      3  O   UNK A   1       3.948   6.260  17.566  0.00  0.00    +0.000 OA
ATOM      4  H   UNK A   1       4.528   3.162  16.985  0.00  0.00    +0.000 HD
ENDROOT
BRANCH   1  11
ATOM      5  C   UNK A   1       1.101   4.184  17.645  0.00  0.00    +0.000 C 
ATOM      6  C   UNK A   1       1.977   3.659  18.757  0.00  0.00    +0.000 A 
ATOM      7  C   UNK A   1       1.302   3.283  19.944  0.00  0.00    +0.000 A 
ATOM      8  C   UNK A   1       2.004   2.773  21.026  0.00  0.00    +0.000 A 
ATOM      9  C   UNK A   1       3.371   2.607  20.954  0.00  0.00    +0.000 A 
ATOM     10  C   UNK A   1       4.051   2.983  19.794  0.00  0.00    +0.000 A 
ATOM     11  C   UNK A   1       3.388   3.519  18.683  0.00  0.00    +0.000 A 
BRANCH   8  12
ATOM     12  O   UNK A   1       1.378   2.424  22.187  0.00  0.00    +0.000 OA
ATOM     13  H   UNK A   1       0.617   3.011  22.323  0.00  0.00    +0.000 HD
ENDBRANCH   8  12
ENDBRANCH   1  11
BRANCH   2  14
ATOM     14  C   UNK A   1       5.093   5.276  15.747  0.00  0.00    +0.000 C 
BRANCH  14  15
ATOM     15  C   UNK A   1       6.379   4.411  15.693  0.00  0.00    +0.000 C 
BRANCH  15  16
ATOM     16  N   UNK A   1       7.397   4.933  16.660  0.00  0.00    +0.000 NA
ATOM     17  H   UNK A   1       7.202   4.654  17.617  0.00  0.00    +0.000 HD
BRANCH  16  18
ATOM     18  C   UNK A   0       7.520   6.403  16.691  0.00  0.00    +0.000 C 
BRANCH  18  19
ATOM     19  C   UNK A   0       7.456   6.891  18.156  0.00  0.00    +0.000 C 
ATOM     20  C   UNK A   0       7.933   5.794  19.113  0.00  0.00    +0.000 C 
ATOM     21  C   UNK A   0       8.286   8.163  18.352  0.00  0.00    +0.000 C 
ENDBRANCH  18  19
ENDBRANCH  16  18
ENDBRANCH  15  16
BRANCH  15  22
ATOM     22  C   UNK A   1       6.923   4.459  14.233  0.00  0.00    +0.000 C 
ATOM     23  O   UNK A   1       7.674   5.325  13.801  0.00  0.00    +0.000 OA
BRANCH  22  24
ATOM     24  O   UNK A   1       6.480   3.480  13.408  0.00  0.00    +0.000 OA
ATOM     25  H   UNK A   1       7.037   3.331  12.630  0.00  0.00    +0.000 HD
ENDBRANCH  22  24
ENDBRANCH  15  22
ENDBRANCH  14  15
ENDBRANCH   2  14
TORSDOF 9
ENDMDL
MODEL 6
REMARK VINA RESULT:      -6.4      2.573      5.923
REMARK  Name = 
REMARK  12 active torsions:
REMARK  status: ('A' for Active; 'I' for Inactive)
REMARK    1  A    between atoms: C_1  and  C_2
REMARK    2  A    between atoms: C_4  and  O_5
REMARK    3  A    between atoms: C_8  and  N_9
REMARK    4  A    between atoms: C_10  and  C_12
REMARK    5  A    between atoms: C_12  and  C_13
REMARK    6  A    between atoms: C_13  and  N_14
REMARK    7  A    between atoms: C_13  and  C_19
REMARK    8  A    between atoms: N_14  and  C_15
REMARK    9  A    between atoms: C_15  and  C_16
REMARK   10  A    between atoms: C_16  and  C_17
REMARK   11  A    between atoms: C_16  and  C_18
REMARK   12  A    between atoms: C_19  and  O_21
REMARK                            x       y       z     vdW  Elec       q    Type
REMARK                         _______ _______ _______ _____ _____    ______ ____
ROOT
ATOM      1  N   UNK A   1       2.962   6.449  19.109  0.00  0.00    +0.000 N 
ATOM      2  C   UNK A   1       2.599   5.337  18.332  0.00  0.00    +0.000 C 
ATOM      3  O   UNK A   1       1.469   4.983  18.016  0.00  0.00    +0.000 OA
ATOM      4  H   UNK A   1       3.938   6.589  19.280  0.00  0.00    +0.000 HD
ENDROOT
BRANCH   1  11
ATOM      5  C   UNK A   1       2.278   8.959  17.549  0.00  0.00    +0.000 C 
ATOM      6  C   UNK A   1       1.767   8.623  18.929  0.00  0.00    +0.000 A 
ATOM      7  C   UNK A   1       0.906   9.585  19.514  0.00  0.00    +0.000 A 
ATOM      8  C   UNK A   1       0.363   9.375  20.773  0.00  0.00    +0.000 A 
ATOM      9  C   UNK A   1       0.640   8.216  21.466  0.00  0.00    +0.000 A 
ATOM     10  C   UNK A   1       1.494   7.265  20.906  0.00  0.00    +0.000 A 
ATOM     11  C   UNK A   1       2.081   7.439  19.647  0.00  0.00    +0.000 A 
BRANCH   8  12
ATOM     12  O   UNK A   1      -0.451  10.296  21.366  0.00  0.00    +0.000 OA
ATOM     13  H   UNK A   1      -1.371   9.993  21.297  0.00  0.00    +0.000 HD
ENDBRANCH   8  12
ENDBRANCH   1  11
BRANCH   2  14
ATOM     14  C   UNK A   1       3.769   4.432  17.997  0.00  0.00    +0.000 C 
BRANCH  14  15
ATOM     15  C   UNK A   1       4.506   3.861  19.235  0.00  0.00    +0.000 C 
BRANCH  15  16
ATOM     16  N   UNK A   1       5.986   4.034  19.085  0.00  0.00    +0.000 NA
ATOM     17  H   UNK A   1       6.511   3.512  19.781  0.00  0.00    +0.000 HD
BRANCH  16  18
ATOM     18  C   UNK A   0       6.457   5.428  19.194  0.00  0.00    +0.000 C 
BRANCH  18  19
ATOM     19  C   UNK A   0       7.550   5.684  18.132  0.00  0.00    +0.000 C 
ATOM     20  C   UNK A   0       7.453   4.659  16.998  0.00  0.00    +0.000 C 
ATOM     21  C   UNK A   0       7.453   7.106  17.570  0.00  0.00    +0.000 C 
ENDBRANCH  18  19
ENDBRANCH  16  18
ENDBRANCH  15  16
BRANCH  15  22
ATOM     22  C   UNK A   1       4.132   2.353  19.357  0.00  0.00    +0.000 C 
ATOM     23  O   UNK A   1       3.076   1.867  18.975  0.00  0.00    +0.000 OA
BRANCH  22  24
ATOM     24  O   UNK A   1       5.051   1.568  19.970  0.00  0.00    +0.000 OA
ATOM     25  H   UNK A   1       5.259   1.832  20.879  0.00  0.00    +0.000 HD
ENDBRANCH  22  24
ENDBRANCH  15  22
ENDBRANCH  14  15
ENDBRANCH   2  14
TORSDOF 9
ENDMDL
MODEL 7
REMARK VINA RESULT:      -6.4      2.185      6.715
REMARK  Name = 
REMARK  12 active torsions:
REMARK  status: ('A' for Active; 'I' for Inactive)
REMARK    1  A    between atoms: C_1  and  C_2
REMARK    2  A    between atoms: C_4  and  O_5
REMARK    3  A    between atoms: C_8  and  N_9
REMARK    4  A    between atoms: C_10  and  C_12
REMARK    5  A    between atoms: C_12  and  C_13
REMARK    6  A    between atoms: C_13  and  N_14
REMARK    7  A    between atoms: C_13  and  C_19
REMARK    8  A    between atoms: N_14  and  C_15
REMARK    9  A    between atoms: C_15  and  C_16
REMARK   10  A    between atoms: C_16  and  C_17
REMARK   11  A    between atoms: C_16  and  C_18
REMARK   12  A    between atoms: C_19  and  O_21
REMARK                            x       y       z     vdW  Elec       q    Type
REMARK                         _______ _______ _______ _____ _____    ______ ____
ROOT
ATOM      1  N   UNK A   1       4.239   5.398  18.355  0.00  0.00    +0.000 N 
ATOM      2  C   UNK A   1       4.488   4.966  17.042  0.00  0.00    +0.000 C 
ATOM      3  O   UNK A   1       4.194   3.886  16.542  0.00  0.00    +0.000 OA
ATOM      4  H   UNK A   1       4.556   6.313  18.603  0.00  0.00    +0.000 HD
ENDROOT
BRANCH   1  11
ATOM      5  C   UNK A   1       2.040   6.722  19.972  0.00  0.00    +0.000 C 
ATOM      6  C   UNK A   1       2.509   5.297  20.140  0.00  0.00    +0.000 A 
ATOM      7  C   UNK A   1       1.851   4.550  21.149  0.00  0.00    +0.000 A 
ATOM      8  C   UNK A   1       2.189   3.226  21.383  0.00  0.00    +0.000 A 
ATOM      9  C   UNK A   1       3.159   2.610  20.621  0.00  0.00    +0.000 A 
ATOM     10  C   UNK A   1       3.823   3.336  19.631  0.00  0.00    +0.000 A 
ATOM     11  C   UNK A   1       3.530   4.681  19.370  0.00  0.00    +0.000 A 
BRANCH   8  12
ATOM     12  O   UNK A   1       1.585   2.493  22.363  0.00  0.00    +0.000 OA
ATOM     13  H   UNK A   1       0.755   2.129  22.016  0.00  0.00    +0.000 HD
ENDBRANCH   8  12
ENDBRANCH   1  11
BRANCH   2  14
ATOM     14  C   UNK A   1       5.346   5.929  16.247  0.00  0.00    +0.000 C 
BRANCH  14  15
ATOM     15  C   UNK A   1       6.756   5.386  15.897  0.00  0.00    +0.000 C 
BRANCH  15  16
ATOM     16  N   UNK A   1       6.642   4.155  15.050  0.00  0.00    +0.000 NA
ATOM     17  H   UNK A   1       7.531   3.884  14.638  0.00  0.00    +0.000 HD
BRANCH  16  18
ATOM     18  C   UNK A   0       5.699   4.269  13.923  0.00  0.00    +0.000 C 
BRANCH  18  19
ATOM     19  C   UNK A   0       6.242   3.470  12.717  0.00  0.00    +0.000 C 
ATOM     20  C   UNK A   0       5.100   3.053  11.785  0.00  0.00    +0.000 C 
ATOM     21  C   UNK A   0       7.289   4.278  11.944  0.00  0.00    +0.000 C 
ENDBRANCH  18  19
ENDBRANCH  16  18
ENDBRANCH  15  16
BRANCH  15  22
ATOM     22  C   UNK A   1       7.491   5.073  17.236  0.00  0.00    +0.000 C 
ATOM     23  O   UNK A   1       8.138   4.057  17.450  0.00  0.00    +0.000 OA
BRANCH  22  24
ATOM     24  O   UNK A   1       7.344   5.997  18.216  0.00  0.00    +0.000 OA
ATOM     25  H   UNK A   1       7.879   5.829  19.006  0.00  0.00    +0.000 HD
ENDBRANCH  22  24
ENDBRANCH  15  22
ENDBRANCH  14  15
ENDBRANCH   2  14
TORSDOF 9
ENDMDL
MODEL 8
REMARK VINA RESULT:      -6.3      2.327      6.901
REMARK  Name = 
REMARK  12 active torsions:
REMARK  status: ('A' for Active; 'I' for Inactive)
REMARK    1  A    between atoms: C_1  and  C_2
REMARK    2  A    between atoms: C_4  and  O_5
REMARK    3  A    between atoms: C_8  and  N_9
REMARK    4  A    between atoms: C_10  and  C_12
REMARK    5  A    between atoms: C_12  and  C_13
REMARK    6  A    between atoms: C_13  and  N_14
REMARK    7  A    between atoms: C_13  and  C_19
REMARK    8  A    between atoms: N_14  and  C_15
REMARK    9  A    between atoms: C_15  and  C_16
REMARK   10  A    between atoms: C_16  and  C_17
REMARK   11  A    between atoms: C_16  and  C_18
REMARK   12  A    between atoms: C_19  and  O_21
REMARK                            x       y       z     vdW  Elec       q    Type
REMARK                         _______ _______ _______ _____ _____    ______ ____
ROOT
ATOM      1  N   UNK A   1       4.172   3.264  18.067  0.00  0.00    +0.000 N 
ATOM      2  C   UNK A   1       4.558   4.499  17.522  0.00  0.00    +0.000 C 
ATOM      3  O   UNK A   1       4.176   5.615  17.854  0.00  0.00    +0.000 OA
ATOM      4  H   UNK A   1       4.579   2.441  17.669  0.00  0.00    +0.000 HD
ENDROOT
BRANCH   1  11
ATOM      5  C   UNK A   1       1.201   3.831  17.836  0.00  0.00    +0.000 C 
ATOM      6  C   UNK A   1       1.900   3.334  19.078  0.00  0.00    +0.000 A 
ATOM      7  C   UNK A   1       1.071   3.134  20.209  0.00  0.00    +0.000 A 
ATOM      8  C   UNK A   1       1.602   2.664  21.402  0.00  0.00    +0.000 A 
ATOM      9  C   UNK A   1       2.945   2.367  21.496  0.00  0.00    +0.000 A 
ATOM     10  C   UNK A   1       3.775   2.568  20.393  0.00  0.00    +0.000 A 
ATOM     11  C   UNK A   1       3.289   3.058  19.174  0.00  0.00    +0.000 A 
BRANCH   8  12
ATOM     12  O   UNK A   1       0.828   2.485  22.511  0.00  0.00    +0.000 OA
ATOM     13  H   UNK A   1       1.382   2.590  23.301  0.00  0.00    +0.000 HD
ENDBRANCH   8  12
ENDBRANCH   1  11
BRANCH   2  14
ATOM     14  C   UNK A   1       5.437   4.364  16.294  0.00  0.00    +0.000 C 
BRANCH  14  15
ATOM     15  C   UNK A   1       6.541   5.447  16.179  0.00  0.00    +0.000 C 
BRANCH  15  16
ATOM     16  N   UNK A   1       7.290   5.291  14.890  0.00  0.00    +0.000 NA
ATOM     17  H   UNK A   1       7.095   6.042  14.235  0.00  0.00    +0.000 HD
BRANCH  16  18
ATOM     18  C   UNK A   0       7.004   4.041  14.160  0.00  0.00    +0.000 C 
BRANCH  18  19
ATOM     19  C   UNK A   0       6.418   4.382  12.772  0.00  0.00    +0.000 C 
ATOM     20  C   UNK A   0       7.506   4.934  11.846  0.00  0.00    +0.000 C 
ATOM     21  C   UNK A   0       5.753   3.158  12.136  0.00  0.00    +0.000 C 
ENDBRANCH  18  19
ENDBRANCH  16  18
ENDBRANCH  15  16
BRANCH  15  22
ATOM     22  C   UNK A   1       7.496   5.284  17.400  0.00  0.00    +0.000 C 
ATOM     23  O   UNK A   1       7.686   6.144  18.251  0.00  0.00    +0.000 OA
BRANCH  22  24
ATOM     24  O   UNK A   1       8.172   4.112  17.464  0.00  0.00    +0.000 OA
ATOM     25  H   UNK A   1       7.607   3.330  17.551  0.00  0.00    +0.000 HD
ENDBRANCH  22  24
ENDBRANCH  15  22
ENDBRANCH  14  15
ENDBRANCH   2  14
TORSDOF 9
ENDMDL
MODEL 9
REMARK VINA RESULT:      -6.3      2.322      6.496
REMARK  Name = 
REMARK  12 active torsions:
REMARK  status: ('A' for Active; 'I' for Inactive)
REMARK    1  A    between atoms: C_1  and  C_2
REMARK    2  A    between atoms: C_4  and  O_5
REMARK    3  A    between atoms: C_8  and  N_9
REMARK    4  A    between atoms: C_10  and  C_12
REMARK    5  A    between atoms: C_12  and  C_13
REMARK    6  A    between atoms: C_13  and  N_14
REMARK    7  A    between atoms: C_13  and  C_19
REMARK    8  A    between atoms: N_14  and  C_15
REMARK    9  A    between atoms: C_15  and  C_16
REMARK   10  A    between atoms: C_16  and  C_17
REMARK   11  A    between atoms: C_16  and  C_18
REMARK   12  A    between atoms: C_19  and  O_21
REMARK                            x       y       z     vdW  Elec       q    Type
REMARK                         _______ _______ _______ _____ _____    ______ ____
ROOT
ATOM      1  N   UNK A   1       4.653   5.452  18.608  0.00  0.00    +0.000 N 
ATOM      2  C   UNK A   1       4.789   6.482  17.664  0.00  0.00    +0.000 C 
ATOM      3  O   UNK A   1       3.937   6.908  16.894  0.00  0.00    +0.000 OA
ATOM      4  H   UNK A   1       5.458   5.222  19.155  0.00  0.00    +0.000 HD
ENDROOT
BRANCH   1  11
ATOM      5  C   UNK A   1       3.938   2.916  17.105  0.00  0.00    +0.000 C 
ATOM      6  C   UNK A   1       3.110   3.542  18.201  0.00  0.00    +0.000 A 
ATOM      7  C   UNK A   1       1.906   2.868  18.521  0.00  0.00    +0.000 A 
ATOM      8  C   UNK A   1       1.074   3.344  19.523  0.00  0.00    +0.000 A 
ATOM      9  C   UNK A   1       1.417   4.474  20.236  0.00  0.00    +0.000 A 
ATOM     10  C   UNK A   1       2.596   5.154  19.924  0.00  0.00    +0.000 A 
ATOM     11  C   UNK A   1       3.459   4.722  18.909  0.00  0.00    +0.000 A 
BRANCH   8  12
ATOM     12  O   UNK A   1      -0.101   2.725  19.835  0.00  0.00    +0.000 OA
ATOM     13  H   UNK A   1      -0.241   1.988  19.219  0.00  0.00    +0.000 HD
ENDBRANCH   8  12
ENDBRANCH   1  11
BRANCH   2  14
ATOM     14  C   UNK A   1       6.213   6.985  17.528  0.00  0.00    +0.000 C 
BRANCH  14  15
ATOM     15  C   UNK A   1       7.196   5.954  16.917  0.00  0.00    +0.000 C 
BRANCH  15  16
ATOM     16  N   UNK A   1       6.498   5.115  15.891  0.00  0.00    +0.000 NA
ATOM     17  H   UNK A   1       6.369   4.155  16.197  0.00  0.00    +0.000 HD
BRANCH  16  18
ATOM     18  C   UNK A   0       7.192   5.028  14.592  0.00  0.00    +0.000 C 
BRANCH  18  19
ATOM     19  C   UNK A   0       6.517   3.944  13.723  0.00  0.00    +0.000 C 
ATOM     20  C   UNK A   0       4.992   4.073  13.784  0.00  0.00    +0.000 C 
ATOM     21  C   UNK A   0       6.996   4.021  12.270  0.00  0.00    +0.000 C 
ENDBRANCH  18  19
ENDBRANCH  16  18
ENDBRANCH  15  16
BRANCH  15  22
ATOM     22  C   UNK A   1       7.742   5.071  18.080  0.00  0.00    +0.000 C 
ATOM     23  O   UNK A   1       7.653   5.355  19.267  0.00  0.00    +0.000 OA
BRANCH  22  24
ATOM     24  O   UNK A   1       8.385   3.939  17.705  0.00  0.00    +0.000 OA
ATOM     25  H   UNK A   1       8.622   3.907  16.766  0.00  0.00    +0.000 HD
ENDBRANCH  22  24
ENDBRANCH  15  22
ENDBRANCH  14  15
ENDBRANCH   2  14
TORSDOF 9
ENDMDL
