MODEL 1
REMARK VINA RESULT:      -6.6      0.000      0.000
REMARK  Name = 
REMARK  6 active torsions:
REMARK  status: ('A' for Active; 'I' for Inactive)
REMARK    1  A    between atoms: C_1  and  O_2
REMARK    2  A    between atoms: O_2  and  C_3
REMARK    3  A    between atoms: C_3  and  C_5
REMARK    4  A    between atoms: C_8  and  C_9
REMARK    5  A    between atoms: C_12  and  O_13
REMARK    6  A    between atoms: O_13  and  C_14
REMARK                            x       y       z     vdW  Elec       q    Type
REMARK                         _______ _______ _______ _____ _____    ______ ____
ROOT
ATOM      1  C   UNL     1       3.067   3.342  20.384  0.00  0.00    +0.000 A 
ATOM      2  C   UNL     1       4.123   2.473  20.234  0.00  0.00    +0.000 A 
ATOM      3  O   UNL     1       5.121   3.121  19.579  0.00  0.00    +0.000 OA
ATOM      4  C   UNL     1       4.630   4.384  19.367  0.00  0.00    +0.000 A 
ATOM      5  N   UNL     1       3.404   4.566  19.815  0.00  0.00    +0.000 NA
ENDROOT
BRANCH   4   6
ATOM      6  C   UNL     1       5.533   5.316  18.726  0.00  0.00    +0.000 A 
ATOM      7  C   UNL     1       6.840   5.495  19.138  0.00  0.00    +0.000 A 
ATOM      8  N   UNL     1       7.694   6.388  18.596  0.00  0.00    +0.000 NA
ATOM      9  C   UNL     1       7.214   7.117  17.581  0.00  0.00    +0.000 A 
ATOM     10  N   UNL     1       5.969   7.029  17.080  0.00  0.00    +0.000 NA
ATOM     11  C   UNL     1       5.155   6.123  17.674  0.00  0.00    +0.000 A 
BRANCH   9  12
ATOM     12  O   UNL     1       8.079   8.077  17.109  0.00  0.00    +0.000 OA
ATOM     13  C   UNL     1       8.146   9.209  17.962  0.00  0.00    +0.000 C 
ENDBRANCH   9  12
ENDBRANCH   4   6
BRANCH   1  14
ATOM     14  C   UNL     1       1.808   3.020  21.035  0.00  0.00    +0.000 C 
ATOM     15  O   UNL     1       1.744   2.541  22.163  0.00  0.00    +0.000 OA
BRANCH  14  17
ATOM     16  C   UNL     1       0.660   2.548  19.048  0.00  0.00    +0.000 C 
ATOM     17  O   UNL     1       0.727   3.305  20.254  0.00  0.00    +0.000 OA
ENDBRANCH  14  17
ENDBRANCH   1  14
TORSDOF 4
ENDMDL
MODEL 2
REMARK VINA RESULT:      -6.4      2.141      2.700
REMARK  Name = 
REMARK  6 active torsions:
REMARK  status: ('A' for Active; 'I' for Inactive)
REMARK    1  A    between atoms: C_1  and  O_2
REMARK    2  A    between atoms: O_2  and  C_3
REMARK    3  A    between atoms: C_3  and  C_5
REMARK    4  A    between atoms: C_8  and  C_9
REMARK    5  A    between atoms: C_12  and  O_13
REMARK    6  A    between atoms: O_13  and  C_14
REMARK                            x       y       z     vdW  Elec       q    Type
REMARK                         _______ _______ _______ _____ _____    ______ ____
ROOT
ATOM      1  C   UNL     1       2.859   4.184  20.183  0.00  0.00    +0.000 A 
ATOM      2  C   UNL     1       2.698   5.545  20.055  0.00  0.00    +0.000 A 
ATOM      3  O   UNL     1       3.583   5.996  19.129  0.00  0.00    +0.000 OA
ATOM      4  C   UNL     1       4.248   4.872  18.712  0.00  0.00    +0.000 A 
ATOM      5  N   UNL     1       3.865   3.766  19.318  0.00  0.00    +0.000 NA
ENDROOT
BRANCH   4   6
ATOM      6  C   UNL     1       5.226   5.066  17.664  0.00  0.00    +0.000 A 
ATOM      7  C   UNL     1       4.961   5.795  16.519  0.00  0.00    +0.000 A 
ATOM      8  N   UNL     1       5.832   5.955  15.500  0.00  0.00    +0.000 NA
ATOM      9  C   UNL     1       7.028   5.374  15.654  0.00  0.00    +0.000 A 
ATOM     10  N   UNL     1       7.411   4.652  16.721  0.00  0.00    +0.000 NA
ATOM     11  C   UNL     1       6.489   4.515  17.705  0.00  0.00    +0.000 A 
BRANCH   9  12
ATOM     12  O   UNL     1       7.859   5.482  14.563  0.00  0.00    +0.000 OA
ATOM     13  C   UNL     1       7.320   4.855  13.409  0.00  0.00    +0.000 C 
ENDBRANCH   9  12
ENDBRANCH   4   6
BRANCH   1  14
ATOM     14  C   UNL     1       2.094   3.334  21.080  0.00  0.00    +0.000 C 
ATOM     15  O   UNL     1       2.560   2.869  22.115  0.00  0.00    +0.000 OA
BRANCH  14  17
ATOM     16  C   UNL     1       0.746   2.553  19.331  0.00  0.00    +0.000 C 
ATOM     17  O   UNL     1       0.823   3.116  20.638  0.00  0.00    +0.000 OA
ENDBRANCH  14  17
ENDBRANCH   1  14
TORSDOF 4
ENDMDL
MODEL 3
REMARK VINA RESULT:      -6.4      2.406      2.862
REMARK  Name = 
REMARK  6 active torsions:
REMARK  status: ('A' for Active; 'I' for Inactive)
REMARK    1  A    between atoms: C_1  and  O_2
REMARK    2  A    between atoms: O_2  and  C_3
REMARK    3  A    between atoms: C_3  and  C_5
REMARK    4  A    between atoms: C_8  and  C_9
REMARK    5  A    between atoms: C_12  and  O_13
REMARK    6  A    between atoms: O_13  and  C_14
REMARK                            x       y       z     vdW  Elec       q    Type
REMARK                         _______ _______ _______ _____ _____    ______ ____
ROOT
ATOM      1  C   UNL     1       3.072   2.886  19.695  0.00  0.00    +0.000 A 
ATOM      2  C   UNL     1       2.905   1.969  18.683  0.00  0.00    +0.000 A 
ATOM      3  O   UNL     1       3.678   2.346  17.631  0.00  0.00    +0.000 OA
ATOM      4  C   UNL     1       4.307   3.488  18.057  0.00  0.00    +0.000 A 
ATOM      5  N   UNL     1       3.971   3.862  19.276  0.00  0.00    +0.000 NA
ENDROOT
BRANCH   4   6
ATOM      6  C   UNL     1       5.251   4.075  17.132  0.00  0.00    +0.000 A 
ATOM      7  C   UNL     1       4.967   4.265  15.792  0.00  0.00    +0.000 A 
ATOM      8  N   UNL     1       5.840   4.764  14.892  0.00  0.00    +0.000 NA
ATOM      9  C   UNL     1       7.044   5.105  15.369  0.00  0.00    +0.000 A 
ATOM     10  N   UNL     1       7.437   4.982  16.649  0.00  0.00    +0.000 NA
ATOM     11  C   UNL     1       6.521   4.463  17.503  0.00  0.00    +0.000 A 
BRANCH   9  12
ATOM     12  O   UNL     1       7.937   5.527  14.412  0.00  0.00    +0.000 OA
ATOM     13  C   UNL     1       7.620   5.031  13.122  0.00  0.00    +0.000 C 
ENDBRANCH   9  12
ENDBRANCH   4   6
BRANCH   1  14
ATOM     14  C   UNL     1       2.411   2.832  20.988  0.00  0.00    +0.000 C 
ATOM     15  O   UNL     1       2.967   2.429  22.004  0.00  0.00    +0.000 OA
BRANCH  14  17
ATOM     16  C   UNL     1       0.974   4.607  20.464  0.00  0.00    +0.000 C 
ATOM     17  O   UNL     1       1.120   3.269  20.934  0.00  0.00    +0.000 OA
ENDBRANCH  14  17
ENDBRANCH   1  14
TORSDOF 4
ENDMDL
MODEL 4
REMARK VINA RESULT:      -6.4      2.032      2.525
REMARK  Name = 
REMARK  6 active torsions:
REMARK  status: ('A' for Active; 'I' for Inactive)
REMARK    1  A    between atoms: C_1  and  O_2
REMARK    2  A    between atoms: O_2  and  C_3
REMARK    3  A    between atoms: C_3  and  C_5
REMARK    4  A    between atoms: C_8  and  C_9
REMARK    5  A    between atoms: C_12  and  O_13
REMARK    6  A    between atoms: O_13  and  C_14
REMARK                            x       y       z     vdW  Elec       q    Type
REMARK                         _______ _______ _______ _____ _____    ______ ____
ROOT
ATOM      1  C   UNL     1       3.088   3.176  20.176  0.00  0.00    +0.000 A 
ATOM      2  C   UNL     1       4.219   2.453  20.477  0.00  0.00    +0.000 A 
ATOM      3  O   UNL     1       5.170   2.739  19.551  0.00  0.00    +0.000 OA
ATOM      4  C   UNL     1       4.576   3.652  18.717  0.00  0.00    +0.000 A 
ATOM      5  N   UNL     1       3.329   3.937  19.037  0.00  0.00    +0.000 NA
ENDROOT
BRANCH   4   6
ATOM      6  C   UNL     1       5.407   4.177  17.656  0.00  0.00    +0.000 A 
ATOM      7  C   UNL     1       4.972   4.283  16.348  0.00  0.00    +0.000 A 
ATOM      8  N   UNL     1       5.735   4.722  15.325  0.00  0.00    +0.000 NA
ATOM      9  C   UNL     1       6.983   5.090  15.640  0.00  0.00    +0.000 A 
ATOM     10  N   UNL     1       7.519   5.046  16.872  0.00  0.00    +0.000 NA
ATOM     11  C   UNL     1       6.709   4.584  17.855  0.00  0.00    +0.000 A 
BRANCH   9  12
ATOM     12  O   UNL     1       7.760   5.448  14.563  0.00  0.00    +0.000 OA
ATOM     13  C   UNL     1       7.297   4.878  13.349  0.00  0.00    +0.000 C 
ENDBRANCH   9  12
ENDBRANCH   4   6
BRANCH   1  14
ATOM     14  C   UNL     1       1.849   3.140  20.934  0.00  0.00    +0.000 C 
ATOM     15  O   UNL     1       1.812   2.919  22.140  0.00  0.00    +0.000 OA
BRANCH  14  17
ATOM     16  C   UNL     1       0.582   2.440  19.092  0.00  0.00    +0.000 C 
ATOM     17  O   UNL     1       0.753   3.372  20.156  0.00  0.00    +0.000 OA
ENDBRANCH  14  17
ENDBRANCH   1  14
TORSDOF 4
ENDMDL
MODEL 5
REMARK VINA RESULT:      -6.3      3.130      6.903
REMARK  Name = 
REMARK  6 active torsions:
REMARK  status: ('A' for Active; 'I' for Inactive)
REMARK    1  A    between atoms: C_1  and  O_2
REMARK    2  A    between atoms: O_2  and  C_3
REMARK    3  A    between atoms: C_3  and  C_5
REMARK    4  A    between atoms: C_8  and  C_9
REMARK    5  A    between atoms: C_12  and  O_13
REMARK    6  A    between atoms: O_13  and  C_14
REMARK                            x       y       z     vdW  Elec       q    Type
REMARK                         _______ _______ _______ _____ _____    ______ ____
ROOT
ATOM      1  C   UNL     1       6.446   4.564  15.490  0.00  0.00    +0.000 A 
ATOM      2  C   UNL     1       7.159   4.632  16.665  0.00  0.00    +0.000 A 
ATOM      3  O   UNL     1       6.303   4.424  17.699  0.00  0.00    +0.000 OA
ATOM      4  C   UNL     1       5.086   4.219  17.102  0.00  0.00    +0.000 A 
ATOM      5  N   UNL     1       5.112   4.305  15.787  0.00  0.00    +0.000 NA
ENDROOT
BRANCH   4   6
ATOM      6  C   UNL     1       3.988   3.910  17.991  0.00  0.00    +0.000 A 
ATOM      7  C   UNL     1       2.822   4.653  18.028  0.00  0.00    +0.000 A 
ATOM      8  N   UNL     1       1.799   4.423  18.877  0.00  0.00    +0.000 NA
ATOM      9  C   UNL     1       1.950   3.386  19.710  0.00  0.00    +0.000 A 
ATOM     10  N   UNL     1       3.026   2.582  19.765  0.00  0.00    +0.000 NA
ATOM     11  C   UNL     1       4.025   2.871  18.897  0.00  0.00    +0.000 A 
BRANCH   9  12
ATOM     12  O   UNL     1       0.930   3.234  20.620  0.00  0.00    +0.000 OA
ATOM     13  C   UNL     1       1.366   2.620  21.823  0.00  0.00    +0.000 C 
ENDBRANCH   9  12
ENDBRANCH   4   6
BRANCH   1  14
ATOM     14  C   UNL     1       7.009   4.737  14.161  0.00  0.00    +0.000 C 
ATOM     15  O   UNL     1       7.922   5.521  13.921  0.00  0.00    +0.000 OA
BRANCH  14  17
ATOM     16  C   UNL     1       7.082   3.896  11.976  0.00  0.00    +0.000 C 
ATOM     17  O   UNL     1       6.408   3.941  13.231  0.00  0.00    +0.000 OA
ENDBRANCH  14  17
ENDBRANCH   1  14
TORSDOF 4
ENDMDL
MODEL 6
REMARK VINA RESULT:      -6.2      2.557      2.810
REMARK  Name = 
REMARK  6 active torsions:
REMARK  status: ('A' for Active; 'I' for Inactive)
REMARK    1  A    between atoms: C_1  and  O_2
REMARK    2  A    between atoms: O_2  and  C_3
REMARK    3  A    between atoms: C_3  and  C_5
REMARK    4  A    between atoms: C_8  and  C_9
REMARK    5  A    between atoms: C_12  and  O_13
REMARK    6  A    between atoms: O_13  and  C_14
REMARK                            x       y       z     vdW  Elec       q    Type
REMARK                         _______ _______ _______ _____ _____    ______ ____
ROOT
ATOM      1  C   UNL     1       3.033   3.107  19.620  0.00  0.00    +0.000 A 
ATOM      2  C   UNL     1       2.783   2.149  18.664  0.00  0.00    +0.000 A 
ATOM      3  O   UNL     1       3.565   2.408  17.584  0.00  0.00    +0.000 OA
ATOM      4  C   UNL     1       4.282   3.522  17.937  0.00  0.00    +0.000 A 
ATOM      5  N   UNL     1       3.994   3.988  19.136  0.00  0.00    +0.000 NA
ENDROOT
BRANCH   4   6
ATOM      6  C   UNL     1       5.253   3.983  16.969  0.00  0.00    +0.000 A 
ATOM      7  C   UNL     1       6.475   4.519  17.332  0.00  0.00    +0.000 A 
ATOM      8  N   UNL     1       7.383   5.004  16.459  0.00  0.00    +0.000 NA
ATOM      9  C   UNL     1       7.053   4.925  15.164  0.00  0.00    +0.000 A 
ATOM     10  N   UNL     1       5.905   4.416  14.684  0.00  0.00    +0.000 NA
ATOM     11  C   UNL     1       5.027   3.958  15.609  0.00  0.00    +0.000 A 
BRANCH   9  12
ATOM     12  O   UNL     1       7.959   5.506  14.308  0.00  0.00    +0.000 OA
ATOM     13  C   UNL     1       7.688   5.205  12.949  0.00  0.00    +0.000 C 
ENDBRANCH   9  12
ENDBRANCH   4   6
BRANCH   1  14
ATOM     14  C   UNL     1       2.389   3.174  20.922  0.00  0.00    +0.000 C 
ATOM     15  O   UNL     1       2.819   2.586  21.909  0.00  0.00    +0.000 OA
BRANCH  14  17
ATOM     16  C   UNL     1       1.526   5.348  20.789  0.00  0.00    +0.000 C 
ATOM     17  O   UNL     1       1.269   3.952  20.911  0.00  0.00    +0.000 OA
ENDBRANCH  14  17
ENDBRANCH   1  14
TORSDOF 4
ENDMDL
MODEL 7
REMARK VINA RESULT:      -6.2      2.774      3.315
REMARK  Name = 
REMARK  6 active torsions:
REMARK  status: ('A' for Active; 'I' for Inactive)
REMARK    1  A    between atoms: C_1  and  O_2
REMARK    2  A    between atoms: O_2  and  C_3
REMARK    3  A    between atoms: C_3  and  C_5
REMARK    4  A    between atoms: C_8  and  C_9
REMARK    5  A    between atoms: C_12  and  O_13
REMARK    6  A    between atoms: O_13  and  C_14
REMARK                            x       y       z     vdW  Elec       q    Type
REMARK                         _______ _______ _______ _____ _____    ______ ____
ROOT
ATOM      1  C   UNL     1       2.243   4.097  18.593  0.00  0.00    +0.000 A 
ATOM      2  C   UNL     1       2.242   5.471  18.518  0.00  0.00    +0.000 A 
ATOM      3  O   UNL     1       3.299   5.860  17.758  0.00  0.00    +0.000 OA
ATOM      4  C   UNL     1       3.903   4.687  17.382  0.00  0.00    +0.000 A 
ATOM      5  N   UNL     1       3.321   3.606  17.864  0.00  0.00    +0.000 NA
ENDROOT
BRANCH   4   6
ATOM      6  C   UNL     1       5.043   4.815  16.502  0.00  0.00    +0.000 A 
ATOM      7  C   UNL     1       6.015   5.784  16.672  0.00  0.00    +0.000 A 
ATOM      8  N   UNL     1       7.065   5.962  15.842  0.00  0.00    +0.000 NA
ATOM      9  C   UNL     1       7.149   5.114  14.810  0.00  0.00    +0.000 A 
ATOM     10  N   UNL     1       6.277   4.125  14.544  0.00  0.00    +0.000 NA
ATOM     11  C   UNL     1       5.238   4.004  15.404  0.00  0.00    +0.000 A 
BRANCH   9  12
ATOM     12  O   UNL     1       8.178   5.378  13.937  0.00  0.00    +0.000 OA
ATOM     13  C   UNL     1       7.794   5.209  12.582  0.00  0.00    +0.000 C 
ENDBRANCH   9  12
ENDBRANCH   4   6
BRANCH   1  14
ATOM     14  C   UNL     1       1.269   3.301  19.319  0.00  0.00    +0.000 C 
ATOM     15  O   UNL     1       0.662   2.363  18.811  0.00  0.00    +0.000 OA
BRANCH  14  17
ATOM     16  C   UNL     1       1.933   3.032  21.550  0.00  0.00    +0.000 C 
ATOM     17  O   UNL     1       1.110   3.716  20.609  0.00  0.00    +0.000 OA
ENDBRANCH  14  17
ENDBRANCH   1  14
TORSDOF 4
ENDMDL
MODEL 8
REMARK VINA RESULT:      -6.2      0.877      1.369
REMARK  Name = 
REMARK  6 active torsions:
REMARK  status: ('A' for Active; 'I' for Inactive)
REMARK    1  A    between atoms: C_1  and  O_2
REMARK    2  A    between atoms: O_2  and  C_3
REMARK    3  A    between atoms: C_3  and  C_5
REMARK    4  A    between atoms: C_8  and  C_9
REMARK    5  A    between atoms: C_12  and  O_13
REMARK    6  A    between atoms: O_13  and  C_14
REMARK                            x       y       z     vdW  Elec       q    Type
REMARK                         _______ _______ _______ _____ _____    ______ ____
ROOT
ATOM      1  C   UNL     1       3.182   3.016  19.313  0.00  0.00    +0.000 A 
ATOM      2  C   UNL     1       4.347   2.422  19.740  0.00  0.00    +0.000 A 
ATOM      3  O   UNL     1       5.391   3.204  19.360  0.00  0.00    +0.000 OA
ATOM      4  C   UNL     1       4.809   4.268  18.718  0.00  0.00    +0.000 A 
ATOM      5  N   UNL     1       3.494   4.198  18.650  0.00  0.00    +0.000 NA
ENDROOT
BRANCH   4   6
ATOM      6  C   UNL     1       5.710   5.300  18.255  0.00  0.00    +0.000 A 
ATOM      7  C   UNL     1       6.841   5.675  18.956  0.00  0.00    +0.000 A 
ATOM      8  N   UNL     1       7.677   6.666  18.579  0.00  0.00    +0.000 NA
ATOM      9  C   UNL     1       7.369   7.290  17.435  0.00  0.00    +0.000 A 
ATOM     10  N   UNL     1       6.308   7.010  16.658  0.00  0.00    +0.000 NA
ATOM     11  C   UNL     1       5.499   6.015  17.096  0.00  0.00    +0.000 A 
BRANCH   9  12
ATOM     12  O   UNL     1       8.189   8.350  17.125  0.00  0.00    +0.000 OA
ATOM     13  C   UNL     1       8.410   9.204  18.237  0.00  0.00    +0.000 C 
ENDBRANCH   9  12
ENDBRANCH   4   6
BRANCH   1  14
ATOM     14  C   UNL     1       1.847   2.482  19.526  0.00  0.00    +0.000 C 
ATOM     15  O   UNL     1       1.061   2.267  18.608  0.00  0.00    +0.000 OA
BRANCH  14  17
ATOM     16  C   UNL     1       1.751   3.400  21.679  0.00  0.00    +0.000 C 
ATOM     17  O   UNL     1       1.577   2.258  20.844  0.00  0.00    +0.000 OA
ENDBRANCH  14  17
ENDBRANCH   1  14
TORSDOF 4
ENDMDL
MODEL 9
REMARK VINA RESULT:      -6.1      2.561      2.896
REMARK  Name = 
REMARK  6 active torsions:
REMARK  status: ('A' for Active; 'I' for Inactive)
REMARK    1  A    between atoms: C_1  and  O_2
REMARK    2  A    between atoms: O_2  and  C_3
REMARK    3  A    between atoms: C_3  and  C_5
REMARK    4  A    between atoms: C_8  and  C_9
REMARK    5  A    between atoms: C_12  and  O_13
REMARK    6  A    between atoms: O_13  and  C_14
REMARK                            x       y       z     vdW  Elec       q    Type
REMARK                         _______ _______ _______ _____ _____    ______ ____
ROOT
ATOM      1  C   UNL     1       2.991   3.436  19.315  0.00  0.00    +0.000 A 
ATOM      2  C   UNL     1       4.166   3.061  19.924  0.00  0.00    +0.000 A 
ATOM      3  O   UNL     1       5.189   3.291  19.060  0.00  0.00    +0.000 OA
ATOM      4  C   UNL     1       4.587   3.820  17.947  0.00  0.00    +0.000 A 
ATOM      5  N   UNL     1       3.275   3.916  18.041  0.00  0.00    +0.000 NA
ENDROOT
BRANCH   4   6
ATOM      6  C   UNL     1       5.473   4.217  16.876  0.00  0.00    +0.000 A 
ATOM      7  C   UNL     1       6.834   4.386  17.053  0.00  0.00    +0.000 A 
ATOM      8  N   UNL     1       7.682   4.802  16.089  0.00  0.00    +0.000 NA
ATOM      9  C   UNL     1       7.136   5.037  14.889  0.00  0.00    +0.000 A 
ATOM     10  N   UNL     1       5.833   4.899  14.587  0.00  0.00    +0.000 NA
ATOM     11  C   UNL     1       5.030   4.491  15.599  0.00  0.00    +0.000 A 
BRANCH   9  12
ATOM     12  O   UNL     1       8.010   5.543  13.955  0.00  0.00    +0.000 OA
ATOM     13  C   UNL     1       7.733   5.072  12.646  0.00  0.00    +0.000 C 
ENDBRANCH   9  12
ENDBRANCH   4   6
BRANCH   1  14
ATOM     14  C   UNL     1       1.672   3.341  19.918  0.00  0.00    +0.000 C 
ATOM     15  O   UNL     1       0.775   2.644  19.453  0.00  0.00    +0.000 OA
BRANCH  14  17
ATOM     16  C   UNL     1       1.650   5.510  20.803  0.00  0.00    +0.000 C 
ATOM     17  O   UNL     1       1.552   4.108  21.039  0.00  0.00    +0.000 OA
ENDBRANCH  14  17
ENDBRANCH   1  14
TORSDOF 4
ENDMDL
