MODEL 1
REMARK VINA RESULT:      -7.5      0.000      0.000
REMARK  Name = 
REMARK  6 active torsions:
REMARK  status: ('A' for Active; 'I' for Inactive)
REMARK    1  A    between atoms: C_2  and  C_16
REMARK    2  A    between atoms: N_3  and  N_4
REMARK    3  A    between atoms: C_5  and  C_6
REMARK    4  A    between atoms: C_10  and  O_11
REMARK    5  A    between atoms: C_14  and  O_15
REMARK    6  A    between atoms: C_25  and  O_26
REMARK                            x       y       z     vdW  Elec       q    Type
REMARK                         _______ _______ _______ _____ _____    ______ ____
ROOT
ATOM      1  O   UNL     1       1.470   9.126  19.439  0.00  0.00    +0.000 OA
ATOM      2  C   UNL     1       1.602   8.278  20.321  0.00  0.00    +0.000 C 
ATOM      3  N   UNL     1       1.399   8.517  21.669  0.00  0.00    +0.000 N 
ATOM      4  H   UNL     1       1.525   7.756  22.333  0.00  0.00    +0.000 HD
ENDROOT
BRANCH   2   5
ATOM      5  C   UNL     1       1.983   6.878  19.940  0.00  0.00    +0.000 A 
ATOM      6  C   UNL     1       1.608   5.860  20.826  0.00  0.00    +0.000 A 
ATOM      7  C   UNL     1       1.959   4.532  20.580  0.00  0.00    +0.000 A 
ATOM      8  C   UNL     1       2.706   4.184  19.448  0.00  0.00    +0.000 A 
ATOM      9  C   UNL     1       3.100   2.851  19.253  0.00  0.00    +0.000 A 
ATOM     10  C   UNL     1       3.856   2.480  18.145  0.00  0.00    +0.000 A 
ATOM     11  C   UNL     1       4.215   3.437  17.207  0.00  0.00    +0.000 A 
ATOM     12  C   UNL     1       3.831   4.769  17.386  0.00  0.00    +0.000 A 
ATOM     13  C   UNL     1       3.074   5.182  18.510  0.00  0.00    +0.000 A 
ATOM     14  C   UNL     1       2.684   6.527  18.772  0.00  0.00    +0.000 A 
BRANCH  14  15
ATOM     15  O   UNL     1       2.997   7.521  17.867  0.00  0.00    +0.000 OA
ATOM     16  H   UNL     1       3.922   7.784  18.019  0.00  0.00    +0.000 HD
ENDBRANCH  14  15
ENDBRANCH   2   5
BRANCH   3  17
ATOM     17  N   UNL     1       1.011   9.747  22.095  0.00  0.00    +0.000 NA
ATOM     18  C   UNL     1      -0.234  10.051  21.910  0.00  0.00    +0.000 C 
BRANCH  18  19
ATOM     19  C   UNL     1      -0.746  11.377  22.320  0.00  0.00    +0.000 A 
ATOM     20  C   UNL     1      -1.943  11.451  23.044  0.00  0.00    +0.000 A 
ATOM     21  C   UNL     1      -2.427  12.688  23.461  0.00  0.00    +0.000 A 
ATOM     22 BR   UNL     1      -4.049  12.750  24.444  0.00  0.00    +0.000 Br
ATOM     23  C   UNL     1      -1.725  13.859  23.165  0.00  0.00    +0.000 A 
ATOM     24  C   UNL     1      -0.536  13.790  22.432  0.00  0.00    +0.000 A 
ATOM     25 BR   UNL     1       0.436  15.373  22.012  0.00  0.00    +0.000 Br
ATOM     26  C   UNL     1      -0.043  12.546  22.007  0.00  0.00    +0.000 A 
BRANCH  23  27
ATOM     27  O   UNL     1      -2.189  15.078  23.588  0.00  0.00    +0.000 OA
ATOM     28  H   UNL     1      -2.810  14.925  24.323  0.00  0.00    +0.000 HD
ENDBRANCH  23  27
BRANCH  26  29
ATOM     29  O   UNL     1       1.124  12.458  21.291  0.00  0.00    +0.000 OA
ATOM     30  H   UNL     1       1.765  13.076  21.695  0.00  0.00    +0.000 HD
ENDBRANCH  26  29
ENDBRANCH  18  19
ENDBRANCH   3  17
TORSDOF 6
ENDMDL
MODEL 2
REMARK VINA RESULT:      -7.5      4.134      9.801
REMARK  Name = 
REMARK  6 active torsions:
REMARK  status: ('A' for Active; 'I' for Inactive)
REMARK    1  A    between atoms: C_2  and  C_16
REMARK    2  A    between atoms: N_3  and  N_4
REMARK    3  A    between atoms: C_5  and  C_6
REMARK    4  A    between atoms: C_10  and  O_11
REMARK    5  A    between atoms: C_14  and  O_15
REMARK    6  A    between atoms: C_25  and  O_26
REMARK                            x       y       z     vdW  Elec       q    Type
REMARK                         _______ _______ _______ _____ _____    ______ ____
ROOT
ATOM      1  O   UNL     1       1.605   9.716  22.284  0.00  0.00    +0.000 OA
ATOM      2  C   UNL     1       0.810   9.735  21.345  0.00  0.00    +0.000 C 
ATOM      3  N   UNL     1       0.874   8.888  20.252  0.00  0.00    +0.000 N 
ATOM      4  H   UNL     1       0.172   8.968  19.519  0.00  0.00    +0.000 HD
ENDROOT
BRANCH   2   5
ATOM      5  C   UNL     1      -0.329  10.711  21.368  0.00  0.00    +0.000 A 
ATOM      6  C   UNL     1      -0.589  11.403  20.178  0.00  0.00    +0.000 A 
ATOM      7  C   UNL     1      -1.598  12.366  20.116  0.00  0.00    +0.000 A 
ATOM      8  C   UNL     1      -2.367  12.673  21.245  0.00  0.00    +0.000 A 
ATOM      9  C   UNL     1      -3.334  13.689  21.174  0.00  0.00    +0.000 A 
ATOM     10  C   UNL     1      -4.102  14.026  22.286  0.00  0.00    +0.000 A 
ATOM     11  C   UNL     1      -3.923  13.341  23.479  0.00  0.00    +0.000 A 
ATOM     12  C   UNL     1      -2.964  12.328  23.565  0.00  0.00    +0.000 A 
ATOM     13  C   UNL     1      -2.156  11.970  22.457  0.00  0.00    +0.000 A 
ATOM     14  C   UNL     1      -1.136  10.976  22.489  0.00  0.00    +0.000 A 
BRANCH  14  15
ATOM     15  O   UNL     1      -0.922  10.249  23.642  0.00  0.00    +0.000 OA
ATOM     16  H   UNL     1      -1.756  10.229  24.143  0.00  0.00    +0.000 HD
ENDBRANCH  14  15
ENDBRANCH   2   5
BRANCH   3  17
ATOM     17  N   UNL     1       1.850   7.945  20.173  0.00  0.00    +0.000 NA
ATOM     18  C   UNL     1       2.232   7.616  18.982  0.00  0.00    +0.000 C 
BRANCH  18  19
ATOM     19  C   UNL     1       3.272   6.581  18.792  0.00  0.00    +0.000 A 
ATOM     20  C   UNL     1       4.422   6.897  18.057  0.00  0.00    +0.000 A 
ATOM     21  C   UNL     1       5.423   5.944  17.890  0.00  0.00    +0.000 A 
ATOM     22 BR   UNL     1       6.969   6.409  16.893  0.00  0.00    +0.000 Br
ATOM     23  C   UNL     1       5.292   4.673  18.454  0.00  0.00    +0.000 A 
ATOM     24  C   UNL     1       4.140   4.350  19.179  0.00  0.00    +0.000 A 
ATOM     25 BR   UNL     1       3.937   2.622  19.954  0.00  0.00    +0.000 Br
ATOM     26  C   UNL     1       3.126   5.305  19.350  0.00  0.00    +0.000 A 
BRANCH  23  27
ATOM     27  O   UNL     1       6.283   3.738  18.308  0.00  0.00    +0.000 OA
ATOM     28  H   UNL     1       6.784   3.953  17.500  0.00  0.00    +0.000 HD
ENDBRANCH  23  27
BRANCH  26  29
ATOM     29  O   UNL     1       1.990   5.008  20.061  0.00  0.00    +0.000 OA
ATOM     30  H   UNL     1       1.272   5.577  19.718  0.00  0.00    +0.000 HD
ENDBRANCH  26  29
ENDBRANCH  18  19
ENDBRANCH   3  17
TORSDOF 6
ENDMDL
MODEL 3
REMARK VINA RESULT:      -7.5      8.639     11.625
REMARK  Name = 
REMARK  6 active torsions:
REMARK  status: ('A' for Active; 'I' for Inactive)
REMARK    1  A    between atoms: C_2  and  C_16
REMARK    2  A    between atoms: N_3  and  N_4
REMARK    3  A    between atoms: C_5  and  C_6
REMARK    4  A    between atoms: C_10  and  O_11
REMARK    5  A    between atoms: C_14  and  O_15
REMARK    6  A    between atoms: C_25  and  O_26
REMARK                            x       y       z     vdW  Elec       q    Type
REMARK                         _______ _______ _______ _____ _____    ______ ____
ROOT
ATOM      1  O   UNL     1       7.426  10.927  17.212  0.00  0.00    +0.000 OA
ATOM      2  C   UNL     1       8.405  10.540  17.847  0.00  0.00    +0.000 C 
ATOM      3  N   UNL     1       8.655   9.216  18.164  0.00  0.00    +0.000 N 
ATOM      4  H   UNL     1       9.494   8.980  18.691  0.00  0.00    +0.000 HD
ENDROOT
BRANCH   2   5
ATOM      5  C   UNL     1       9.427  11.540  18.302  0.00  0.00    +0.000 A 
ATOM      6  C   UNL     1      10.447  11.064  19.136  0.00  0.00    +0.000 A 
ATOM      7  C   UNL     1      11.415  11.930  19.648  0.00  0.00    +0.000 A 
ATOM      8  C   UNL     1      11.384  13.297  19.351  0.00  0.00    +0.000 A 
ATOM      9  C   UNL     1      12.333  14.158  19.927  0.00  0.00    +0.000 A 
ATOM     10  C   UNL     1      12.316  15.525  19.661  0.00  0.00    +0.000 A 
ATOM     11  C   UNL     1      11.359  16.047  18.803  0.00  0.00    +0.000 A 
ATOM     12  C   UNL     1      10.407  15.203  18.222  0.00  0.00    +0.000 A 
ATOM     13  C   UNL     1      10.388  13.811  18.483  0.00  0.00    +0.000 A 
ATOM     14  C   UNL     1       9.424  12.904  17.955  0.00  0.00    +0.000 A 
BRANCH  14  15
ATOM     15  O   UNL     1       8.458  13.360  17.082  0.00  0.00    +0.000 OA
ATOM     16  H   UNL     1       8.430  12.752  16.322  0.00  0.00    +0.000 HD
ENDBRANCH  14  15
ENDBRANCH   2   5
BRANCH   3  17
ATOM     17  N   UNL     1       7.802   8.241  17.753  0.00  0.00    +0.000 NA
ATOM     18  C   UNL     1       7.857   7.122  18.402  0.00  0.00    +0.000 C 
BRANCH  18  19
ATOM     19  C   UNL     1       6.984   5.993  18.014  0.00  0.00    +0.000 A 
ATOM     20  C   UNL     1       6.176   5.391  18.987  0.00  0.00    +0.000 A 
ATOM     21  C   UNL     1       5.328   4.344  18.635  0.00  0.00    +0.000 A 
ATOM     22 BR   UNL     1       4.243   3.556  19.978  0.00  0.00    +0.000 Br
ATOM     23  C   UNL     1       5.275   3.889  17.315  0.00  0.00    +0.000 A 
ATOM     24  C   UNL     1       6.089   4.480  16.343  0.00  0.00    +0.000 A 
ATOM     25 BR   UNL     1       6.038   3.874  14.539  0.00  0.00    +0.000 Br
ATOM     26  C   UNL     1       6.947   5.535  16.691  0.00  0.00    +0.000 A 
BRANCH  23  27
ATOM     27  O   UNL     1       4.429   2.870  16.961  0.00  0.00    +0.000 OA
ATOM     28  H   UNL     1       4.891   2.306  16.314  0.00  0.00    +0.000 HD
ENDBRANCH  23  27
BRANCH  26  29
ATOM     29  O   UNL     1       7.751   6.129  15.751  0.00  0.00    +0.000 OA
ATOM     30  H   UNL     1       7.240   6.181  14.919  0.00  0.00    +0.000 HD
ENDBRANCH  26  29
ENDBRANCH  18  19
ENDBRANCH   3  17
TORSDOF 6
ENDMDL
MODEL 4
REMARK VINA RESULT:      -7.5      5.033      9.769
REMARK  Name = 
REMARK  6 active torsions:
REMARK  status: ('A' for Active; 'I' for Inactive)
REMARK    1  A    between atoms: C_2  and  C_16
REMARK    2  A    between atoms: N_3  and  N_4
REMARK    3  A    between atoms: C_5  and  C_6
REMARK    4  A    between atoms: C_10  and  O_11
REMARK    5  A    between atoms: C_14  and  O_15
REMARK    6  A    between atoms: C_25  and  O_26
REMARK                            x       y       z     vdW  Elec       q    Type
REMARK                         _______ _______ _______ _____ _____    ______ ____
ROOT
ATOM      1  O   UNL     1       0.862  10.050  19.772  0.00  0.00    +0.000 OA
ATOM      2  C   UNL     1       1.302  10.669  18.804  0.00  0.00    +0.000 C 
ATOM      3  N   UNL     1       1.850  10.073  17.681  0.00  0.00    +0.000 N 
ATOM      4  H   UNL     1       2.187  10.660  16.921  0.00  0.00    +0.000 HD
ENDROOT
BRANCH   2   5
ATOM      5  C   UNL     1       1.233  12.167  18.799  0.00  0.00    +0.000 A 
ATOM      6  C   UNL     1       0.069  12.746  19.321  0.00  0.00    +0.000 A 
ATOM      7  C   UNL     1      -0.106  14.130  19.314  0.00  0.00    +0.000 A 
ATOM      8  C   UNL     1       0.871  14.976  18.776  0.00  0.00    +0.000 A 
ATOM      9  C   UNL     1       0.646  16.361  18.726  0.00  0.00    +0.000 A 
ATOM     10  C   UNL     1       1.594  17.223  18.181  0.00  0.00    +0.000 A 
ATOM     11  C   UNL     1       2.788  16.712  17.693  0.00  0.00    +0.000 A 
ATOM     12  C   UNL     1       3.028  15.335  17.736  0.00  0.00    +0.000 A 
ATOM     13  C   UNL     1       2.078  14.430  18.270  0.00  0.00    +0.000 A 
ATOM     14  C   UNL     1       2.243  13.015  18.308  0.00  0.00    +0.000 A 
BRANCH  14  15
ATOM     15  O   UNL     1       3.416  12.448  17.853  0.00  0.00    +0.000 OA
ATOM     16  H   UNL     1       3.447  12.558  16.887  0.00  0.00    +0.000 HD
ENDBRANCH  14  15
ENDBRANCH   2   5
BRANCH   3  17
ATOM     17  N   UNL     1       1.912   8.719  17.586  0.00  0.00    +0.000 NA
ATOM     18  C   UNL     1       3.021   8.169  17.965  0.00  0.00    +0.000 C 
BRANCH  18  19
ATOM     19  C   UNL     1       3.193   6.702  17.877  0.00  0.00    +0.000 A 
ATOM     20  C   UNL     1       2.307   5.869  18.572  0.00  0.00    +0.000 A 
ATOM     21  C   UNL     1       2.437   4.486  18.480  0.00  0.00    +0.000 A 
ATOM     22 BR   UNL     1       1.216   3.387  19.430  0.00  0.00    +0.000 Br
ATOM     23  C   UNL     1       3.446   3.920  17.695  0.00  0.00    +0.000 A 
ATOM     24  C   UNL     1       4.339   4.749  17.009  0.00  0.00    +0.000 A 
ATOM     25 BR   UNL     1       5.725   4.002  15.938  0.00  0.00    +0.000 Br
ATOM     26  C   UNL     1       4.215   6.144  17.099  0.00  0.00    +0.000 A 
BRANCH  23  27
ATOM     27  O   UNL     1       3.567   2.559  17.588  0.00  0.00    +0.000 OA
ATOM     28  H   UNL     1       4.111   2.366  16.802  0.00  0.00    +0.000 HD
ENDBRANCH  23  27
BRANCH  26  29
ATOM     29  O   UNL     1       5.080   6.974  16.431  0.00  0.00    +0.000 OA
ATOM     30  H   UNL     1       5.682   6.409  15.907  0.00  0.00    +0.000 HD
ENDBRANCH  26  29
ENDBRANCH  18  19
ENDBRANCH   3  17
TORSDOF 6
ENDMDL
MODEL 5
REMARK VINA RESULT:      -7.4      4.989      9.524
REMARK  Name = 
REMARK  6 active torsions:
REMARK  status: ('A' for Active; 'I' for Inactive)
REMARK    1  A    between atoms: C_2  and  C_16
REMARK    2  A    between atoms: N_3  and  N_4
REMARK    3  A    between atoms: C_5  and  C_6
REMARK    4  A    between atoms: C_10  and  O_11
REMARK    5  A    between atoms: C_14  and  O_15
REMARK    6  A    between atoms: C_25  and  O_26
REMARK                            x       y       z     vdW  Elec       q    Type
REMARK                         _______ _______ _______ _____ _____    ______ ____
ROOT
ATOM      1  O   UNL     1       0.814   9.387  20.432  0.00  0.00    +0.000 OA
ATOM      2  C   UNL     1       0.449   9.747  19.314  0.00  0.00    +0.000 C 
ATOM      3  N   UNL     1       1.131   9.462  18.143  0.00  0.00    +0.000 N 
ATOM      4  H   UNL     1       0.757   9.794  17.256  0.00  0.00    +0.000 HD
ENDROOT
BRANCH   2   5
ATOM      5  C   UNL     1      -0.826  10.525  19.172  0.00  0.00    +0.000 A 
ATOM      6  C   UNL     1      -1.165  11.375  20.233  0.00  0.00    +0.000 A 
ATOM      7  C   UNL     1      -2.356  12.103  20.213  0.00  0.00    +0.000 A 
ATOM      8  C   UNL     1      -3.246  11.994  19.138  0.00  0.00    +0.000 A 
ATOM      9  C   UNL     1      -4.466  12.689  19.168  0.00  0.00    +0.000 A 
ATOM     10  C   UNL     1      -5.377  12.586  18.120  0.00  0.00    +0.000 A 
ATOM     11  C   UNL     1      -5.073  11.797  17.020  0.00  0.00    +0.000 A 
ATOM     12  C   UNL     1      -3.863  11.098  16.974  0.00  0.00    +0.000 A 
ATOM     13  C   UNL     1      -2.921  11.170  18.031  0.00  0.00    +0.000 A 
ATOM     14  C   UNL     1      -1.689  10.454  18.064  0.00  0.00    +0.000 A 
BRANCH  14  15
ATOM     15  O   UNL     1      -1.323   9.667  16.992  0.00  0.00    +0.000 OA
ATOM     16  H   UNL     1      -2.114   9.520  16.444  0.00  0.00    +0.000 HD
ENDBRANCH  14  15
ENDBRANCH   2   5
BRANCH   3  17
ATOM     17  N   UNL     1       2.272   8.726  18.177  0.00  0.00    +0.000 NA
ATOM     18  C   UNL     1       2.128   7.442  18.099  0.00  0.00    +0.000 C 
BRANCH  18  19
ATOM     19  C   UNL     1       3.310   6.554  18.152  0.00  0.00    +0.000 A 
ATOM     20  C   UNL     1       4.544   7.036  17.697  0.00  0.00    +0.000 A 
ATOM     21  C   UNL     1       5.674   6.224  17.764  0.00  0.00    +0.000 A 
ATOM     22 BR   UNL     1       7.330   6.911  17.143  0.00  0.00    +0.000 Br
ATOM     23  C   UNL     1       5.586   4.930  18.284  0.00  0.00    +0.000 A 
ATOM     24  C   UNL     1       4.353   4.443  18.729  0.00  0.00    +0.000 A 
ATOM     25 BR   UNL     1       4.208   2.681  19.439  0.00  0.00    +0.000 Br
ATOM     26  C   UNL     1       3.210   5.255  18.663  0.00  0.00    +0.000 A 
BRANCH  23  27
ATOM     27  O   UNL     1       6.699   4.134  18.368  0.00  0.00    +0.000 OA
ATOM     28  H   UNL     1       7.388   4.628  18.849  0.00  0.00    +0.000 HD
ENDBRANCH  23  27
BRANCH  26  29
ATOM     29  O   UNL     1       1.993   4.795  19.098  0.00  0.00    +0.000 OA
ATOM     30  H   UNL     1       2.003   4.814  20.076  0.00  0.00    +0.000 HD
ENDBRANCH  26  29
ENDBRANCH  18  19
ENDBRANCH   3  17
TORSDOF 6
ENDMDL
MODEL 6
REMARK VINA RESULT:      -7.4      4.172      9.742
REMARK  Name = 
REMARK  6 active torsions:
REMARK  status: ('A' for Active; 'I' for Inactive)
REMARK    1  A    between atoms: C_2  and  C_16
REMARK    2  A    between atoms: N_3  and  N_4
REMARK    3  A    between atoms: C_5  and  C_6
REMARK    4  A    between atoms: C_10  and  O_11
REMARK    5  A    between atoms: C_14  and  O_15
REMARK    6  A    between atoms: C_25  and  O_26
REMARK                            x       y       z     vdW  Elec       q    Type
REMARK                         _______ _______ _______ _____ _____    ______ ____
ROOT
ATOM      1  O   UNL     1       0.010   8.313  21.583  0.00  0.00    +0.000 OA
ATOM      2  C   UNL     1       0.430   9.194  20.834  0.00  0.00    +0.000 C 
ATOM      3  N   UNL     1       1.420   9.004  19.886  0.00  0.00    +0.000 N 
ATOM      4  H   UNL     1       1.706   9.787  19.301  0.00  0.00    +0.000 HD
ENDROOT
BRANCH   2   5
ATOM      5  C   UNL     1      -0.168  10.568  20.910  0.00  0.00    +0.000 A 
ATOM      6  C   UNL     1      -0.419  11.214  19.693  0.00  0.00    +0.000 A 
ATOM      7  C   UNL     1      -0.929  12.513  19.664  0.00  0.00    +0.000 A 
ATOM      8  C   UNL     1      -1.191  13.208  20.851  0.00  0.00    +0.000 A 
ATOM      9  C   UNL     1      -1.646  14.535  20.797  0.00  0.00    +0.000 A 
ATOM     10  C   UNL     1      -1.900  15.255  21.962  0.00  0.00    +0.000 A 
ATOM     11  C   UNL     1      -1.716  14.650  23.197  0.00  0.00    +0.000 A 
ATOM     12  C   UNL     1      -1.263  13.329  23.268  0.00  0.00    +0.000 A 
ATOM     13  C   UNL     1      -0.982  12.574  22.102  0.00  0.00    +0.000 A 
ATOM     14  C   UNL     1      -0.483  11.240  22.105  0.00  0.00    +0.000 A 
BRANCH  14  15
ATOM     15  O   UNL     1      -0.296  10.580  23.302  0.00  0.00    +0.000 OA
ATOM     16  H   UNL     1      -1.075  10.019  23.460  0.00  0.00    +0.000 HD
ENDBRANCH  14  15
ENDBRANCH   2   5
BRANCH   3  17
ATOM     17  N   UNL     1       1.984   7.779  19.722  0.00  0.00    +0.000 NA
ATOM     18  C   UNL     1       2.293   7.448  18.509  0.00  0.00    +0.000 C 
BRANCH  18  19
ATOM     19  C   UNL     1       2.890   6.125  18.226  0.00  0.00    +0.000 A 
ATOM     20  C   UNL     1       2.211   4.970  18.633  0.00  0.00    +0.000 A 
ATOM     21  C   UNL     1       2.745   3.715  18.352  0.00  0.00    +0.000 A 
ATOM     22 BR   UNL     1       1.795   2.171  18.914  0.00  0.00    +0.000 Br
ATOM     23  C   UNL     1       3.954   3.598  17.662  0.00  0.00    +0.000 A 
ATOM     24  C   UNL     1       4.640   4.750  17.264  0.00  0.00    +0.000 A 
ATOM     25 BR   UNL     1       6.293   4.616  16.327  0.00  0.00    +0.000 Br
ATOM     26  C   UNL     1       4.109   6.018  17.546  0.00  0.00    +0.000 A 
BRANCH  23  27
ATOM     27  O   UNL     1       4.474   2.365  17.368  0.00  0.00    +0.000 OA
ATOM     28  H   UNL     1       3.897   1.944  16.705  0.00  0.00    +0.000 HD
ENDBRANCH  23  27
BRANCH  26  29
ATOM     29  O   UNL     1       4.767   7.159  17.160  0.00  0.00    +0.000 OA
ATOM     30  H   UNL     1       5.705   7.059  17.417  0.00  0.00    +0.000 HD
ENDBRANCH  26  29
ENDBRANCH  18  19
ENDBRANCH   3  17
TORSDOF 6
ENDMDL
MODEL 7
REMARK VINA RESULT:      -7.3      4.141      9.518
REMARK  Name = 
REMARK  6 active torsions:
REMARK  status: ('A' for Active; 'I' for Inactive)
REMARK    1  A    between atoms: C_2  and  C_16
REMARK    2  A    between atoms: N_3  and  N_4
REMARK    3  A    between atoms: C_5  and  C_6
REMARK    4  A    between atoms: C_10  and  O_11
REMARK    5  A    between atoms: C_14  and  O_15
REMARK    6  A    between atoms: C_25  and  O_26
REMARK                            x       y       z     vdW  Elec       q    Type
REMARK                         _______ _______ _______ _____ _____    ______ ____
ROOT
ATOM      1  O   UNL     1       1.305  10.149  19.084  0.00  0.00    +0.000 OA
ATOM      2  C   UNL     1       0.897   9.636  20.125  0.00  0.00    +0.000 C 
ATOM      3  N   UNL     1       1.297   8.395  20.591  0.00  0.00    +0.000 N 
ATOM      4  H   UNL     1       0.913   8.046  21.467  0.00  0.00    +0.000 HD
ENDROOT
BRANCH   2   5
ATOM      5  C   UNL     1      -0.079  10.388  20.980  0.00  0.00    +0.000 A 
ATOM      6  C   UNL     1      -0.145  10.024  22.331  0.00  0.00    +0.000 A 
ATOM      7  C   UNL     1      -1.057  10.635  23.193  0.00  0.00    +0.000 A 
ATOM      8  C   UNL     1      -1.937  11.620  22.727  0.00  0.00    +0.000 A 
ATOM      9  C   UNL     1      -2.886  12.176  23.599  0.00  0.00    +0.000 A 
ATOM     10  C   UNL     1      -3.784  13.145  23.159  0.00  0.00    +0.000 A 
ATOM     11  C   UNL     1      -3.734  13.581  21.843  0.00  0.00    +0.000 A 
ATOM     12  C   UNL     1      -2.795  13.036  20.962  0.00  0.00    +0.000 A 
ATOM     13  C   UNL     1      -1.877  12.039  21.374  0.00  0.00    +0.000 A 
ATOM     14  C   UNL     1      -0.922  11.416  20.519  0.00  0.00    +0.000 A 
BRANCH  14  15
ATOM     15  O   UNL     1      -0.813  11.819  19.204  0.00  0.00    +0.000 OA
ATOM     16  H   UNL     1       0.132  11.939  19.006  0.00  0.00    +0.000 HD
ENDBRANCH  14  15
ENDBRANCH   2   5
BRANCH   3  17
ATOM     17  N   UNL     1       2.211   7.666  19.899  0.00  0.00    +0.000 NA
ATOM     18  C   UNL     1       1.816   6.509  19.474  0.00  0.00    +0.000 C 
BRANCH  18  19
ATOM     19  C   UNL     1       2.746   5.631  18.731  0.00  0.00    +0.000 A 
ATOM     20  C   UNL     1       2.738   4.254  18.991  0.00  0.00    +0.000 A 
ATOM     21  C   UNL     1       3.587   3.408  18.283  0.00  0.00    +0.000 A 
ATOM     22 BR   UNL     1       3.545   1.548  18.657  0.00  0.00    +0.000 Br
ATOM     23  C   UNL     1       4.449   3.922  17.310  0.00  0.00    +0.000 A 
ATOM     24  C   UNL     1       4.468   5.298  17.056  0.00  0.00    +0.000 A 
ATOM     25 BR   UNL     1       5.636   6.022  15.739  0.00  0.00    +0.000 Br
ATOM     26  C   UNL     1       3.615   6.156  17.768  0.00  0.00    +0.000 A 
BRANCH  23  27
ATOM     27  O   UNL     1       5.274   3.091  16.598  0.00  0.00    +0.000 OA
ATOM     28  H   UNL     1       5.397   2.273  17.115  0.00  0.00    +0.000 HD
ENDBRANCH  23  27
BRANCH  26  29
ATOM     29  O   UNL     1       3.618   7.508  17.530  0.00  0.00    +0.000 OA
ATOM     30  H   UNL     1       2.695   7.775  17.348  0.00  0.00    +0.000 HD
ENDBRANCH  26  29
ENDBRANCH  18  19
ENDBRANCH   3  17
TORSDOF 6
ENDMDL
MODEL 8
REMARK VINA RESULT:      -7.3      4.134      9.852
REMARK  Name = 
REMARK  6 active torsions:
REMARK  status: ('A' for Active; 'I' for Inactive)
REMARK    1  A    between atoms: C_2  and  C_16
REMARK    2  A    between atoms: N_3  and  N_4
REMARK    3  A    between atoms: C_5  and  C_6
REMARK    4  A    between atoms: C_10  and  O_11
REMARK    5  A    between atoms: C_14  and  O_15
REMARK    6  A    between atoms: C_25  and  O_26
REMARK                            x       y       z     vdW  Elec       q    Type
REMARK                         _______ _______ _______ _____ _____    ______ ____
ROOT
ATOM      1  O   UNL     1      -0.297   8.332  21.535  0.00  0.00    +0.000 OA
ATOM      2  C   UNL     1       0.133   9.306  20.919  0.00  0.00    +0.000 C 
ATOM      3  N   UNL     1       1.244   9.278  20.094  0.00  0.00    +0.000 N 
ATOM      4  H   UNL     1       1.531  10.130  19.616  0.00  0.00    +0.000 HD
ENDROOT
BRANCH   2   5
ATOM      5  C   UNL     1      -0.584  10.619  21.029  0.00  0.00    +0.000 A 
ATOM      6  C   UNL     1      -1.059  11.179  19.836  0.00  0.00    +0.000 A 
ATOM      7  C   UNL     1      -1.697  12.421  19.834  0.00  0.00    +0.000 A 
ATOM      8  C   UNL     1      -1.868  13.143  21.021  0.00  0.00    +0.000 A 
ATOM      9  C   UNL     1      -2.457  14.417  20.984  0.00  0.00    +0.000 A 
ATOM     10  C   UNL     1      -2.625  15.164  22.147  0.00  0.00    +0.000 A 
ATOM     11  C   UNL     1      -2.218  14.639  23.365  0.00  0.00    +0.000 A 
ATOM     12  C   UNL     1      -1.629  13.373  23.419  0.00  0.00    +0.000 A 
ATOM     13  C   UNL     1      -1.431  12.593  22.252  0.00  0.00    +0.000 A 
ATOM     14  C   UNL     1      -0.803  11.315  22.233  0.00  0.00    +0.000 A 
BRANCH  14  15
ATOM     15  O   UNL     1      -0.393  10.733  23.414  0.00  0.00    +0.000 OA
ATOM     16  H   UNL     1       0.514  11.036  23.599  0.00  0.00    +0.000 HD
ENDBRANCH  14  15
ENDBRANCH   2   5
BRANCH   3  17
ATOM     17  N   UNL     1       1.927   8.118  19.905  0.00  0.00    +0.000 NA
ATOM     18  C   UNL     1       2.151   7.780  18.676  0.00  0.00    +0.000 C 
BRANCH  18  19
ATOM     19  C   UNL     1       2.866   6.522  18.367  0.00  0.00    +0.000 A 
ATOM     20  C   UNL     1       3.825   6.516  17.346  0.00  0.00    +0.000 A 
ATOM     21  C   UNL     1       4.527   5.349  17.060  0.00  0.00    +0.000 A 
ATOM     22 BR   UNL     1       5.823   5.379  15.673  0.00  0.00    +0.000 Br
ATOM     23  C   UNL     1       4.285   4.180  17.786  0.00  0.00    +0.000 A 
ATOM     24  C   UNL     1       3.320   4.179  18.799  0.00  0.00    +0.000 A 
ATOM     25 BR   UNL     1       2.968   2.598  19.799  0.00  0.00    +0.000 Br
ATOM     26  C   UNL     1       2.607   5.352  19.092  0.00  0.00    +0.000 A 
BRANCH  23  27
ATOM     27  O   UNL     1       4.986   3.033  17.519  0.00  0.00    +0.000 OA
ATOM     28  H   UNL     1       5.598   2.874  18.261  0.00  0.00    +0.000 HD
ENDBRANCH  23  27
BRANCH  26  29
ATOM     29  O   UNL     1       1.659   5.372  20.084  0.00  0.00    +0.000 OA
ATOM     30  H   UNL     1       1.598   6.290  20.414  0.00  0.00    +0.000 HD
ENDBRANCH  26  29
ENDBRANCH  18  19
ENDBRANCH   3  17
TORSDOF 6
ENDMDL
MODEL 9
REMARK VINA RESULT:      -7.3      4.806     10.067
REMARK  Name = 
REMARK  6 active torsions:
REMARK  status: ('A' for Active; 'I' for Inactive)
REMARK    1  A    between atoms: C_2  and  C_16
REMARK    2  A    between atoms: N_3  and  N_4
REMARK    3  A    between atoms: C_5  and  C_6
REMARK    4  A    between atoms: C_10  and  O_11
REMARK    5  A    between atoms: C_14  and  O_15
REMARK    6  A    between atoms: C_25  and  O_26
REMARK                            x       y       z     vdW  Elec       q    Type
REMARK                         _______ _______ _______ _____ _____    ______ ____
ROOT
ATOM      1  O   UNL     1       1.017   9.631  19.845  0.00  0.00    +0.000 OA
ATOM      2  C   UNL     1       1.411  10.249  18.856  0.00  0.00    +0.000 C 
ATOM      3  N   UNL     1       1.969   9.654  17.738  0.00  0.00    +0.000 N 
ATOM      4  H   UNL     1       2.266  10.240  16.959  0.00  0.00    +0.000 HD
ENDROOT
BRANCH   2   5
ATOM      5  C   UNL     1       1.267  11.741  18.818  0.00  0.00    +0.000 A 
ATOM      6  C   UNL     1       2.340  12.464  18.280  0.00  0.00    +0.000 A 
ATOM      7  C   UNL     1       2.318  13.859  18.247  0.00  0.00    +0.000 A 
ATOM      8  C   UNL     1       1.228  14.572  18.761  0.00  0.00    +0.000 A 
ATOM      9  C   UNL     1       1.256  15.976  18.772  0.00  0.00    +0.000 A 
ATOM     10  C   UNL     1       0.193  16.711  19.292  0.00  0.00    +0.000 A 
ATOM     11  C   UNL     1      -0.919  16.050  19.794  0.00  0.00    +0.000 A 
ATOM     12  C   UNL     1      -0.961  14.652  19.790  0.00  0.00    +0.000 A 
ATOM     13  C   UNL     1       0.110  13.876  19.282  0.00  0.00    +0.000 A 
ATOM     14  C   UNL     1       0.146  12.451  19.285  0.00  0.00    +0.000 A 
BRANCH  14  15
ATOM     15  O   UNL     1      -0.937  11.738  19.755  0.00  0.00    +0.000 OA
ATOM     16  H   UNL     1      -0.722  10.791  19.692  0.00  0.00    +0.000 HD
ENDBRANCH  14  15
ENDBRANCH   2   5
BRANCH   3  17
ATOM     17  N   UNL     1       2.097   8.303  17.672  0.00  0.00    +0.000 NA
ATOM     18  C   UNL     1       3.278   7.827  17.907  0.00  0.00    +0.000 C 
BRANCH  18  19
ATOM     19  C   UNL     1       3.522   6.370  17.836  0.00  0.00    +0.000 A 
ATOM     20  C   UNL     1       4.424   5.877  16.884  0.00  0.00    +0.000 A 
ATOM     21  C   UNL     1       4.687   4.511  16.820  0.00  0.00    +0.000 A 
ATOM     22 BR   UNL     1       5.919   3.878  15.523  0.00  0.00    +0.000 Br
ATOM     23  C   UNL     1       4.059   3.626  17.700  0.00  0.00    +0.000 A 
ATOM     24  C   UNL     1       3.148   4.115  18.644  0.00  0.00    +0.000 A 
ATOM     25 BR   UNL     1       2.276   2.928  19.851  0.00  0.00    +0.000 Br
ATOM     26  C   UNL     1       2.877   5.490  18.713  0.00  0.00    +0.000 A 
BRANCH  23  27
ATOM     27  O   UNL     1       4.327   2.283  17.652  0.00  0.00    +0.000 OA
ATOM     28  H   UNL     1       3.967   1.874  18.460  0.00  0.00    +0.000 HD
ENDBRANCH  23  27
BRANCH  26  29
ATOM     29  O   UNL     1       1.990   5.988  19.634  0.00  0.00    +0.000 OA
ATOM     30  H   UNL     1       1.120   5.580  19.454  0.00  0.00    +0.000 HD
ENDBRANCH  26  29
ENDBRANCH  18  19
ENDBRANCH   3  17
TORSDOF 6
ENDMDL
