MODEL 1
REMARK VINA RESULT:      -6.9      0.000      0.000
REMARK  Name = 
REMARK  6 active torsions:
REMARK  status: ('A' for Active; 'I' for Inactive)
REMARK    1  A    between atoms: C_1  and  C_2
REMARK    2  A    between atoms: C_4  and  C_5
REMARK    3  A    between atoms: C_6  and  C_7
REMARK    4  A    between atoms: C_8  and  N_9
REMARK    5  A    between atoms: C_12  and  N_13
REMARK    6  A    between atoms: C_14  and  C_16
REMARK                            x       y       z     vdW  Elec       q    Type
REMARK                         _______ _______ _______ _____ _____    ______ ____
ROOT
ATOM      1  N   UNL     1       3.181   6.655  18.424  0.00  0.00    +0.000 N 
ATOM      2  C   UNL     1       2.595   5.525  17.706  0.00  0.00    +0.000 C 
ATOM      3  C   UNL     1       3.515   4.323  17.975  0.00  0.00    +0.000 C 
ATOM      4  C   UNL     1       4.996   4.622  17.662  0.00  0.00    +0.000 C 
ATOM      5  C   UNL     1       5.457   5.967  18.239  0.00  0.00    +0.000 C 
ATOM      6  C   UNL     1       4.468   7.075  17.881  0.00  0.00    +0.000 C 
ENDROOT
BRANCH   1  14
ATOM      7  C   UNL     1       1.343  11.089  18.147  0.00  0.00    +0.000 C 
ATOM      8  C   UNL     1       1.456   9.763  18.842  0.00  0.00    +0.000 A 
ATOM      9  N   UNL     1       0.799   9.630  20.000  0.00  0.00    +0.000 NA
ATOM     10  C   UNL     1       0.908   8.454  20.641  0.00  0.00    +0.000 A 
ATOM     11  C   UNL     1       0.171   8.350  21.944  0.00  0.00    +0.000 C 
ATOM     12  C   UNL     1       1.675   7.404  20.151  0.00  0.00    +0.000 A 
ATOM     13  C   UNL     1       1.703   6.062  20.828  0.00  0.00    +0.000 C 
ATOM     14  C   UNL     1       2.363   7.649  18.951  0.00  0.00    +0.000 A 
ATOM     15  N   UNL     1       2.239   8.814  18.286  0.00  0.00    +0.000 NA
ENDBRANCH   1  14
BRANCH   4  16
ATOM     16  N   UNL     1       5.274   4.569  16.228  0.00  0.00    +0.000 N 
ATOM     17  C   UNL     1       6.563   4.503  15.753  0.00  0.00    +0.000 C 
ATOM     18  O   UNL     1       7.550   4.495  16.472  0.00  0.00    +0.000 OA
ATOM     19  H   UNL     1       4.507   4.348  15.606  0.00  0.00    +0.000 HD
BRANCH  17  20
ATOM     20  C   UNL     1       6.730   4.387  14.287  0.00  0.00    +0.000 A 
ATOM     21  C   UNL     1       5.961   3.463  13.579  0.00  0.00    +0.000 A 
ATOM     22  C   UNL     1       6.124   3.351  12.202  0.00  0.00    +0.000 A 
ATOM     23  C   UNL     1       7.064   4.157  11.583  0.00  0.00    +0.000 A 
ATOM     24  N   UNL     1       7.831   5.053  12.241  0.00  0.00    +0.000 NA
ATOM     25  C   UNL     1       7.663   5.133  13.583  0.00  0.00    +0.000 A 
ENDBRANCH  17  20
ENDBRANCH   4  16
TORSDOF 3
ENDMDL
MODEL 2
REMARK VINA RESULT:      -6.8      4.108      8.875
REMARK  Name = 
REMARK  6 active torsions:
REMARK  status: ('A' for Active; 'I' for Inactive)
REMARK    1  A    between atoms: C_1  and  C_2
REMARK    2  A    between atoms: C_4  and  C_5
REMARK    3  A    between atoms: C_6  and  C_7
REMARK    4  A    between atoms: C_8  and  N_9
REMARK    5  A    between atoms: C_12  and  N_13
REMARK    6  A    between atoms: C_14  and  C_16
REMARK                            x       y       z     vdW  Elec       q    Type
REMARK                         _______ _______ _______ _____ _____    ______ ____
ROOT
ATOM      1  N   UNL     1       2.025   7.575  19.255  0.00  0.00    +0.000 N 
ATOM      2  C   UNL     1       1.717   8.081  17.919  0.00  0.00    +0.000 C 
ATOM      3  C   UNL     1       1.853   9.611  17.997  0.00  0.00    +0.000 C 
ATOM      4  C   UNL     1       1.035  10.224  19.153  0.00  0.00    +0.000 C 
ATOM      5  C   UNL     1       1.219   9.461  20.472  0.00  0.00    +0.000 C 
ATOM      6  C   UNL     1       1.037   7.960  20.256  0.00  0.00    +0.000 C 
ENDROOT
BRANCH   1  14
ATOM      7  C   UNL     1       2.140   3.254  21.359  0.00  0.00    +0.000 C 
ATOM      8  C   UNL     1       2.708   4.251  20.391  0.00  0.00    +0.000 A 
ATOM      9  N   UNL     1       3.838   3.906  19.763  0.00  0.00    +0.000 NA
ATOM     10  C   UNL     1       4.367   4.798  18.908  0.00  0.00    +0.000 A 
ATOM     11  C   UNL     1       5.643   4.381  18.236  0.00  0.00    +0.000 C 
ATOM     12  C   UNL     1       3.791   6.041  18.674  0.00  0.00    +0.000 A 
ATOM     13  C   UNL     1       4.339   6.985  17.639  0.00  0.00    +0.000 C 
ATOM     14  C   UNL     1       2.631   6.333  19.410  0.00  0.00    +0.000 A 
ATOM     15  N   UNL     1       2.077   5.436  20.248  0.00  0.00    +0.000 NA
ENDBRANCH   1  14
BRANCH   4  16
ATOM     16  N   UNL     1      -0.386  10.324  18.825  0.00  0.00    +0.000 N 
ATOM     17  C   UNL     1      -0.951  11.524  18.460  0.00  0.00    +0.000 C 
ATOM     18  O   UNL     1      -0.330  12.573  18.394  0.00  0.00    +0.000 OA
ATOM     19  H   UNL     1      -0.891   9.466  18.645  0.00  0.00    +0.000 HD
BRANCH  17  20
ATOM     20  C   UNL     1      -2.383  11.501  18.086  0.00  0.00    +0.000 A 
ATOM     21  C   UNL     1      -2.748  11.133  16.790  0.00  0.00    +0.000 A 
ATOM     22  C   UNL     1      -4.095  11.118  16.438  0.00  0.00    +0.000 A 
ATOM     23  C   UNL     1      -5.027  11.491  17.391  0.00  0.00    +0.000 A 
ATOM     24  N   UNL     1      -4.706  11.863  18.648  0.00  0.00    +0.000 NA
ATOM     25  C   UNL     1      -3.388  11.881  18.962  0.00  0.00    +0.000 A 
ENDBRANCH  17  20
ENDBRANCH   4  16
TORSDOF 3
ENDMDL
MODEL 3
REMARK VINA RESULT:      -6.6      3.440      8.759
REMARK  Name = 
REMARK  6 active torsions:
REMARK  status: ('A' for Active; 'I' for Inactive)
REMARK    1  A    between atoms: C_1  and  C_2
REMARK    2  A    between atoms: C_4  and  C_5
REMARK    3  A    between atoms: C_6  and  C_7
REMARK    4  A    between atoms: C_8  and  N_9
REMARK    5  A    between atoms: C_12  and  N_13
REMARK    6  A    between atoms: C_14  and  C_16
REMARK                            x       y       z     vdW  Elec       q    Type
REMARK                         _______ _______ _______ _____ _____    ______ ____
ROOT
ATOM      1  N   UNL     1       2.513   6.965  18.477  0.00  0.00    +0.000 N 
ATOM      2  C   UNL     1       2.148   7.927  17.440  0.00  0.00    +0.000 C 
ATOM      3  C   UNL     1       2.285   9.319  18.078  0.00  0.00    +0.000 C 
ATOM      4  C   UNL     1       1.516   9.443  19.410  0.00  0.00    +0.000 C 
ATOM      5  C   UNL     1       1.757   8.247  20.340  0.00  0.00    +0.000 C 
ATOM      6  C   UNL     1       1.568   6.932  19.587  0.00  0.00    +0.000 C 
ENDROOT
BRANCH   1  14
ATOM      7  C   UNL     1       2.317   2.180  18.063  0.00  0.00    +0.000 C 
ATOM      8  C   UNL     1       3.062   3.474  17.912  0.00  0.00    +0.000 A 
ATOM      9  N   UNL     1       4.335   3.394  17.509  0.00  0.00    +0.000 NA
ATOM     10  C   UNL     1       5.019   4.545  17.389  0.00  0.00    +0.000 A 
ATOM     11  C   UNL     1       6.448   4.413  16.951  0.00  0.00    +0.000 C 
ATOM     12  C   UNL     1       4.455   5.782  17.676  0.00  0.00    +0.000 A 
ATOM     13  C   UNL     1       5.202   7.066  17.438  0.00  0.00    +0.000 C 
ATOM     14  C   UNL     1       3.127   5.765  18.133  0.00  0.00    +0.000 A 
ATOM     15  N   UNL     1       2.424   4.620  18.231  0.00  0.00    +0.000 NA
ENDBRANCH   1  14
BRANCH   4  16
ATOM     16  N   UNL     1       0.083   9.634  19.199  0.00  0.00    +0.000 N 
ATOM     17  C   UNL     1      -0.444  10.881  18.956  0.00  0.00    +0.000 C 
ATOM     18  O   UNL     1       0.226  11.902  18.912  0.00  0.00    +0.000 OA
ATOM     19  H   UNL     1      -0.479   8.815  19.003  0.00  0.00    +0.000 HD
BRANCH  17  20
ATOM     20  C   UNL     1      -1.898  10.954  18.692  0.00  0.00    +0.000 A 
ATOM     21  C   UNL     1      -2.491  10.010  17.852  0.00  0.00    +0.000 A 
ATOM     22  C   UNL     1      -3.858  10.083  17.599  0.00  0.00    +0.000 A 
ATOM     23  C   UNL     1      -4.580  11.110  18.183  0.00  0.00    +0.000 A 
ATOM     24  N   UNL     1      -4.035  12.043  18.991  0.00  0.00    +0.000 NA
ATOM     25  C   UNL     1      -2.700  11.958  19.211  0.00  0.00    +0.000 A 
ENDBRANCH  17  20
ENDBRANCH   4  16
TORSDOF 3
ENDMDL
MODEL 4
REMARK VINA RESULT:      -6.5      4.414     10.355
REMARK  Name = 
REMARK  6 active torsions:
REMARK  status: ('A' for Active; 'I' for Inactive)
REMARK    1  A    between atoms: C_1  and  C_2
REMARK    2  A    between atoms: C_4  and  C_5
REMARK    3  A    between atoms: C_6  and  C_7
REMARK    4  A    between atoms: C_8  and  N_9
REMARK    5  A    between atoms: C_12  and  N_13
REMARK    6  A    between atoms: C_14  and  C_16
REMARK                            x       y       z     vdW  Elec       q    Type
REMARK                         _______ _______ _______ _____ _____    ______ ____
ROOT
ATOM      1  N   UNL     1       1.435   8.401  20.301  0.00  0.00    +0.000 N 
ATOM      2  C   UNL     1       0.784   9.256  19.311  0.00  0.00    +0.000 C 
ATOM      3  C   UNL     1       1.123  10.703  19.703  0.00  0.00    +0.000 C 
ATOM      4  C   UNL     1       0.795  11.014  21.178  0.00  0.00    +0.000 C 
ATOM      5  C   UNL     1       1.292   9.921  22.133  0.00  0.00    +0.000 C 
ATOM      6  C   UNL     1       0.870   8.539  21.638  0.00  0.00    +0.000 C 
ENDROOT
BRANCH   1  14
ATOM      7  C   UNL     1       1.795   3.695  21.212  0.00  0.00    +0.000 C 
ATOM      8  C   UNL     1       2.085   4.882  20.340  0.00  0.00    +0.000 A 
ATOM      9  N   UNL     1       2.856   4.670  19.268  0.00  0.00    +0.000 NA
ATOM     10  C   UNL     1       3.138   5.729  18.490  0.00  0.00    +0.000 A 
ATOM     11  C   UNL     1       4.020   5.454  17.307  0.00  0.00    +0.000 C 
ATOM     12  C   UNL     1       2.669   7.007  18.770  0.00  0.00    +0.000 A 
ATOM     13  C   UNL     1       2.909   8.160  17.834  0.00  0.00    +0.000 C 
ATOM     14  C   UNL     1       1.902   7.142  19.939  0.00  0.00    +0.000 A 
ATOM     15  N   UNL     1       1.591   6.083  20.711  0.00  0.00    +0.000 NA
ENDBRANCH   1  14
BRANCH   4  16
ATOM     16  N   UNL     1      -0.633  11.247  21.384  0.00  0.00    +0.000 N 
ATOM     17  C   UNL     1      -1.081  12.163  22.307  0.00  0.00    +0.000 C 
ATOM     18  O   UNL     1      -0.341  12.826  23.017  0.00  0.00    +0.000 OA
ATOM     19  H   UNL     1      -1.275  10.902  20.682  0.00  0.00    +0.000 HD
BRANCH  17  20
ATOM     20  C   UNL     1      -2.545  12.369  22.390  0.00  0.00    +0.000 A 
ATOM     21  C   UNL     1      -3.254  12.720  21.240  0.00  0.00    +0.000 A 
ATOM     22  C   UNL     1      -4.629  12.919  21.321  0.00  0.00    +0.000 A 
ATOM     23  C   UNL     1      -5.243  12.776  22.553  0.00  0.00    +0.000 A 
ATOM     24  N   UNL     1      -4.584  12.448  23.684  0.00  0.00    +0.000 NA
ATOM     25  C   UNL     1      -3.244  12.272  23.582  0.00  0.00    +0.000 A 
ENDBRANCH  17  20
ENDBRANCH   4  16
TORSDOF 3
ENDMDL
MODEL 5
REMARK VINA RESULT:      -6.4      4.150      9.242
REMARK  Name = 
REMARK  6 active torsions:
REMARK  status: ('A' for Active; 'I' for Inactive)
REMARK    1  A    between atoms: C_1  and  C_2
REMARK    2  A    between atoms: C_4  and  C_5
REMARK    3  A    between atoms: C_6  and  C_7
REMARK    4  A    between atoms: C_8  and  N_9
REMARK    5  A    between atoms: C_12  and  N_13
REMARK    6  A    between atoms: C_14  and  C_16
REMARK                            x       y       z     vdW  Elec       q    Type
REMARK                         _______ _______ _______ _____ _____    ______ ____
ROOT
ATOM      1  N   UNL     1       2.011   7.858  19.284  0.00  0.00    +0.000 N 
ATOM      2  C   UNL     1       1.580   8.325  17.968  0.00  0.00    +0.000 C 
ATOM      3  C   UNL     1       1.819   9.844  17.952  0.00  0.00    +0.000 C 
ATOM      4  C   UNL     1       1.182  10.561  19.162  0.00  0.00    +0.000 C 
ATOM      5  C   UNL     1       1.471   9.845  20.488  0.00  0.00    +0.000 C 
ATOM      6  C   UNL     1       1.173   8.351  20.370  0.00  0.00    +0.000 C 
ENDROOT
BRANCH   1  14
ATOM      7  C   UNL     1       2.057   3.609  21.532  0.00  0.00    +0.000 C 
ATOM      8  C   UNL     1       2.594   4.536  20.480  0.00  0.00    +0.000 A 
ATOM      9  N   UNL     1       3.639   4.100  19.768  0.00  0.00    +0.000 NA
ATOM     10  C   UNL     1       4.140   4.928  18.836  0.00  0.00    +0.000 A 
ATOM     11  C   UNL     1       5.322   4.410  18.070  0.00  0.00    +0.000 C 
ATOM     12  C   UNL     1       3.622   6.197  18.607  0.00  0.00    +0.000 A 
ATOM     13  C   UNL     1       4.129   7.070  17.492  0.00  0.00    +0.000 C 
ATOM     14  C   UNL     1       2.552   6.585  19.431  0.00  0.00    +0.000 A 
ATOM     15  N   UNL     1       2.024   5.753  20.349  0.00  0.00    +0.000 NA
ENDBRANCH   1  14
BRANCH   4  16
ATOM     16  N   UNL     1      -0.258  10.742  18.994  0.00  0.00    +0.000 N 
ATOM     17  C   UNL     1      -0.922  11.782  19.601  0.00  0.00    +0.000 C 
ATOM     18  O   UNL     1      -0.378  12.606  20.319  0.00  0.00    +0.000 OA
ATOM     19  H   UNL     1      -0.714  10.237  18.245  0.00  0.00    +0.000 HD
BRANCH  17  20
ATOM     20  C   UNL     1      -2.369  11.911  19.312  0.00  0.00    +0.000 A 
ATOM     21  C   UNL     1      -3.182  12.631  20.190  0.00  0.00    +0.000 A 
ATOM     22  C   UNL     1      -4.542  12.746  19.920  0.00  0.00    +0.000 A 
ATOM     23  C   UNL     1      -5.044  12.122  18.791  0.00  0.00    +0.000 A 
ATOM     24  N   UNL     1      -4.287  11.411  17.930  0.00  0.00    +0.000 NA
ATOM     25  C   UNL     1      -2.968  11.302  18.221  0.00  0.00    +0.000 A 
ENDBRANCH  17  20
ENDBRANCH   4  16
TORSDOF 3
ENDMDL
MODEL 6
REMARK VINA RESULT:      -6.3      3.602      5.783
REMARK  Name = 
REMARK  6 active torsions:
REMARK  status: ('A' for Active; 'I' for Inactive)
REMARK    1  A    between atoms: C_1  and  C_2
REMARK    2  A    between atoms: C_4  and  C_5
REMARK    3  A    between atoms: C_6  and  C_7
REMARK    4  A    between atoms: C_8  and  N_9
REMARK    5  A    between atoms: C_12  and  N_13
REMARK    6  A    between atoms: C_14  and  C_16
REMARK                            x       y       z     vdW  Elec       q    Type
REMARK                         _______ _______ _______ _____ _____    ______ ____
ROOT
ATOM      1  N   UNL     1      -0.372  10.108  19.263  0.00  0.00    +0.000 N 
ATOM      2  C   UNL     1      -0.143   9.182  20.369  0.00  0.00    +0.000 C 
ATOM      3  C   UNL     1       1.382   9.092  20.546  0.00  0.00    +0.000 C 
ATOM      4  C   UNL     1       2.117   8.761  19.230  0.00  0.00    +0.000 C 
ATOM      5  C   UNL     1       1.622   9.611  18.052  0.00  0.00    +0.000 C 
ATOM      6  C   UNL     1       0.096   9.596  17.980  0.00  0.00    +0.000 C 
ENDROOT
BRANCH   1  14
ATOM      7  C   UNL     1      -4.604  11.264  17.297  0.00  0.00    +0.000 C 
ATOM      8  C   UNL     1      -3.542  11.484  18.336  0.00  0.00    +0.000 A 
ATOM      9  N   UNL     1      -3.719  12.515  19.170  0.00  0.00    +0.000 NA
ATOM     10  C   UNL     1      -2.766  12.734  20.092  0.00  0.00    +0.000 A 
ATOM     11  C   UNL     1      -2.993  13.909  20.998  0.00  0.00    +0.000 C 
ATOM     12  C   UNL     1      -1.627  11.945  20.192  0.00  0.00    +0.000 A 
ATOM     13  C   UNL     1      -0.622  12.141  21.293  0.00  0.00    +0.000 C 
ATOM     14  C   UNL     1      -1.506  10.912  19.247  0.00  0.00    +0.000 A 
ATOM     15  N   UNL     1      -2.468  10.667  18.336  0.00  0.00    +0.000 NA
ENDBRANCH   1  14
BRANCH   4  16
ATOM     16  N   UNL     1       2.028   7.341  18.896  0.00  0.00    +0.000 N 
ATOM     17  C   UNL     1       3.001   6.722  18.146  0.00  0.00    +0.000 C 
ATOM     18  O   UNL     1       3.982   7.298  17.702  0.00  0.00    +0.000 OA
ATOM     19  H   UNL     1       1.371   6.773  19.415  0.00  0.00    +0.000 HD
BRANCH  17  20
ATOM     20  C   UNL     1       2.847   5.267  17.921  0.00  0.00    +0.000 A 
ATOM     21  C   UNL     1       3.984   4.475  17.754  0.00  0.00    +0.000 A 
ATOM     22  C   UNL     1       3.837   3.108  17.536  0.00  0.00    +0.000 A 
ATOM     23  C   UNL     1       2.557   2.586  17.474  0.00  0.00    +0.000 A 
ATOM     24  N   UNL     1       1.438   3.327  17.621  0.00  0.00    +0.000 NA
ATOM     25  C   UNL     1       1.607   4.657  17.819  0.00  0.00    +0.000 A 
ENDBRANCH  17  20
ENDBRANCH   4  16
TORSDOF 3
ENDMDL
MODEL 7
REMARK VINA RESULT:      -6.3      4.043      8.337
REMARK  Name = 
REMARK  6 active torsions:
REMARK  status: ('A' for Active; 'I' for Inactive)
REMARK    1  A    between atoms: C_1  and  C_2
REMARK    2  A    between atoms: C_4  and  C_5
REMARK    3  A    between atoms: C_6  and  C_7
REMARK    4  A    between atoms: C_8  and  N_9
REMARK    5  A    between atoms: C_12  and  N_13
REMARK    6  A    between atoms: C_14  and  C_16
REMARK                            x       y       z     vdW  Elec       q    Type
REMARK                         _______ _______ _______ _____ _____    ______ ____
ROOT
ATOM      1  N   UNL     1       2.314   7.352  19.249  0.00  0.00    +0.000 N 
ATOM      2  C   UNL     1       2.068   8.126  20.464  0.00  0.00    +0.000 C 
ATOM      3  C   UNL     1       0.729   8.850  20.250  0.00  0.00    +0.000 C 
ATOM      4  C   UNL     1       0.686   9.644  18.927  0.00  0.00    +0.000 C 
ATOM      5  C   UNL     1       1.213   8.832  17.737  0.00  0.00    +0.000 C 
ATOM      6  C   UNL     1       2.555   8.186  18.078  0.00  0.00    +0.000 C 
ENDROOT
BRANCH   1  14
ATOM      7  C   UNL     1       6.303   4.797  18.435  0.00  0.00    +0.000 C 
ATOM      8  C   UNL     1       4.896   4.893  18.950  0.00  0.00    +0.000 A 
ATOM      9  N   UNL     1       4.337   3.762  19.394  0.00  0.00    +0.000 NA
ATOM     10  C   UNL     1       3.071   3.831  19.839  0.00  0.00    +0.000 A 
ATOM     11  C   UNL     1       2.474   2.539  20.313  0.00  0.00    +0.000 C 
ATOM     12  C   UNL     1       2.343   5.015  19.840  0.00  0.00    +0.000 A 
ATOM     13  C   UNL     1       0.965   5.096  20.436  0.00  0.00    +0.000 C 
ATOM     14  C   UNL     1       2.997   6.143  19.316  0.00  0.00    +0.000 A 
ATOM     15  N   UNL     1       4.275   6.090  18.892  0.00  0.00    +0.000 NA
ENDBRANCH   1  14
BRANCH   4  16
ATOM     16  N   UNL     1       1.405  10.913  19.028  0.00  0.00    +0.000 N 
ATOM     17  C   UNL     1       0.775  12.111  18.787  0.00  0.00    +0.000 C 
ATOM     18  O   UNL     1      -0.400  12.207  18.467  0.00  0.00    +0.000 OA
ATOM     19  H   UNL     1       2.300  10.913  19.500  0.00  0.00    +0.000 HD
BRANCH  17  20
ATOM     20  C   UNL     1       1.578  13.340  18.979  0.00  0.00    +0.000 A 
ATOM     21  C   UNL     1       2.806  13.466  18.326  0.00  0.00    +0.000 A 
ATOM     22  C   UNL     1       3.562  14.619  18.513  0.00  0.00    +0.000 A 
ATOM     23  C   UNL     1       3.072  15.597  19.361  0.00  0.00    +0.000 A 
ATOM     24  N   UNL     1       1.895  15.500  20.014  0.00  0.00    +0.000 NA
ATOM     25  C   UNL     1       1.183  14.363  19.827  0.00  0.00    +0.000 A 
ENDBRANCH  17  20
ENDBRANCH   4  16
TORSDOF 3
ENDMDL
MODEL 8
REMARK VINA RESULT:      -6.2      4.051      7.360
REMARK  Name = 
REMARK  6 active torsions:
REMARK  status: ('A' for Active; 'I' for Inactive)
REMARK    1  A    between atoms: C_1  and  C_2
REMARK    2  A    between atoms: C_4  and  C_5
REMARK    3  A    between atoms: C_6  and  C_7
REMARK    4  A    between atoms: C_8  and  N_9
REMARK    5  A    between atoms: C_12  and  N_13
REMARK    6  A    between atoms: C_14  and  C_16
REMARK                            x       y       z     vdW  Elec       q    Type
REMARK                         _______ _______ _______ _____ _____    ______ ____
ROOT
ATOM      1  N   UNL     1      -0.529  11.827  20.301  0.00  0.00    +0.000 N 
ATOM      2  C   UNL     1       0.858  11.660  20.730  0.00  0.00    +0.000 C 
ATOM      3  C   UNL     1       1.682  11.449  19.449  0.00  0.00    +0.000 C 
ATOM      4  C   UNL     1       1.115  10.327  18.553  0.00  0.00    +0.000 C 
ATOM      5  C   UNL     1      -0.405  10.433  18.370  0.00  0.00    +0.000 C 
ATOM      6  C   UNL     1      -1.098  10.618  19.718  0.00  0.00    +0.000 C 
ENDROOT
BRANCH   1  14
ATOM      7  C   UNL     1      -3.604  12.420  23.948  0.00  0.00    +0.000 C 
ATOM      8  C   UNL     1      -2.859  12.968  22.766  0.00  0.00    +0.000 A 
ATOM      9  N   UNL     1      -3.123  14.233  22.419  0.00  0.00    +0.000 NA
ATOM     10  C   UNL     1      -2.476  14.729  21.351  0.00  0.00    +0.000 A 
ATOM     11  C   UNL     1      -2.812  16.145  20.984  0.00  0.00    +0.000 C 
ATOM     12  C   UNL     1      -1.572  13.978  20.610  0.00  0.00    +0.000 A 
ATOM     13  C   UNL     1      -0.781  14.580  19.481  0.00  0.00    +0.000 C 
ATOM     14  C   UNL     1      -1.390  12.647  21.022  0.00  0.00    +0.000 A 
ATOM     15  N   UNL     1      -2.012  12.148  22.107  0.00  0.00    +0.000 NA
ENDBRANCH   1  14
BRANCH   4  16
ATOM     16  N   UNL     1       1.469   8.999  19.051  0.00  0.00    +0.000 N 
ATOM     17  C   UNL     1       2.238   8.138  18.303  0.00  0.00    +0.000 C 
ATOM     18  O   UNL     1       2.664   8.404  17.190  0.00  0.00    +0.000 OA
ATOM     19  H   UNL     1       1.340   8.814  20.037  0.00  0.00    +0.000 HD
BRANCH  17  20
ATOM     20  C   UNL     1       2.593   6.844  18.927  0.00  0.00    +0.000 A 
ATOM     21  C   UNL     1       1.869   6.394  20.033  0.00  0.00    +0.000 A 
ATOM     22  C   UNL     1       2.208   5.180  20.623  0.00  0.00    +0.000 A 
ATOM     23  C   UNL     1       3.270   4.466  20.095  0.00  0.00    +0.000 A 
ATOM     24  N   UNL     1       3.996   4.879  19.035  0.00  0.00    +0.000 NA
ATOM     25  C   UNL     1       3.655   6.071  18.487  0.00  0.00    +0.000 A 
ENDBRANCH  17  20
ENDBRANCH   4  16
TORSDOF 3
ENDMDL
MODEL 9
REMARK VINA RESULT:      -6.2      2.022      3.072
REMARK  Name = 
REMARK  6 active torsions:
REMARK  status: ('A' for Active; 'I' for Inactive)
REMARK    1  A    between atoms: C_1  and  C_2
REMARK    2  A    between atoms: C_4  and  C_5
REMARK    3  A    between atoms: C_6  and  C_7
REMARK    4  A    between atoms: C_8  and  N_9
REMARK    5  A    between atoms: C_12  and  N_13
REMARK    6  A    between atoms: C_14  and  C_16
REMARK                            x       y       z     vdW  Elec       q    Type
REMARK                         _______ _______ _______ _____ _____    ______ ____
ROOT
ATOM      1  N   UNL     1       4.373   5.220  18.129  0.00  0.00    +0.000 N 
ATOM      2  C   UNL     1       5.297   4.091  18.045  0.00  0.00    +0.000 C 
ATOM      3  C   UNL     1       6.596   4.643  17.436  0.00  0.00    +0.000 C 
ATOM      4  C   UNL     1       6.357   5.416  16.122  0.00  0.00    +0.000 C 
ATOM      5  C   UNL     1       5.187   6.402  16.225  0.00  0.00    +0.000 C 
ATOM      6  C   UNL     1       3.958   5.720  16.824  0.00  0.00    +0.000 C 
ENDROOT
BRANCH   1  14
ATOM      7  C   UNL     1       1.459   7.827  20.926  0.00  0.00    +0.000 C 
ATOM      8  C   UNL     1       2.024   6.501  20.506  0.00  0.00    +0.000 A 
ATOM      9  N   UNL     1       1.637   5.431  21.208  0.00  0.00    +0.000 NA
ATOM     10  C   UNL     1       2.151   4.240  20.853  0.00  0.00    +0.000 A 
ATOM     11  C   UNL     1       1.706   3.066  21.676  0.00  0.00    +0.000 C 
ATOM     12  C   UNL     1       3.057   4.099  19.810  0.00  0.00    +0.000 A 
ATOM     13  C   UNL     1       3.543   2.747  19.361  0.00  0.00    +0.000 C 
ATOM     14  C   UNL     1       3.438   5.283  19.157  0.00  0.00    +0.000 A 
ATOM     15  N   UNL     1       2.909   6.477  19.486  0.00  0.00    +0.000 NA
ENDBRANCH   1  14
BRANCH   4  16
ATOM     16  N   UNL     1       6.157   4.517  14.987  0.00  0.00    +0.000 N 
ATOM     17  C   UNL     1       6.874   4.667  13.823  0.00  0.00    +0.000 C 
ATOM     18  O   UNL     1       7.703   5.546  13.646  0.00  0.00    +0.000 OA
ATOM     19  H   UNL     1       5.660   3.651  15.152  0.00  0.00    +0.000 HD
BRANCH  17  20
ATOM     20  C   UNL     1       6.641   3.663  12.760  0.00  0.00    +0.000 A 
ATOM     21  C   UNL     1       5.335   3.273  12.459  0.00  0.00    +0.000 A 
ATOM     22  C   UNL     1       5.117   2.325  11.464  0.00  0.00    +0.000 A 
ATOM     23  C   UNL     1       6.216   1.787  10.817  0.00  0.00    +0.000 A 
ATOM     24  N   UNL     1       7.491   2.135  11.092  0.00  0.00    +0.000 NA
ATOM     25  C   UNL     1       7.677   3.050  12.074  0.00  0.00    +0.000 A 
ENDBRANCH  17  20
ENDBRANCH   4  16
TORSDOF 3
ENDMDL
