MODEL 1
REMARK VINA RESULT:      -7.1      0.000      0.000
REMARK  Name = 
REMARK  9 active torsions:
REMARK  status: ('A' for Active; 'I' for Inactive)
REMARK    1  A    between atoms: C_1  and  C_2
REMARK    2  A    between atoms: C_2  and  C_3
REMARK    3  A    between atoms: C_2  and  N_10
REMARK    4  A    between atoms: C_3  and  C_4
REMARK    5  A    between atoms: N_10  and  C_11
REMARK    6  A    between atoms: N_10  and  S_20
REMARK    7  A    between atoms: C_17  and  C_18
REMARK    8  A    between atoms: C_18  and  O_19
REMARK    9  A    between atoms: S_20  and  C_23
REMARK                            x       y       z     vdW  Elec       q    Type
REMARK                         _______ _______ _______ _____ _____    ______ ____
ROOT
ATOM      1  N   UNL     1       5.127   4.775  17.894  0.00  0.00    +0.000 N 
ENDROOT
BRANCH   1   2
ATOM      2  C   UNL     1       4.054   4.811  18.863  0.00  0.00    +0.000 A 
ATOM      3  C   UNL     1       3.476   6.065  19.095  0.00  0.00    +0.000 A 
ATOM      4  C   UNL     1       2.459   6.217  20.032  0.00  0.00    +0.000 A 
ATOM      5 CL   UNL     1       1.826   7.785  20.350  0.00  0.00    +0.000 Cl
ATOM      6  C   UNL     1       1.954   5.115  20.707  0.00  0.00    +0.000 A 
ATOM      7  C   UNL     1       2.497   3.856  20.459  0.00  0.00    +0.000 A 
ATOM      8  C   UNL     1       3.581   3.680  19.569  0.00  0.00    +0.000 A 
BRANCH   8   9
ATOM      9  C   UNL     1       4.134   2.290  19.377  0.00  0.00    +0.000 C 
BRANCH   9  10
ATOM     10  O   UNL     1       5.208   2.037  20.285  0.00  0.00    +0.000 OA
ATOM     11  H   UNL     1       4.904   2.294  21.171  0.00  0.00    +0.000 HD
ENDBRANCH   9  10
ENDBRANCH   8   9
ENDBRANCH   1   2
BRANCH   1  12
ATOM     12  S   UNL     1       6.720   4.837  18.538  0.00  0.00    +0.000 S 
ATOM     13  O   UNL     1       6.685   4.582  19.963  0.00  0.00    +0.000 OA
ATOM     14  O   UNL     1       7.574   4.053  17.669  0.00  0.00    +0.000 OA
BRANCH  12  15
ATOM     15  C   UNL     1       7.215   6.557  18.371  0.00  0.00    +0.000 A 
ATOM     16  C   UNL     1       8.326   7.028  19.081  0.00  0.00    +0.000 A 
ATOM     17  C   UNL     1       8.774   8.343  18.896  0.00  0.00    +0.000 A 
ATOM     18  C   UNL     1       8.135   9.171  17.975  0.00  0.00    +0.000 A 
ATOM     19 CL   UNL     1       8.720  10.767  17.713  0.00  0.00    +0.000 Cl
ATOM     20  C   UNL     1       7.046   8.699  17.244  0.00  0.00    +0.000 A 
ATOM     21  C   UNL     1       6.584   7.391  17.440  0.00  0.00    +0.000 A 
ENDBRANCH  12  15
ENDBRANCH   1  12
BRANCH   1  23
ATOM     22  C   UNL     1       3.450   3.692  16.355  0.00  0.00    +0.000 C 
ATOM     23  C   UNL     1       4.892   4.218  16.508  0.00  0.00    +0.000 C 
BRANCH  23  24
ATOM     24  C   UNL     1       5.157   5.271  15.402  0.00  0.00    +0.000 C 
BRANCH  24  25
ATOM     25  C   UNL     1       5.840   4.723  14.166  0.00  0.00    +0.000 A 
ATOM     26  C   UNL     1       5.203   3.769  13.361  0.00  0.00    +0.000 A 
ATOM     27  C   UNL     1       5.846   3.256  12.232  0.00  0.00    +0.000 A 
ATOM     28  C   UNL     1       7.125   3.692  11.896  0.00  0.00    +0.000 A 
ATOM     29  C   UNL     1       7.760   4.654  12.678  0.00  0.00    +0.000 A 
ATOM     30  C   UNL     1       7.117   5.174  13.802  0.00  0.00    +0.000 A 
ENDBRANCH  24  25
ENDBRANCH  23  24
ENDBRANCH   1  23
TORSDOF 8
ENDMDL
MODEL 2
REMARK VINA RESULT:      -7.0      0.600      1.199
REMARK  Name = 
REMARK  9 active torsions:
REMARK  status: ('A' for Active; 'I' for Inactive)
REMARK    1  A    between atoms: C_1  and  C_2
REMARK    2  A    between atoms: C_2  and  C_3
REMARK    3  A    between atoms: C_2  and  N_10
REMARK    4  A    between atoms: C_3  and  C_4
REMARK    5  A    between atoms: N_10  and  C_11
REMARK    6  A    between atoms: N_10  and  S_20
REMARK    7  A    between atoms: C_17  and  C_18
REMARK    8  A    between atoms: C_18  and  O_19
REMARK    9  A    between atoms: S_20  and  C_23
REMARK                            x       y       z     vdW  Elec       q    Type
REMARK                         _______ _______ _______ _____ _____    ______ ____
ROOT
ATOM      1  N   UNL     1       5.091   5.246  17.744  0.00  0.00    +0.000 N 
ENDROOT
BRANCH   1   2
ATOM      2  C   UNL     1       3.994   5.163  18.682  0.00  0.00    +0.000 A 
ATOM      3  C   UNL     1       3.400   6.378  19.045  0.00  0.00    +0.000 A 
ATOM      4  C   UNL     1       2.358   6.415  19.966  0.00  0.00    +0.000 A 
ATOM      5 CL   UNL     1       1.705   7.931  20.448  0.00  0.00    +0.000 Cl
ATOM      6  C   UNL     1       1.845   5.239  20.494  0.00  0.00    +0.000 A 
ATOM      7  C   UNL     1       2.404   4.020  20.115  0.00  0.00    +0.000 A 
ATOM      8  C   UNL     1       3.512   3.955  19.239  0.00  0.00    +0.000 A 
BRANCH   8   9
ATOM      9  C   UNL     1       4.081   2.599  18.900  0.00  0.00    +0.000 C 
BRANCH   9  10
ATOM     10  O   UNL     1       5.121   2.240  19.811  0.00  0.00    +0.000 OA
ATOM     11  H   UNL     1       5.211   1.272  19.782  0.00  0.00    +0.000 HD
ENDBRANCH   9  10
ENDBRANCH   8   9
ENDBRANCH   1   2
BRANCH   1  12
ATOM     12  S   UNL     1       6.666   5.114  18.421  0.00  0.00    +0.000 S 
ATOM     13  O   UNL     1       6.571   4.878  19.846  0.00  0.00    +0.000 OA
ATOM     14  O   UNL     1       7.432   4.220  17.575  0.00  0.00    +0.000 OA
BRANCH  12  15
ATOM     15  C   UNL     1       7.378   6.756  18.253  0.00  0.00    +0.000 A 
ATOM     16  C   UNL     1       6.794   7.674  17.373  0.00  0.00    +0.000 A 
ATOM     17  C   UNL     1       7.287   8.984  17.293  0.00  0.00    +0.000 A 
ATOM     18  C   UNL     1       8.335   9.383  18.121  0.00  0.00    +0.000 A 
ATOM     19 CL   UNL     1       8.903  11.005  18.057  0.00  0.00    +0.000 Cl
ATOM     20  C   UNL     1       8.902   8.481  19.020  0.00  0.00    +0.000 A 
ATOM     21  C   UNL     1       8.424   7.165  19.088  0.00  0.00    +0.000 A 
ENDBRANCH  12  15
ENDBRANCH   1  12
BRANCH   1  23
ATOM     22  C   UNL     1       5.066   6.224  15.421  0.00  0.00    +0.000 C 
ATOM     23  C   UNL     1       4.871   4.957  16.277  0.00  0.00    +0.000 C 
BRANCH  23  24
ATOM     24  C   UNL     1       5.820   3.850  15.751  0.00  0.00    +0.000 C 
BRANCH  24  25
ATOM     25  C   UNL     1       6.328   4.077  14.342  0.00  0.00    +0.000 A 
ATOM     26  C   UNL     1       5.770   3.382  13.260  0.00  0.00    +0.000 A 
ATOM     27  C   UNL     1       6.255   3.584  11.966  0.00  0.00    +0.000 A 
ATOM     28  C   UNL     1       7.296   4.482  11.741  0.00  0.00    +0.000 A 
ATOM     29  C   UNL     1       7.845   5.192  12.806  0.00  0.00    +0.000 A 
ATOM     30  C   UNL     1       7.357   4.998  14.099  0.00  0.00    +0.000 A 
ENDBRANCH  24  25
ENDBRANCH  23  24
ENDBRANCH   1  23
TORSDOF 8
ENDMDL
MODEL 3
REMARK VINA RESULT:      -6.9      1.539      2.332
REMARK  Name = 
REMARK  9 active torsions:
REMARK  status: ('A' for Active; 'I' for Inactive)
REMARK    1  A    between atoms: C_1  and  C_2
REMARK    2  A    between atoms: C_2  and  C_3
REMARK    3  A    between atoms: C_2  and  N_10
REMARK    4  A    between atoms: C_3  and  C_4
REMARK    5  A    between atoms: N_10  and  C_11
REMARK    6  A    between atoms: N_10  and  S_20
REMARK    7  A    between atoms: C_17  and  C_18
REMARK    8  A    between atoms: C_18  and  O_19
REMARK    9  A    between atoms: S_20  and  C_23
REMARK                            x       y       z     vdW  Elec       q    Type
REMARK                         _______ _______ _______ _____ _____    ______ ____
ROOT
ATOM      1  N   UNL     1       5.296   4.984  17.867  0.00  0.00    +0.000 N 
ENDROOT
BRANCH   1   2
ATOM      2  C   UNL     1       4.169   5.197  18.747  0.00  0.00    +0.000 A 
ATOM      3  C   UNL     1       3.913   4.180  19.675  0.00  0.00    +0.000 A 
ATOM      4  C   UNL     1       2.833   4.268  20.548  0.00  0.00    +0.000 A 
ATOM      5 CL   UNL     1       2.500   2.965  21.620  0.00  0.00    +0.000 Cl
ATOM      6  C   UNL     1       2.027   5.397  20.557  0.00  0.00    +0.000 A 
ATOM      7  C   UNL     1       2.292   6.432  19.662  0.00  0.00    +0.000 A 
ATOM      8  C   UNL     1       3.336   6.339  18.714  0.00  0.00    +0.000 A 
BRANCH   8   9
ATOM      9  C   UNL     1       3.542   7.488  17.757  0.00  0.00    +0.000 C 
BRANCH   9  10
ATOM     10  O   UNL     1       2.444   8.401  17.812  0.00  0.00    +0.000 OA
ATOM     11  H   UNL     1       2.813   9.300  17.777  0.00  0.00    +0.000 HD
ENDBRANCH   9  10
ENDBRANCH   8   9
ENDBRANCH   1   2
BRANCH   1  12
ATOM     12  S   UNL     1       6.846   5.035  18.610  0.00  0.00    +0.000 S 
ATOM     13  O   UNL     1       6.708   4.915  20.046  0.00  0.00    +0.000 OA
ATOM     14  O   UNL     1       7.713   4.135  17.874  0.00  0.00    +0.000 OA
BRANCH  12  15
ATOM     15  C   UNL     1       7.438   6.708  18.322  0.00  0.00    +0.000 A 
ATOM     16  C   UNL     1       6.782   7.522  17.392  0.00  0.00    +0.000 A 
ATOM     17  C   UNL     1       7.180   8.854  17.218  0.00  0.00    +0.000 A 
ATOM     18  C   UNL     1       8.205   9.380  18.002  0.00  0.00    +0.000 A 
ATOM     19 CL   UNL     1       8.655  11.031  17.823  0.00  0.00    +0.000 Cl
ATOM     20  C   UNL     1       8.842   8.583  18.952  0.00  0.00    +0.000 A 
ATOM     21  C   UNL     1       8.460   7.245  19.114  0.00  0.00    +0.000 A 
ENDBRANCH  12  15
ENDBRANCH   1  12
BRANCH   1  23
ATOM     22  C   UNL     1       3.780   3.503  16.503  0.00  0.00    +0.000 C 
ATOM     23  C   UNL     1       5.114   4.276  16.543  0.00  0.00    +0.000 C 
BRANCH  23  24
ATOM     24  C   UNL     1       5.156   5.259  15.345  0.00  0.00    +0.000 C 
BRANCH  24  25
ATOM     25  C   UNL     1       5.831   4.709  14.106  0.00  0.00    +0.000 A 
ATOM     26  C   UNL     1       5.193   3.745  13.312  0.00  0.00    +0.000 A 
ATOM     27  C   UNL     1       5.829   3.229  12.181  0.00  0.00    +0.000 A 
ATOM     28  C   UNL     1       7.102   3.672  11.830  0.00  0.00    +0.000 A 
ATOM     29  C   UNL     1       7.738   4.643  12.601  0.00  0.00    +0.000 A 
ATOM     30  C   UNL     1       7.102   5.166  13.728  0.00  0.00    +0.000 A 
ENDBRANCH  24  25
ENDBRANCH  23  24
ENDBRANCH   1  23
TORSDOF 8
ENDMDL
MODEL 4
REMARK VINA RESULT:      -6.9      0.535      1.377
REMARK  Name = 
REMARK  9 active torsions:
REMARK  status: ('A' for Active; 'I' for Inactive)
REMARK    1  A    between atoms: C_1  and  C_2
REMARK    2  A    between atoms: C_2  and  C_3
REMARK    3  A    between atoms: C_2  and  N_10
REMARK    4  A    between atoms: C_3  and  C_4
REMARK    5  A    between atoms: N_10  and  C_11
REMARK    6  A    between atoms: N_10  and  S_20
REMARK    7  A    between atoms: C_17  and  C_18
REMARK    8  A    between atoms: C_18  and  O_19
REMARK    9  A    between atoms: S_20  and  C_23
REMARK                            x       y       z     vdW  Elec       q    Type
REMARK                         _______ _______ _______ _____ _____    ______ ____
ROOT
ATOM      1  N   UNL     1       5.265   4.982  17.882  0.00  0.00    +0.000 N 
ENDROOT
BRANCH   1   2
ATOM      2  C   UNL     1       4.156   5.161  18.792  0.00  0.00    +0.000 A 
ATOM      3  C   UNL     1       3.531   6.413  18.762  0.00  0.00    +0.000 A 
ATOM      4  C   UNL     1       2.475   6.703  19.620  0.00  0.00    +0.000 A 
ATOM      5 CL   UNL     1       1.783   8.278  19.612  0.00  0.00    +0.000 Cl
ATOM      6  C   UNL     1       1.980   5.732  20.478  0.00  0.00    +0.000 A 
ATOM      7  C   UNL     1       2.569   4.469  20.492  0.00  0.00    +0.000 A 
ATOM      8  C   UNL     1       3.691   4.168  19.687  0.00  0.00    +0.000 A 
BRANCH   8   9
ATOM      9  C   UNL     1       4.294   2.788  19.781  0.00  0.00    +0.000 C 
BRANCH   9  10
ATOM     10  O   UNL     1       3.371   1.795  19.333  0.00  0.00    +0.000 OA
ATOM     11  H   UNL     1       3.272   1.146  20.049  0.00  0.00    +0.000 HD
ENDBRANCH   9  10
ENDBRANCH   8   9
ENDBRANCH   1   2
BRANCH   1  12
ATOM     12  S   UNL     1       6.831   5.044  18.589  0.00  0.00    +0.000 S 
ATOM     13  O   UNL     1       6.727   4.919  20.027  0.00  0.00    +0.000 OA
ATOM     14  O   UNL     1       7.689   4.154  17.830  0.00  0.00    +0.000 OA
BRANCH  12  15
ATOM     15  C   UNL     1       7.401   6.723  18.293  0.00  0.00    +0.000 A 
ATOM     16  C   UNL     1       6.680   7.556  17.431  0.00  0.00    +0.000 A 
ATOM     17  C   UNL     1       7.065   8.891  17.256  0.00  0.00    +0.000 A 
ATOM     18  C   UNL     1       8.145   9.402  17.973  0.00  0.00    +0.000 A 
ATOM     19 CL   UNL     1       8.583  11.056  17.795  0.00  0.00    +0.000 Cl
ATOM     20  C   UNL     1       8.850   8.585  18.856  0.00  0.00    +0.000 A 
ATOM     21  C   UNL     1       8.480   7.244  19.018  0.00  0.00    +0.000 A 
ENDBRANCH  12  15
ENDBRANCH   1  12
BRANCH   1  23
ATOM     22  C   UNL     1       3.692   3.590  16.488  0.00  0.00    +0.000 C 
ATOM     23  C   UNL     1       5.062   4.296  16.550  0.00  0.00    +0.000 C 
BRANCH  23  24
ATOM     24  C   UNL     1       5.167   5.285  15.361  0.00  0.00    +0.000 C 
BRANCH  24  25
ATOM     25  C   UNL     1       5.857   4.722  14.136  0.00  0.00    +0.000 A 
ATOM     26  C   UNL     1       7.149   5.139  13.788  0.00  0.00    +0.000 A 
ATOM     27  C   UNL     1       7.774   4.628  12.648  0.00  0.00    +0.000 A 
ATOM     28  C   UNL     1       7.116   3.696  11.848  0.00  0.00    +0.000 A 
ATOM     29  C   UNL     1       5.839   3.260  12.195  0.00  0.00    +0.000 A 
ATOM     30  C   UNL     1       5.217   3.763  13.338  0.00  0.00    +0.000 A 
ENDBRANCH  24  25
ENDBRANCH  23  24
ENDBRANCH   1  23
TORSDOF 8
ENDMDL
MODEL 5
REMARK VINA RESULT:      -6.5      0.839      1.349
REMARK  Name = 
REMARK  9 active torsions:
REMARK  status: ('A' for Active; 'I' for Inactive)
REMARK    1  A    between atoms: C_1  and  C_2
REMARK    2  A    between atoms: C_2  and  C_3
REMARK    3  A    between atoms: C_2  and  N_10
REMARK    4  A    between atoms: C_3  and  C_4
REMARK    5  A    between atoms: N_10  and  C_11
REMARK    6  A    between atoms: N_10  and  S_20
REMARK    7  A    between atoms: C_17  and  C_18
REMARK    8  A    between atoms: C_18  and  O_19
REMARK    9  A    between atoms: S_20  and  C_23
REMARK                            x       y       z     vdW  Elec       q    Type
REMARK                         _______ _______ _______ _____ _____    ______ ____
ROOT
ATOM      1  N   UNL     1       5.054   5.151  17.648  0.00  0.00    +0.000 N 
ENDROOT
BRANCH   1   2
ATOM      2  C   UNL     1       3.938   5.048  18.563  0.00  0.00    +0.000 A 
ATOM      3  C   UNL     1       3.397   6.260  19.011  0.00  0.00    +0.000 A 
ATOM      4  C   UNL     1       2.342   6.276  19.918  0.00  0.00    +0.000 A 
ATOM      5 CL   UNL     1       1.753   7.781  20.508  0.00  0.00    +0.000 Cl
ATOM      6  C   UNL     1       1.767   5.089  20.348  0.00  0.00    +0.000 A 
ATOM      7  C   UNL     1       2.274   3.877  19.883  0.00  0.00    +0.000 A 
ATOM      8  C   UNL     1       3.391   3.826  19.020  0.00  0.00    +0.000 A 
BRANCH   8   9
ATOM      9  C   UNL     1       3.902   2.475  18.584  0.00  0.00    +0.000 C 
BRANCH   9  10
ATOM     10  O   UNL     1       2.924   1.786  17.804  0.00  0.00    +0.000 OA
ATOM     11  H   UNL     1       2.646   2.386  17.092  0.00  0.00    +0.000 HD
ENDBRANCH   9  10
ENDBRANCH   8   9
ENDBRANCH   1   2
BRANCH   1  12
ATOM     12  S   UNL     1       6.616   5.055  18.360  0.00  0.00    +0.000 S 
ATOM     13  O   UNL     1       6.499   4.717  19.762  0.00  0.00    +0.000 OA
ATOM     14  O   UNL     1       7.451   4.265  17.476  0.00  0.00    +0.000 OA
BRANCH  12  15
ATOM     15  C   UNL     1       7.240   6.741  18.324  0.00  0.00    +0.000 A 
ATOM     16  C   UNL     1       8.349   7.083  19.106  0.00  0.00    +0.000 A 
ATOM     17  C   UNL     1       8.897   8.371  19.025  0.00  0.00    +0.000 A 
ATOM     18  C   UNL     1       8.360   9.299  18.135  0.00  0.00    +0.000 A 
ATOM     19 CL   UNL     1       9.068  10.861  18.001  0.00  0.00    +0.000 Cl
ATOM     20  C   UNL     1       7.274   8.955  17.332  0.00  0.00    +0.000 A 
ATOM     21  C   UNL     1       6.711   7.675  17.425  0.00  0.00    +0.000 A 
ENDBRANCH  12  15
ENDBRANCH   1  12
BRANCH   1  23
ATOM     22  C   UNL     1       5.011   6.124  15.324  0.00  0.00    +0.000 C 
ATOM     23  C   UNL     1       4.871   4.849  16.178  0.00  0.00    +0.000 C 
BRANCH  23  24
ATOM     24  C   UNL     1       5.885   3.793  15.669  0.00  0.00    +0.000 C 
BRANCH  24  25
ATOM     25  C   UNL     1       6.371   4.024  14.252  0.00  0.00    +0.000 A 
ATOM     26  C   UNL     1       7.405   4.934  13.990  0.00  0.00    +0.000 A 
ATOM     27  C   UNL     1       7.836   5.154  12.680  0.00  0.00    +0.000 A 
ATOM     28  C   UNL     1       7.242   4.468  11.623  0.00  0.00    +0.000 A 
ATOM     29  C   UNL     1       6.227   3.548  11.874  0.00  0.00    +0.000 A 
ATOM     30  C   UNL     1       5.800   3.320  13.183  0.00  0.00    +0.000 A 
ENDBRANCH  24  25
ENDBRANCH  23  24
ENDBRANCH   1  23
TORSDOF 8
ENDMDL
MODEL 6
REMARK VINA RESULT:      -6.4      8.077     10.422
REMARK  Name = 
REMARK  9 active torsions:
REMARK  status: ('A' for Active; 'I' for Inactive)
REMARK    1  A    between atoms: C_1  and  C_2
REMARK    2  A    between atoms: C_2  and  C_3
REMARK    3  A    between atoms: C_2  and  N_10
REMARK    4  A    between atoms: C_3  and  C_4
REMARK    5  A    between atoms: N_10  and  C_11
REMARK    6  A    between atoms: N_10  and  S_20
REMARK    7  A    between atoms: C_17  and  C_18
REMARK    8  A    between atoms: C_18  and  O_19
REMARK    9  A    between atoms: S_20  and  C_23
REMARK                            x       y       z     vdW  Elec       q    Type
REMARK                         _______ _______ _______ _____ _____    ______ ____
ROOT
ATOM      1  N   UNL     1      -0.076  12.242  20.342  0.00  0.00    +0.000 N 
ENDROOT
BRANCH   1   2
ATOM      2  C   UNL     1       0.419  10.883  20.380  0.00  0.00    +0.000 A 
ATOM      3  C   UNL     1       1.076  10.436  19.228  0.00  0.00    +0.000 A 
ATOM      4  C   UNL     1       1.563   9.135  19.146  0.00  0.00    +0.000 A 
ATOM      5 CL   UNL     1       2.295   8.593  17.686  0.00  0.00    +0.000 Cl
ATOM      6  C   UNL     1       1.461   8.277  20.231  0.00  0.00    +0.000 A 
ATOM      7  C   UNL     1       0.840   8.721  21.396  0.00  0.00    +0.000 A 
ATOM      8  C   UNL     1       0.270  10.011  21.484  0.00  0.00    +0.000 A 
BRANCH   8   9
ATOM      9  C   UNL     1      -0.414  10.410  22.769  0.00  0.00    +0.000 C 
BRANCH   9  10
ATOM     10  O   UNL     1      -0.103   9.492  23.818  0.00  0.00    +0.000 OA
ATOM     11  H   UNL     1       0.652   8.957  23.522  0.00  0.00    +0.000 HD
ENDBRANCH   9  10
ENDBRANCH   8   9
ENDBRANCH   1   2
BRANCH   1  12
ATOM     12  S   UNL     1       1.045  13.460  20.806  0.00  0.00    +0.000 S 
ATOM     13  O   UNL     1       2.231  12.849  21.367  0.00  0.00    +0.000 OA
ATOM     14  O   UNL     1       1.148  14.401  19.708  0.00  0.00    +0.000 OA
BRANCH  12  15
ATOM     15  C   UNL     1       0.252  14.314  22.175  0.00  0.00    +0.000 A 
ATOM     16  C   UNL     1       0.609  15.636  22.463  0.00  0.00    +0.000 A 
ATOM     17  C   UNL     1      -0.059  16.342  23.473  0.00  0.00    +0.000 A 
ATOM     18  C   UNL     1      -1.108  15.739  24.164  0.00  0.00    +0.000 A 
ATOM     19 CL   UNL     1      -1.960  16.626  25.367  0.00  0.00    +0.000 Cl
ATOM     20  C   UNL     1      -1.488  14.432  23.861  0.00  0.00    +0.000 A 
ATOM     21  C   UNL     1      -0.809  13.717  22.866  0.00  0.00    +0.000 A 
ENDBRANCH  12  15
ENDBRANCH   1  12
BRANCH   1  23
ATOM     22  C   UNL     1      -0.853  12.919  18.041  0.00  0.00    +0.000 C 
ATOM     23  C   UNL     1      -1.273  12.599  19.490  0.00  0.00    +0.000 C 
BRANCH  23  24
ATOM     24  C   UNL     1      -2.330  11.464  19.463  0.00  0.00    +0.000 C 
BRANCH  24  25
ATOM     25  C   UNL     1      -2.764  11.046  18.073  0.00  0.00    +0.000 A 
ATOM     26  C   UNL     1      -2.030  10.097  17.349  0.00  0.00    +0.000 A 
ATOM     27  C   UNL     1      -2.427   9.729  16.061  0.00  0.00    +0.000 A 
ATOM     28  C   UNL     1      -3.560  10.301  15.488  0.00  0.00    +0.000 A 
ATOM     29  C   UNL     1      -4.309  11.232  16.206  0.00  0.00    +0.000 A 
ATOM     30  C   UNL     1      -3.918  11.595  17.495  0.00  0.00    +0.000 A 
ENDBRANCH  24  25
ENDBRANCH  23  24
ENDBRANCH   1  23
TORSDOF 8
ENDMDL
MODEL 7
REMARK VINA RESULT:      -6.3      6.071      8.793
REMARK  Name = 
REMARK  9 active torsions:
REMARK  status: ('A' for Active; 'I' for Inactive)
REMARK    1  A    between atoms: C_1  and  C_2
REMARK    2  A    between atoms: C_2  and  C_3
REMARK    3  A    between atoms: C_2  and  N_10
REMARK    4  A    between atoms: C_3  and  C_4
REMARK    5  A    between atoms: N_10  and  C_11
REMARK    6  A    between atoms: N_10  and  S_20
REMARK    7  A    between atoms: C_17  and  C_18
REMARK    8  A    between atoms: C_18  and  O_19
REMARK    9  A    between atoms: S_20  and  C_23
REMARK                            x       y       z     vdW  Elec       q    Type
REMARK                         _______ _______ _______ _____ _____    ______ ____
ROOT
ATOM      1  N   UNL     1       0.874   9.531  19.761  0.00  0.00    +0.000 N 
ENDROOT
BRANCH   1   2
ATOM      2  C   UNL     1       0.031  10.496  19.089  0.00  0.00    +0.000 A 
ATOM      3  C   UNL     1      -1.303  10.118  18.897  0.00  0.00    +0.000 A 
ATOM      4  C   UNL     1      -2.192  10.957  18.233  0.00  0.00    +0.000 A 
ATOM      5 CL   UNL     1      -3.803  10.428  17.943  0.00  0.00    +0.000 Cl
ATOM      6  C   UNL     1      -1.787  12.213  17.805  0.00  0.00    +0.000 A 
ATOM      7  C   UNL     1      -0.470  12.615  18.022  0.00  0.00    +0.000 A 
ATOM      8  C   UNL     1       0.475  11.756  18.626  0.00  0.00    +0.000 A 
BRANCH   8   9
ATOM      9  C   UNL     1       1.890  12.252  18.799  0.00  0.00    +0.000 C 
BRANCH   9  10
ATOM     10  O   UNL     1       2.503  12.498  17.532  0.00  0.00    +0.000 OA
ATOM     11  H   UNL     1       1.794  12.535  16.869  0.00  0.00    +0.000 HD
ENDBRANCH   9  10
ENDBRANCH   8   9
ENDBRANCH   1   2
BRANCH   1  12
ATOM     12  S   UNL     1       0.663   9.411  21.463  0.00  0.00    +0.000 S 
ATOM     13  O   UNL     1      -0.246   8.328  21.772  0.00  0.00    +0.000 OA
ATOM     14  O   UNL     1       1.979   9.466  22.071  0.00  0.00    +0.000 OA
BRANCH  12  15
ATOM     15  C   UNL     1      -0.207  10.914  21.925  0.00  0.00    +0.000 A 
ATOM     16  C   UNL     1      -1.418  10.825  22.620  0.00  0.00    +0.000 A 
ATOM     17  C   UNL     1      -2.065  11.988  23.060  0.00  0.00    +0.000 A 
ATOM     18  C   UNL     1      -1.480  13.233  22.838  0.00  0.00    +0.000 A 
ATOM     19 CL   UNL     1      -2.252  14.655  23.425  0.00  0.00    +0.000 Cl
ATOM     20  C   UNL     1      -0.260  13.327  22.172  0.00  0.00    +0.000 A 
ATOM     21  C   UNL     1       0.380  12.168  21.714  0.00  0.00    +0.000 A 
ENDBRANCH  12  15
ENDBRANCH   1  12
BRANCH   1  23
ATOM     22  C   UNL     1       2.472   8.904  17.916  0.00  0.00    +0.000 C 
ATOM     23  C   UNL     1       1.495   8.388  18.992  0.00  0.00    +0.000 C 
BRANCH  23  24
ATOM     24  C   UNL     1       2.251   7.402  19.919  0.00  0.00    +0.000 C 
BRANCH  24  25
ATOM     25  C   UNL     1       1.962   5.940  19.649  0.00  0.00    +0.000 A 
ATOM     26  C   UNL     1       2.136   5.402  18.366  0.00  0.00    +0.000 A 
ATOM     27  C   UNL     1       1.852   4.057  18.120  0.00  0.00    +0.000 A 
ATOM     28  C   UNL     1       1.395   3.238  19.150  0.00  0.00    +0.000 A 
ATOM     29  C   UNL     1       1.236   3.758  20.433  0.00  0.00    +0.000 A 
ATOM     30  C   UNL     1       1.528   5.099  20.683  0.00  0.00    +0.000 A 
ENDBRANCH  24  25
ENDBRANCH  23  24
ENDBRANCH   1  23
TORSDOF 8
ENDMDL
MODEL 8
REMARK VINA RESULT:      -6.3      8.142     10.090
REMARK  Name = 
REMARK  9 active torsions:
REMARK  status: ('A' for Active; 'I' for Inactive)
REMARK    1  A    between atoms: C_1  and  C_2
REMARK    2  A    between atoms: C_2  and  C_3
REMARK    3  A    between atoms: C_2  and  N_10
REMARK    4  A    between atoms: C_3  and  C_4
REMARK    5  A    between atoms: N_10  and  C_11
REMARK    6  A    between atoms: N_10  and  S_20
REMARK    7  A    between atoms: C_17  and  C_18
REMARK    8  A    between atoms: C_18  and  O_19
REMARK    9  A    between atoms: S_20  and  C_23
REMARK                            x       y       z     vdW  Elec       q    Type
REMARK                         _______ _______ _______ _____ _____    ______ ____
ROOT
ATOM      1  N   UNL     1       0.272  11.766  19.746  0.00  0.00    +0.000 N 
ENDROOT
BRANCH   1   2
ATOM      2  C   UNL     1      -0.425  11.539  20.994  0.00  0.00    +0.000 A 
ATOM      3  C   UNL     1      -1.477  12.417  21.279  0.00  0.00    +0.000 A 
ATOM      4  C   UNL     1      -2.193  12.308  22.467  0.00  0.00    +0.000 A 
ATOM      5 CL   UNL     1      -3.427  13.452  22.822  0.00  0.00    +0.000 Cl
ATOM      6  C   UNL     1      -1.916  11.286  23.363  0.00  0.00    +0.000 A 
ATOM      7  C   UNL     1      -0.894  10.383  23.075  0.00  0.00    +0.000 A 
ATOM      8  C   UNL     1      -0.101  10.513  21.912  0.00  0.00    +0.000 A 
BRANCH   8   9
ATOM      9  C   UNL     1       1.008   9.515  21.684  0.00  0.00    +0.000 C 
BRANCH   9  10
ATOM     10  O   UNL     1       2.014   9.631  22.691  0.00  0.00    +0.000 OA
ATOM     11  H   UNL     1       1.566   9.614  23.553  0.00  0.00    +0.000 HD
ENDBRANCH   9  10
ENDBRANCH   8   9
ENDBRANCH   1   2
BRANCH   1  12
ATOM     12  S   UNL     1       1.689  12.734  19.846  0.00  0.00    +0.000 S 
ATOM     13  O   UNL     1       2.251  12.647  21.177  0.00  0.00    +0.000 OA
ATOM     14  O   UNL     1       2.501  12.441  18.681  0.00  0.00    +0.000 OA
BRANCH  12  15
ATOM     15  C   UNL     1       1.102  14.425  19.682  0.00  0.00    +0.000 A 
ATOM     16  C   UNL     1       0.110  14.723  18.741  0.00  0.00    +0.000 A 
ATOM     17  C   UNL     1      -0.417  16.019  18.660  0.00  0.00    +0.000 A 
ATOM     18  C   UNL     1       0.021  17.003  19.545  0.00  0.00    +0.000 A 
ATOM     19 CL   UNL     1      -0.665  18.579  19.476  0.00  0.00    +0.000 Cl
ATOM     20  C   UNL     1       0.988  16.705  20.504  0.00  0.00    +0.000 A 
ATOM     21  C   UNL     1       1.530  15.415  20.575  0.00  0.00    +0.000 A 
ENDBRANCH  12  15
ENDBRANCH   1  12
BRANCH   1  23
ATOM     22  C   UNL     1       1.265   9.860  18.429  0.00  0.00    +0.000 C 
ATOM     23  C   UNL     1       0.075  10.829  18.576  0.00  0.00    +0.000 C 
BRANCH  23  24
ATOM     24  C   UNL     1      -1.229  10.000  18.705  0.00  0.00    +0.000 C 
BRANCH  24  25
ATOM     25  C   UNL     1      -2.328  10.407  17.744  0.00  0.00    +0.000 A 
ATOM     26  C   UNL     1      -3.401  11.198  18.178  0.00  0.00    +0.000 A 
ATOM     27  C   UNL     1      -4.419  11.555  17.291  0.00  0.00    +0.000 A 
ATOM     28  C   UNL     1      -4.373  11.131  15.965  0.00  0.00    +0.000 A 
ATOM     29  C   UNL     1      -3.302  10.360  15.518  0.00  0.00    +0.000 A 
ATOM     30  C   UNL     1      -2.279  10.009  16.400  0.00  0.00    +0.000 A 
ENDBRANCH  24  25
ENDBRANCH  23  24
ENDBRANCH   1  23
TORSDOF 8
ENDMDL
MODEL 9
REMARK VINA RESULT:      -6.3      8.038     10.230
REMARK  Name = 
REMARK  9 active torsions:
REMARK  status: ('A' for Active; 'I' for Inactive)
REMARK    1  A    between atoms: C_1  and  C_2
REMARK    2  A    between atoms: C_2  and  C_3
REMARK    3  A    between atoms: C_2  and  N_10
REMARK    4  A    between atoms: C_3  and  C_4
REMARK    5  A    between atoms: N_10  and  C_11
REMARK    6  A    between atoms: N_10  and  S_20
REMARK    7  A    between atoms: C_17  and  C_18
REMARK    8  A    between atoms: C_18  and  O_19
REMARK    9  A    between atoms: S_20  and  C_23
REMARK                            x       y       z     vdW  Elec       q    Type
REMARK                         _______ _______ _______ _____ _____    ______ ____
ROOT
ATOM      1  N   UNL     1       0.177  12.090  20.150  0.00  0.00    +0.000 N 
ENDROOT
BRANCH   1   2
ATOM      2  C   UNL     1       0.622  10.716  20.235  0.00  0.00    +0.000 A 
ATOM      3  C   UNL     1       1.280  10.212  19.107  0.00  0.00    +0.000 A 
ATOM      4  C   UNL     1       1.721   8.893  19.070  0.00  0.00    +0.000 A 
ATOM      5 CL   UNL     1       2.454   8.282  17.638  0.00  0.00    +0.000 Cl
ATOM      6  C   UNL     1       1.572   8.071  20.178  0.00  0.00    +0.000 A 
ATOM      7  C   UNL     1       0.950   8.571  21.320  0.00  0.00    +0.000 A 
ATOM      8  C   UNL     1       0.425   9.883  21.361  0.00  0.00    +0.000 A 
BRANCH   8   9
ATOM      9  C   UNL     1      -0.262  10.343  22.623  0.00  0.00    +0.000 C 
BRANCH   9  10
ATOM     10  O   UNL     1       0.302   9.708  23.772  0.00  0.00    +0.000 OA
ATOM     11  H   UNL     1       1.230   9.507  23.567  0.00  0.00    +0.000 HD
ENDBRANCH   9  10
ENDBRANCH   8   9
ENDBRANCH   1   2
BRANCH   1  12
ATOM     12  S   UNL     1       1.397  13.285  20.349  0.00  0.00    +0.000 S 
ATOM     13  O   UNL     1       2.340  12.863  21.362  0.00  0.00    +0.000 OA
ATOM     14  O   UNL     1       1.855  13.666  19.027  0.00  0.00    +0.000 OA
BRANCH  12  15
ATOM     15  C   UNL     1       0.541  14.701  21.050  0.00  0.00    +0.000 A 
ATOM     16  C   UNL     1       0.335  15.842  20.266  0.00  0.00    +0.000 A 
ATOM     17  C   UNL     1      -0.403  16.920  20.771  0.00  0.00    +0.000 A 
ATOM     18  C   UNL     1      -0.967  16.840  22.044  0.00  0.00    +0.000 A 
ATOM     19 CL   UNL     1      -1.915  18.145  22.641  0.00  0.00    +0.000 Cl
ATOM     20  C   UNL     1      -0.790  15.695  22.819  0.00  0.00    +0.000 A 
ATOM     21  C   UNL     1      -0.036  14.623  22.324  0.00  0.00    +0.000 A 
ENDBRANCH  12  15
ENDBRANCH   1  12
BRANCH   1  23
ATOM     22  C   UNL     1      -0.854  12.915  18.003  0.00  0.00    +0.000 C 
ATOM     23  C   UNL     1      -1.115  12.435  19.445  0.00  0.00    +0.000 C 
BRANCH  23  24
ATOM     24  C   UNL     1      -2.095  11.235  19.401  0.00  0.00    +0.000 C 
BRANCH  24  25
ATOM     25  C   UNL     1      -2.660  10.938  18.027  0.00  0.00    +0.000 A 
ATOM     26  C   UNL     1      -2.014  10.039  17.167  0.00  0.00    +0.000 A 
ATOM     27  C   UNL     1      -2.531   9.783  15.895  0.00  0.00    +0.000 A 
ATOM     28  C   UNL     1      -3.697  10.417  15.473  0.00  0.00    +0.000 A 
ATOM     29  C   UNL     1      -4.358  11.298  16.326  0.00  0.00    +0.000 A 
ATOM     30  C   UNL     1      -3.848  11.550  17.600  0.00  0.00    +0.000 A 
ENDBRANCH  24  25
ENDBRANCH  23  24
ENDBRANCH   1  23
TORSDOF 8
ENDMDL
