MODEL 1
REMARK VINA RESULT:      -9.1      0.000      0.000
REMARK  Name = 
REMARK  6 active torsions:
REMARK  status: ('A' for Active; 'I' for Inactive)
REMARK    1  A    between atoms: C_1  and  N_2
REMARK    2  A    between atoms: C_4  and  C_5
REMARK    3  A    between atoms: C_5  and  C_7
REMARK    4  A    between atoms: C_11  and  N_12
REMARK    5  A    between atoms: C_13  and  C_15
REMARK    6  A    between atoms: C_15  and  C_16
REMARK                            x       y       z     vdW  Elec       q    Type
REMARK                         _______ _______ _______ _____ _____    ______ ____
ROOT
ATOM      1  C   UNL     1       3.422   3.852  19.689  0.00  0.00    +0.000 A 
ATOM      2  C   UNL     1       2.407   2.910  19.562  0.00  0.00    +0.000 A 
ATOM      3  N   UNL     1       1.107   3.174  19.806  0.00  0.00    +0.000 NA
ATOM      4  C   UNL     1       0.812   4.418  20.258  0.00  0.00    +0.000 A 
ATOM      5  C   UNL     1       1.755   5.423  20.478  0.00  0.00    +0.000 A 
ATOM      6  C   UNL     1       3.085   5.129  20.162  0.00  0.00    +0.000 A 
ENDROOT
BRANCH   5   7
ATOM      7  N   UNL     1       1.439   6.703  20.992  0.00  0.00    +0.000 N 
ATOM      8  C   UNL     1       1.654   7.901  20.325  0.00  0.00    +0.000 C 
ATOM      9  O   UNL     1       2.071   8.009  19.174  0.00  0.00    +0.000 OA
ATOM     10  H   UNL     1       0.903   6.735  21.852  0.00  0.00    +0.000 HD
BRANCH   8  11
ATOM     11  C   UNL     1       1.305   9.139  21.130  0.00  0.00    +0.000 C 
BRANCH  11  12
ATOM     12  C   UNL     1       0.626  10.226  20.329  0.00  0.00    +0.000 A 
ATOM     13  C   UNL     1       1.248  11.474  20.168  0.00  0.00    +0.000 A 
ATOM     14  C   UNL     1       0.667  12.451  19.360  0.00  0.00    +0.000 A 
ATOM     15  F   UNL     1       1.291  13.627  19.214  0.00  0.00    +0.000 F 
ATOM     16  C   UNL     1      -0.530  12.209  18.703  0.00  0.00    +0.000 A 
ATOM     17  F   UNL     1      -1.069  13.148  17.913  0.00  0.00    +0.000 F 
ATOM     18  C   UNL     1      -1.157  10.981  18.860  0.00  0.00    +0.000 A 
ATOM     19  F   UNL     1      -2.310  10.729  18.226  0.00  0.00    +0.000 F 
ATOM     20  C   UNL     1      -0.588   9.990  19.663  0.00  0.00    +0.000 A 
ENDBRANCH  11  12
ENDBRANCH   8  11
ENDBRANCH   5   7
BRANCH   1  21
ATOM     21  C   UNL     1       4.833   3.492  19.411  0.00  0.00    +0.000 C 
ATOM     22  O   UNL     1       5.249   2.410  19.818  0.00  0.00    +0.000 OA
BRANCH  21  26
ATOM     23  C   UNL     1       7.958   7.221  18.242  0.00  0.00    +0.000 C 
ATOM     24  N   UNL     1       7.089   6.073  18.127  0.00  0.00    +0.000 N 
ATOM     25  C   UNL     1       6.449   5.449  19.168  0.00  0.00    +0.000 A 
ATOM     26  C   UNL     1       5.683   4.410  18.655  0.00  0.00    +0.000 A 
ATOM     27  C   UNL     1       5.919   4.397  17.243  0.00  0.00    +0.000 A 
ATOM     28  C   UNL     1       5.490   3.639  16.154  0.00  0.00    +0.000 A 
ATOM     29  N   UNL     1       5.927   3.945  14.909  0.00  0.00    +0.000 NA
ATOM     30  C   UNL     1       6.775   4.984  14.776  0.00  0.00    +0.000 A 
ATOM     31  N   UNL     1       7.251   5.790  15.738  0.00  0.00    +0.000 NA
ATOM     32  C   UNL     1       6.786   5.443  16.951  0.00  0.00    +0.000 A 
ENDBRANCH  21  26
ENDBRANCH   1  21
TORSDOF 5
ENDMDL
MODEL 2
REMARK VINA RESULT:      -9.0      0.204      1.475
REMARK  Name = 
REMARK  6 active torsions:
REMARK  status: ('A' for Active; 'I' for Inactive)
REMARK    1  A    between atoms: C_1  and  N_2
REMARK    2  A    between atoms: C_4  and  C_5
REMARK    3  A    between atoms: C_5  and  C_7
REMARK    4  A    between atoms: C_11  and  N_12
REMARK    5  A    between atoms: C_13  and  C_15
REMARK    6  A    between atoms: C_15  and  C_16
REMARK                            x       y       z     vdW  Elec       q    Type
REMARK                         _______ _______ _______ _____ _____    ______ ____
ROOT
ATOM      1  C   UNL     1       3.412   3.821  19.748  0.00  0.00    +0.000 A 
ATOM      2  C   UNL     1       2.404   2.864  19.715  0.00  0.00    +0.000 A 
ATOM      3  N   UNL     1       1.110   3.130  19.986  0.00  0.00    +0.000 NA
ATOM      4  C   UNL     1       0.816   4.398  20.369  0.00  0.00    +0.000 A 
ATOM      5  C   UNL     1       1.755   5.423  20.493  0.00  0.00    +0.000 A 
ATOM      6  C   UNL     1       3.077   5.123  20.150  0.00  0.00    +0.000 A 
ENDROOT
BRANCH   5   7
ATOM      7  N   UNL     1       1.441   6.731  20.935  0.00  0.00    +0.000 N 
ATOM      8  C   UNL     1       1.708   7.894  20.226  0.00  0.00    +0.000 C 
ATOM      9  O   UNL     1       2.176   7.943  19.091  0.00  0.00    +0.000 OA
ATOM     10  H   UNL     1       0.870   6.810  21.769  0.00  0.00    +0.000 HD
BRANCH   8  11
ATOM     11  C   UNL     1       1.349   9.172  20.961  0.00  0.00    +0.000 C 
BRANCH  11  12
ATOM     12  C   UNL     1       0.718  10.230  20.086  0.00  0.00    +0.000 A 
ATOM     13  C   UNL     1      -0.621  10.104  19.684  0.00  0.00    +0.000 A 
ATOM     14  C   UNL     1      -1.234  11.120  18.949  0.00  0.00    +0.000 A 
ATOM     15  F   UNL     1      -2.517  10.978  18.591  0.00  0.00    +0.000 F 
ATOM     16  C   UNL     1      -0.535  12.267  18.604  0.00  0.00    +0.000 A 
ATOM     17  F   UNL     1      -1.140  13.245  17.914  0.00  0.00    +0.000 F 
ATOM     18  C   UNL     1       0.790  12.399  18.992  0.00  0.00    +0.000 A 
ATOM     19  F   UNL     1       1.476  13.505  18.672  0.00  0.00    +0.000 F 
ATOM     20  C   UNL     1       1.419  11.394  19.730  0.00  0.00    +0.000 A 
ENDBRANCH  11  12
ENDBRANCH   8  11
ENDBRANCH   5   7
BRANCH   1  21
ATOM     21  C   UNL     1       4.817   3.457  19.444  0.00  0.00    +0.000 C 
ATOM     22  O   UNL     1       5.232   2.368  19.831  0.00  0.00    +0.000 OA
BRANCH  21  26
ATOM     23  C   UNL     1       7.945   7.186  18.283  0.00  0.00    +0.000 C 
ATOM     24  N   UNL     1       7.069   6.043  18.165  0.00  0.00    +0.000 N 
ATOM     25  C   UNL     1       6.440   5.409  19.206  0.00  0.00    +0.000 A 
ATOM     26  C   UNL     1       5.662   4.380  18.690  0.00  0.00    +0.000 A 
ATOM     27  C   UNL     1       5.879   4.385  17.274  0.00  0.00    +0.000 A 
ATOM     28  C   UNL     1       5.432   3.644  16.182  0.00  0.00    +0.000 A 
ATOM     29  N   UNL     1       5.853   3.964  14.935  0.00  0.00    +0.000 NA
ATOM     30  C   UNL     1       6.704   5.000  14.804  0.00  0.00    +0.000 A 
ATOM     31  N   UNL     1       7.198   5.791  15.771  0.00  0.00    +0.000 NA
ATOM     32  C   UNL     1       6.747   5.431  16.985  0.00  0.00    +0.000 A 
ENDBRANCH  21  26
ENDBRANCH   1  21
TORSDOF 5
ENDMDL
MODEL 3
REMARK VINA RESULT:      -9.0      1.810      2.786
REMARK  Name = 
REMARK  6 active torsions:
REMARK  status: ('A' for Active; 'I' for Inactive)
REMARK    1  A    between atoms: C_1  and  N_2
REMARK    2  A    between atoms: C_4  and  C_5
REMARK    3  A    between atoms: C_5  and  C_7
REMARK    4  A    between atoms: C_11  and  N_12
REMARK    5  A    between atoms: C_13  and  C_15
REMARK    6  A    between atoms: C_15  and  C_16
REMARK                            x       y       z     vdW  Elec       q    Type
REMARK                         _______ _______ _______ _____ _____    ______ ____
ROOT
ATOM      1  C   UNL     1       2.522   4.590  18.736  0.00  0.00    +0.000 A 
ATOM      2  C   UNL     1       2.241   3.846  19.877  0.00  0.00    +0.000 A 
ATOM      3  N   UNL     1       1.742   4.377  21.012  0.00  0.00    +0.000 NA
ATOM      4  C   UNL     1       1.574   5.722  21.033  0.00  0.00    +0.000 A 
ATOM      5  C   UNL     1       1.877   6.573  19.969  0.00  0.00    +0.000 A 
ATOM      6  C   UNL     1       2.340   5.980  18.790  0.00  0.00    +0.000 A 
ENDROOT
BRANCH   5   7
ATOM      7  N   UNL     1       1.738   7.981  20.019  0.00  0.00    +0.000 N 
ATOM      8  C   UNL     1       0.774   8.657  20.756  0.00  0.00    +0.000 C 
ATOM      9  O   UNL     1      -0.032   8.134  21.521  0.00  0.00    +0.000 OA
ATOM     10  H   UNL     1       2.471   8.532  19.588  0.00  0.00    +0.000 HD
BRANCH   8  11
ATOM     11  C   UNL     1       0.788  10.163  20.571  0.00  0.00    +0.000 C 
BRANCH  11  12
ATOM     12  C   UNL     1      -0.338  10.690  19.712  0.00  0.00    +0.000 A 
ATOM     13  C   UNL     1      -0.569  10.141  18.441  0.00  0.00    +0.000 A 
ATOM     14  C   UNL     1      -1.658  10.564  17.679  0.00  0.00    +0.000 A 
ATOM     15  F   UNL     1      -1.862  10.012  16.475  0.00  0.00    +0.000 F 
ATOM     16  C   UNL     1      -2.530  11.529  18.161  0.00  0.00    +0.000 A 
ATOM     17  F   UNL     1      -3.585  11.914  17.428  0.00  0.00    +0.000 F 
ATOM     18  C   UNL     1      -2.307  12.083  19.414  0.00  0.00    +0.000 A 
ATOM     19  F   UNL     1      -3.144  13.011  19.896  0.00  0.00    +0.000 F 
ATOM     20  C   UNL     1      -1.223  11.670  20.191  0.00  0.00    +0.000 A 
ENDBRANCH  11  12
ENDBRANCH   8  11
ENDBRANCH   5   7
BRANCH   1  21
ATOM     21  C   UNL     1       3.076   3.942  17.523  0.00  0.00    +0.000 C 
ATOM     22  O   UNL     1       2.371   3.139  16.918  0.00  0.00    +0.000 OA
BRANCH  21  26
ATOM     23  C   UNL     1       7.070   4.709  14.607  0.00  0.00    +0.000 C 
ATOM     24  N   UNL     1       6.214   4.632  15.768  0.00  0.00    +0.000 N 
ATOM     25  C   UNL     1       4.892   4.262  15.762  0.00  0.00    +0.000 A 
ATOM     26  C   UNL     1       4.425   4.278  17.070  0.00  0.00    +0.000 A 
ATOM     27  C   UNL     1       5.518   4.721  17.882  0.00  0.00    +0.000 A 
ATOM     28  C   UNL     1       5.737   4.963  19.237  0.00  0.00    +0.000 A 
ATOM     29  N   UNL     1       6.957   5.372  19.659  0.00  0.00    +0.000 NA
ATOM     30  C   UNL     1       7.922   5.534  18.732  0.00  0.00    +0.000 A 
ATOM     31  N   UNL     1       7.839   5.328  17.408  0.00  0.00    +0.000 NA
ATOM     32  C   UNL     1       6.609   4.923  17.045  0.00  0.00    +0.000 A 
ENDBRANCH  21  26
ENDBRANCH   1  21
TORSDOF 5
ENDMDL
MODEL 4
REMARK VINA RESULT:      -8.9      1.218      2.601
REMARK  Name = 
REMARK  6 active torsions:
REMARK  status: ('A' for Active; 'I' for Inactive)
REMARK    1  A    between atoms: C_1  and  N_2
REMARK    2  A    between atoms: C_4  and  C_5
REMARK    3  A    between atoms: C_5  and  C_7
REMARK    4  A    between atoms: C_11  and  N_12
REMARK    5  A    between atoms: C_13  and  C_15
REMARK    6  A    between atoms: C_15  and  C_16
REMARK                            x       y       z     vdW  Elec       q    Type
REMARK                         _______ _______ _______ _____ _____    ______ ____
ROOT
ATOM      1  C   UNL     1       2.723   3.833  18.884  0.00  0.00    +0.000 A 
ATOM      2  C   UNL     1       2.905   2.831  19.831  0.00  0.00    +0.000 A 
ATOM      3  N   UNL     1       2.550   2.953  21.126  0.00  0.00    +0.000 NA
ATOM      4  C   UNL     1       2.048   4.153  21.510  0.00  0.00    +0.000 A 
ATOM      5  C   UNL     1       1.877   5.246  20.659  0.00  0.00    +0.000 A 
ATOM      6  C   UNL     1       2.204   5.064  19.313  0.00  0.00    +0.000 A 
ENDROOT
BRANCH   5   7
ATOM      7  N   UNL     1       1.392   6.508  21.082  0.00  0.00    +0.000 N 
ATOM      8  C   UNL     1       1.666   7.714  20.454  0.00  0.00    +0.000 C 
ATOM      9  O   UNL     1       2.295   7.844  19.406  0.00  0.00    +0.000 OA
ATOM     10  H   UNL     1       0.697   6.510  21.820  0.00  0.00    +0.000 HD
BRANCH   8  11
ATOM     11  C   UNL     1       1.094   8.931  21.157  0.00  0.00    +0.000 C 
BRANCH  11  12
ATOM     12  C   UNL     1       0.559   9.991  20.222  0.00  0.00    +0.000 A 
ATOM     13  C   UNL     1      -0.602   9.746  19.472  0.00  0.00    +0.000 A 
ATOM     14  C   UNL     1      -1.149  10.751  18.673  0.00  0.00    +0.000 A 
ATOM     15  F   UNL     1      -2.266  10.493  17.980  0.00  0.00    +0.000 F 
ATOM     16  C   UNL     1      -0.559  12.004  18.605  0.00  0.00    +0.000 A 
ATOM     17  F   UNL     1      -1.104  12.967  17.850  0.00  0.00    +0.000 F 
ATOM     18  C   UNL     1       0.593  12.254  19.338  0.00  0.00    +0.000 A 
ATOM     19  F   UNL     1       1.171  13.462  19.288  0.00  0.00    +0.000 F 
ATOM     20  C   UNL     1       1.153  11.262  20.144  0.00  0.00    +0.000 A 
ENDBRANCH  11  12
ENDBRANCH   8  11
ENDBRANCH   5   7
BRANCH   1  21
ATOM     21  C   UNL     1       3.143   3.633  17.476  0.00  0.00    +0.000 C 
ATOM     22  O   UNL     1       2.360   3.081  16.707  0.00  0.00    +0.000 OA
BRANCH  21  26
ATOM     23  C   UNL     1       7.053   4.824  14.589  0.00  0.00    +0.000 C 
ATOM     24  N   UNL     1       6.205   4.648  15.744  0.00  0.00    +0.000 N 
ATOM     25  C   UNL     1       4.925   4.152  15.727  0.00  0.00    +0.000 A 
ATOM     26  C   UNL     1       4.454   4.104  17.033  0.00  0.00    +0.000 A 
ATOM     27  C   UNL     1       5.497   4.640  17.856  0.00  0.00    +0.000 A 
ATOM     28  C   UNL     1       5.687   4.882  19.215  0.00  0.00    +0.000 A 
ATOM     29  N   UNL     1       6.861   5.402  19.648  0.00  0.00    +0.000 NA
ATOM     30  C   UNL     1       7.808   5.669  18.728  0.00  0.00    +0.000 A 
ATOM     31  N   UNL     1       7.750   5.474  17.401  0.00  0.00    +0.000 NA
ATOM     32  C   UNL     1       6.566   4.958  17.027  0.00  0.00    +0.000 A 
ENDBRANCH  21  26
ENDBRANCH   1  21
TORSDOF 5
ENDMDL
MODEL 5
REMARK VINA RESULT:      -8.8      1.403      2.036
REMARK  Name = 
REMARK  6 active torsions:
REMARK  status: ('A' for Active; 'I' for Inactive)
REMARK    1  A    between atoms: C_1  and  N_2
REMARK    2  A    between atoms: C_4  and  C_5
REMARK    3  A    between atoms: C_5  and  C_7
REMARK    4  A    between atoms: C_11  and  N_12
REMARK    5  A    between atoms: C_13  and  C_15
REMARK    6  A    between atoms: C_15  and  C_16
REMARK                            x       y       z     vdW  Elec       q    Type
REMARK                         _______ _______ _______ _____ _____    ______ ____
ROOT
ATOM      1  C   UNL     1       3.515   4.662  19.685  0.00  0.00    +0.000 A 
ATOM      2  C   UNL     1       2.606   3.897  20.408  0.00  0.00    +0.000 A 
ATOM      3  N   UNL     1       1.437   4.373  20.881  0.00  0.00    +0.000 NA
ATOM      4  C   UNL     1       1.189   5.691  20.679  0.00  0.00    +0.000 A 
ATOM      5  C   UNL     1       2.054   6.565  20.019  0.00  0.00    +0.000 A 
ATOM      6  C   UNL     1       3.231   6.023  19.495  0.00  0.00    +0.000 A 
ENDROOT
BRANCH   5   7
ATOM      7  N   UNL     1       1.802   7.949  19.853  0.00  0.00    +0.000 N 
ATOM      8  C   UNL     1       1.820   8.618  18.637  0.00  0.00    +0.000 C 
ATOM      9  O   UNL     1       1.975   8.091  17.538  0.00  0.00    +0.000 OA
ATOM     10  H   UNL     1       1.464   8.456  20.663  0.00  0.00    +0.000 HD
BRANCH   8  11
ATOM     11  C   UNL     1       1.600  10.115  18.743  0.00  0.00    +0.000 C 
BRANCH  11  12
ATOM     12  C   UNL     1       0.155  10.539  18.616  0.00  0.00    +0.000 A 
ATOM     13  C   UNL     1      -0.714   9.831  17.771  0.00  0.00    +0.000 A 
ATOM     14  C   UNL     1      -2.067  10.163  17.716  0.00  0.00    +0.000 A 
ATOM     15  F   UNL     1      -2.876   9.461  16.911  0.00  0.00    +0.000 F 
ATOM     16  C   UNL     1      -2.578  11.194  18.491  0.00  0.00    +0.000 A 
ATOM     17  F   UNL     1      -3.884  11.491  18.444  0.00  0.00    +0.000 F 
ATOM     18  C   UNL     1      -1.726  11.904  19.325  0.00  0.00    +0.000 A 
ATOM     19  F   UNL     1      -2.205  12.897  20.085  0.00  0.00    +0.000 F 
ATOM     20  C   UNL     1      -0.369  11.584  19.395  0.00  0.00    +0.000 A 
ENDBRANCH  11  12
ENDBRANCH   8  11
ENDBRANCH   5   7
BRANCH   1  21
ATOM     21  C   UNL     1       4.787   4.075  19.199  0.00  0.00    +0.000 C 
ATOM     22  O   UNL     1       5.056   2.921  19.521  0.00  0.00    +0.000 OA
BRANCH  21  26
ATOM     23  C   UNL     1       7.953   7.601  17.593  0.00  0.00    +0.000 C 
ATOM     24  N   UNL     1       7.100   6.437  17.626  0.00  0.00    +0.000 N 
ATOM     25  C   UNL     1       6.403   5.988  18.720  0.00  0.00    +0.000 A 
ATOM     26  C   UNL     1       5.675   4.865  18.348  0.00  0.00    +0.000 A 
ATOM     27  C   UNL     1       5.993   4.617  16.974  0.00  0.00    +0.000 A 
ATOM     28  C   UNL     1       5.634   3.679  16.008  0.00  0.00    +0.000 A 
ATOM     29  N   UNL     1       6.141   3.776  14.756  0.00  0.00    +0.000 NA
ATOM     30  C   UNL     1       6.989   4.790  14.497  0.00  0.00    +0.000 A 
ATOM     31  N   UNL     1       7.404   5.755  15.333  0.00  0.00    +0.000 NA
ATOM     32  C   UNL     1       6.870   5.612  16.559  0.00  0.00    +0.000 A 
ENDBRANCH  21  26
ENDBRANCH   1  21
TORSDOF 5
ENDMDL
MODEL 6
REMARK VINA RESULT:      -8.8      1.169      1.235
REMARK  Name = 
REMARK  6 active torsions:
REMARK  status: ('A' for Active; 'I' for Inactive)
REMARK    1  A    between atoms: C_1  and  N_2
REMARK    2  A    between atoms: C_4  and  C_5
REMARK    3  A    between atoms: C_5  and  C_7
REMARK    4  A    between atoms: C_11  and  N_12
REMARK    5  A    between atoms: C_13  and  C_15
REMARK    6  A    between atoms: C_15  and  C_16
REMARK                            x       y       z     vdW  Elec       q    Type
REMARK                         _______ _______ _______ _____ _____    ______ ____
ROOT
ATOM      1  C   UNL     1       3.411   3.903  19.592  0.00  0.00    +0.000 A 
ATOM      2  C   UNL     1       2.375   3.025  19.293  0.00  0.00    +0.000 A 
ATOM      3  N   UNL     1       1.073   3.305  19.504  0.00  0.00    +0.000 NA
ATOM      4  C   UNL     1       0.794   4.492  20.099  0.00  0.00    +0.000 A 
ATOM      5  C   UNL     1       1.756   5.423  20.494  0.00  0.00    +0.000 A 
ATOM      6  C   UNL     1       3.090   5.121  20.209  0.00  0.00    +0.000 A 
ENDROOT
BRANCH   5   7
ATOM      7  N   UNL     1       1.453   6.639  21.153  0.00  0.00    +0.000 N 
ATOM      8  C   UNL     1       1.609   7.902  20.599  0.00  0.00    +0.000 C 
ATOM      9  O   UNL     1       1.952   8.134  19.442  0.00  0.00    +0.000 OA
ATOM     10  H   UNL     1       0.971   6.573  22.043  0.00  0.00    +0.000 HD
BRANCH   8  11
ATOM     11  C   UNL     1       1.292   9.045  21.545  0.00  0.00    +0.000 C 
BRANCH  11  12
ATOM     12  C   UNL     1       0.202   9.969  21.055  0.00  0.00    +0.000 A 
ATOM     13  C   UNL     1      -0.383  10.895  21.933  0.00  0.00    +0.000 A 
ATOM     14  C   UNL     1      -1.328  11.809  21.465  0.00  0.00    +0.000 A 
ATOM     15  F   UNL     1      -1.859  12.690  22.323  0.00  0.00    +0.000 F 
ATOM     16  C   UNL     1      -1.704  11.820  20.131  0.00  0.00    +0.000 A 
ATOM     17  F   UNL     1      -2.599  12.716  19.689  0.00  0.00    +0.000 F 
ATOM     18  C   UNL     1      -1.136  10.906  19.255  0.00  0.00    +0.000 A 
ATOM     19  F   UNL     1      -1.484  10.909  17.962  0.00  0.00    +0.000 F 
ATOM     20  C   UNL     1      -0.187   9.986  19.705  0.00  0.00    +0.000 A 
ENDBRANCH  11  12
ENDBRANCH   8  11
ENDBRANCH   5   7
BRANCH   1  21
ATOM     21  C   UNL     1       4.824   3.527  19.340  0.00  0.00    +0.000 C 
ATOM     22  O   UNL     1       5.222   2.444  19.761  0.00  0.00    +0.000 OA
BRANCH  21  26
ATOM     23  C   UNL     1       7.971   7.243  18.192  0.00  0.00    +0.000 C 
ATOM     24  N   UNL     1       7.112   6.089  18.075  0.00  0.00    +0.000 N 
ATOM     25  C   UNL     1       6.439   5.485  19.108  0.00  0.00    +0.000 A 
ATOM     26  C   UNL     1       5.696   4.431  18.593  0.00  0.00    +0.000 A 
ATOM     27  C   UNL     1       5.980   4.387  17.190  0.00  0.00    +0.000 A 
ATOM     28  C   UNL     1       5.592   3.602  16.105  0.00  0.00    +0.000 A 
ATOM     29  N   UNL     1       6.070   3.881  14.869  0.00  0.00    +0.000 NA
ATOM     30  C   UNL     1       6.918   4.920  14.741  0.00  0.00    +0.000 A 
ATOM     31  N   UNL     1       7.357   5.751  15.700  0.00  0.00    +0.000 NA
ATOM     32  C   UNL     1       6.852   5.430  16.904  0.00  0.00    +0.000 A 
ENDBRANCH  21  26
ENDBRANCH   1  21
TORSDOF 5
ENDMDL
MODEL 7
REMARK VINA RESULT:      -8.8      1.519      1.796
REMARK  Name = 
REMARK  6 active torsions:
REMARK  status: ('A' for Active; 'I' for Inactive)
REMARK    1  A    between atoms: C_1  and  N_2
REMARK    2  A    between atoms: C_4  and  C_5
REMARK    3  A    between atoms: C_5  and  C_7
REMARK    4  A    between atoms: C_11  and  N_12
REMARK    5  A    between atoms: C_13  and  C_15
REMARK    6  A    between atoms: C_15  and  C_16
REMARK                            x       y       z     vdW  Elec       q    Type
REMARK                         _______ _______ _______ _____ _____    ______ ____
ROOT
ATOM      1  C   UNL     1       3.520   4.744  19.649  0.00  0.00    +0.000 A 
ATOM      2  C   UNL     1       2.600   4.004  20.382  0.00  0.00    +0.000 A 
ATOM      3  N   UNL     1       1.433   4.502  20.840  0.00  0.00    +0.000 NA
ATOM      4  C   UNL     1       1.202   5.819  20.609  0.00  0.00    +0.000 A 
ATOM      5  C   UNL     1       2.079   6.669  19.936  0.00  0.00    +0.000 A 
ATOM      6  C   UNL     1       3.253   6.103  19.429  0.00  0.00    +0.000 A 
ENDROOT
BRANCH   5   7
ATOM      7  N   UNL     1       1.844   8.052  19.740  0.00  0.00    +0.000 N 
ATOM      8  C   UNL     1       1.069   8.850  20.569  0.00  0.00    +0.000 C 
ATOM      9  O   UNL     1       0.550   8.488  21.622  0.00  0.00    +0.000 OA
ATOM     10  H   UNL     1       2.383   8.512  19.015  0.00  0.00    +0.000 HD
BRANCH   8  11
ATOM     11  C   UNL     1       0.907  10.280  20.090  0.00  0.00    +0.000 C 
BRANCH  11  12
ATOM     12  C   UNL     1      -0.391  10.545  19.362  0.00  0.00    +0.000 A 
ATOM     13  C   UNL     1      -1.308  11.476  19.875  0.00  0.00    +0.000 A 
ATOM     14  C   UNL     1      -2.467  11.788  19.164  0.00  0.00    +0.000 A 
ATOM     15  F   UNL     1      -3.317  12.690  19.671  0.00  0.00    +0.000 F 
ATOM     16  C   UNL     1      -2.732  11.188  17.942  0.00  0.00    +0.000 A 
ATOM     17  F   UNL     1      -3.839  11.511  17.258  0.00  0.00    +0.000 F 
ATOM     18  C   UNL     1      -1.835  10.263  17.428  0.00  0.00    +0.000 A 
ATOM     19  F   UNL     1      -2.075   9.680  16.246  0.00  0.00    +0.000 F 
ATOM     20  C   UNL     1      -0.669   9.940  18.125  0.00  0.00    +0.000 A 
ENDBRANCH  11  12
ENDBRANCH   8  11
ENDBRANCH   5   7
BRANCH   1  21
ATOM     21  C   UNL     1       4.788   4.133  19.182  0.00  0.00    +0.000 C 
ATOM     22  O   UNL     1       5.036   2.978  19.518  0.00  0.00    +0.000 OA
BRANCH  21  26
ATOM     23  C   UNL     1       8.037   7.583  17.576  0.00  0.00    +0.000 C 
ATOM     24  N   UNL     1       7.158   6.438  17.610  0.00  0.00    +0.000 N 
ATOM     25  C   UNL     1       6.448   6.008  18.703  0.00  0.00    +0.000 A 
ATOM     26  C   UNL     1       5.696   4.900  18.331  0.00  0.00    +0.000 A 
ATOM     27  C   UNL     1       6.013   4.642  16.959  0.00  0.00    +0.000 A 
ATOM     28  C   UNL     1       5.636   3.709  15.994  0.00  0.00    +0.000 A 
ATOM     29  N   UNL     1       6.149   3.791  14.743  0.00  0.00    +0.000 NA
ATOM     30  C   UNL     1       7.020   4.786  14.484  0.00  0.00    +0.000 A 
ATOM     31  N   UNL     1       7.454   5.743  15.319  0.00  0.00    +0.000 NA
ATOM     32  C   UNL     1       6.913   5.616  16.544  0.00  0.00    +0.000 A 
ENDBRANCH  21  26
ENDBRANCH   1  21
TORSDOF 5
ENDMDL
MODEL 8
REMARK VINA RESULT:      -8.8      1.852      2.754
REMARK  Name = 
REMARK  6 active torsions:
REMARK  status: ('A' for Active; 'I' for Inactive)
REMARK    1  A    between atoms: C_1  and  N_2
REMARK    2  A    between atoms: C_4  and  C_5
REMARK    3  A    between atoms: C_5  and  C_7
REMARK    4  A    between atoms: C_11  and  N_12
REMARK    5  A    between atoms: C_13  and  C_15
REMARK    6  A    between atoms: C_15  and  C_16
REMARK                            x       y       z     vdW  Elec       q    Type
REMARK                         _______ _______ _______ _____ _____    ______ ____
ROOT
ATOM      1  C   UNL     1       2.514   4.660  18.772  0.00  0.00    +0.000 A 
ATOM      2  C   UNL     1       2.312   4.028  19.994  0.00  0.00    +0.000 A 
ATOM      3  N   UNL     1       1.830   4.652  21.088  0.00  0.00    +0.000 NA
ATOM      4  C   UNL     1       1.598   5.984  20.977  0.00  0.00    +0.000 A 
ATOM      5  C   UNL     1       1.819   6.731  19.819  0.00  0.00    +0.000 A 
ATOM      6  C   UNL     1       2.267   6.039  18.690  0.00  0.00    +0.000 A 
ENDROOT
BRANCH   5   7
ATOM      7  N   UNL     1       1.614   8.129  19.730  0.00  0.00    +0.000 N 
ATOM      8  C   UNL     1       0.824   8.871  20.597  0.00  0.00    +0.000 C 
ATOM      9  O   UNL     1       0.264   8.434  21.600  0.00  0.00    +0.000 OA
ATOM     10  H   UNL     1       2.184   8.637  19.063  0.00  0.00    +0.000 HD
BRANCH   8  11
ATOM     11  C   UNL     1       0.702  10.339  20.232  0.00  0.00    +0.000 C 
BRANCH  11  12
ATOM     12  C   UNL     1      -0.553  10.682  19.464  0.00  0.00    +0.000 A 
ATOM     13  C   UNL     1      -1.461  11.619  19.982  0.00  0.00    +0.000 A 
ATOM     14  C   UNL     1      -2.577  12.004  19.238  0.00  0.00    +0.000 A 
ATOM     15  F   UNL     1      -3.419  12.911  19.752  0.00  0.00    +0.000 F 
ATOM     16  C   UNL     1      -2.809  11.472  17.979  0.00  0.00    +0.000 A 
ATOM     17  F   UNL     1      -3.874  11.864  17.265  0.00  0.00    +0.000 F 
ATOM     18  C   UNL     1      -1.921  10.540  17.460  0.00  0.00    +0.000 A 
ATOM     19  F   UNL     1      -2.127  10.022  16.242  0.00  0.00    +0.000 F 
ATOM     20  C   UNL     1      -0.797  10.145  18.189  0.00  0.00    +0.000 A 
ENDBRANCH  11  12
ENDBRANCH   8  11
ENDBRANCH   5   7
BRANCH   1  21
ATOM     21  C   UNL     1       3.055   3.914  17.610  0.00  0.00    +0.000 C 
ATOM     22  O   UNL     1       2.340   3.070  17.077  0.00  0.00    +0.000 OA
BRANCH  21  26
ATOM     23  C   UNL     1       7.011   4.477  14.599  0.00  0.00    +0.000 C 
ATOM     24  N   UNL     1       6.174   4.466  15.775  0.00  0.00    +0.000 N 
ATOM     25  C   UNL     1       4.846   4.122  15.808  0.00  0.00    +0.000 A 
ATOM     26  C   UNL     1       4.401   4.204  17.121  0.00  0.00    +0.000 A 
ATOM     27  C   UNL     1       5.516   4.662  17.894  0.00  0.00    +0.000 A 
ATOM     28  C   UNL     1       5.762   4.958  19.234  0.00  0.00    +0.000 A 
ATOM     29  N   UNL     1       6.997   5.363  19.617  0.00  0.00    +0.000 NA
ATOM     30  C   UNL     1       7.949   5.465  18.669  0.00  0.00    +0.000 A 
ATOM     31  N   UNL     1       7.839   5.203  17.356  0.00  0.00    +0.000 NA
ATOM     32  C   UNL     1       6.596   4.806  17.032  0.00  0.00    +0.000 A 
ENDBRANCH  21  26
ENDBRANCH   1  21
TORSDOF 5
ENDMDL
MODEL 9
REMARK VINA RESULT:      -8.7      0.585      1.818
REMARK  Name = 
REMARK  6 active torsions:
REMARK  status: ('A' for Active; 'I' for Inactive)
REMARK    1  A    between atoms: C_1  and  N_2
REMARK    2  A    between atoms: C_4  and  C_5
REMARK    3  A    between atoms: C_5  and  C_7
REMARK    4  A    between atoms: C_11  and  N_12
REMARK    5  A    between atoms: C_13  and  C_15
REMARK    6  A    between atoms: C_15  and  C_16
REMARK                            x       y       z     vdW  Elec       q    Type
REMARK                         _______ _______ _______ _____ _____    ______ ____
ROOT
ATOM      1  C   UNL     1       3.255   3.685  19.679  0.00  0.00    +0.000 A 
ATOM      2  C   UNL     1       2.258   2.721  19.775  0.00  0.00    +0.000 A 
ATOM      3  N   UNL     1       1.000   2.983  20.185  0.00  0.00    +0.000 NA
ATOM      4  C   UNL     1       0.740   4.256  20.576  0.00  0.00    +0.000 A 
ATOM      5  C   UNL     1       1.677   5.289  20.577  0.00  0.00    +0.000 A 
ATOM      6  C   UNL     1       2.955   4.991  20.094  0.00  0.00    +0.000 A 
ENDROOT
BRANCH   5   7
ATOM      7  N   UNL     1       1.404   6.602  21.030  0.00  0.00    +0.000 N 
ATOM      8  C   UNL     1       1.708   7.762  20.331  0.00  0.00    +0.000 C 
ATOM      9  O   UNL     1       2.180   7.806  19.197  0.00  0.00    +0.000 OA
ATOM     10  H   UNL     1       0.834   6.693  21.863  0.00  0.00    +0.000 HD
BRANCH   8  11
ATOM     11  C   UNL     1       1.387   9.045  21.074  0.00  0.00    +0.000 C 
BRANCH  11  12
ATOM     12  C   UNL     1       0.632  10.063  20.252  0.00  0.00    +0.000 A 
ATOM     13  C   UNL     1       1.227  11.296  19.940  0.00  0.00    +0.000 A 
ATOM     14  C   UNL     1       0.569  12.205  19.110  0.00  0.00    +0.000 A 
ATOM     15  F   UNL     1       1.168  13.367  18.818  0.00  0.00    +0.000 F 
ATOM     16  C   UNL     1      -0.678  11.908  18.580  0.00  0.00    +0.000 A 
ATOM     17  F   UNL     1      -1.291  12.781  17.768  0.00  0.00    +0.000 F 
ATOM     18  C   UNL     1      -1.277  10.695  18.887  0.00  0.00    +0.000 A 
ATOM     19  F   UNL     1      -2.478  10.392  18.378  0.00  0.00    +0.000 F 
ATOM     20  C   UNL     1      -0.633   9.773  19.714  0.00  0.00    +0.000 A 
ENDBRANCH  11  12
ENDBRANCH   8  11
ENDBRANCH   5   7
BRANCH   1  21
ATOM     21  C   UNL     1       4.621   3.325  19.227  0.00  0.00    +0.000 C 
ATOM     22  O   UNL     1       5.225   2.449  19.841  0.00  0.00    +0.000 OA
BRANCH  21  26
ATOM     23  C   UNL     1       5.695   4.635  14.519  0.00  0.00    +0.000 C 
ATOM     24  N   UNL     1       5.683   4.595  15.963  0.00  0.00    +0.000 N 
ATOM     25  C   UNL     1       4.911   3.761  16.732  0.00  0.00    +0.000 A 
ATOM     26  C   UNL     1       5.205   3.998  18.069  0.00  0.00    +0.000 A 
ATOM     27  C   UNL     1       6.170   5.056  18.086  0.00  0.00    +0.000 A 
ATOM     28  C   UNL     1       6.870   5.768  19.059  0.00  0.00    +0.000 A 
ATOM     29  N   UNL     1       7.753   6.725  18.686  0.00  0.00    +0.000 NA
ATOM     30  C   UNL     1       7.915   6.953  17.368  0.00  0.00    +0.000 A 
ATOM     31  N   UNL     1       7.311   6.333  16.342  0.00  0.00    +0.000 NA
ATOM     32  C   UNL     1       6.448   5.394  16.767  0.00  0.00    +0.000 A 
ENDBRANCH  21  26
ENDBRANCH   1  21
TORSDOF 5
ENDMDL
