MODEL 1
REMARK VINA RESULT:      -4.9      0.000      0.000
REMARK  Name = 
REMARK  5 active torsions:
REMARK  status: ('A' for Active; 'I' for Inactive)
REMARK    1  A    between atoms: C_1  and  O_2
REMARK    2  A    between atoms: O_2  and  C_3
REMARK    3  A    between atoms: C_3  and  C_5
REMARK    4  A    between atoms: C_5  and  N_6
REMARK    5  A    between atoms: N_6  and  N_7
REMARK                            x       y       z     vdW  Elec       q    Type
REMARK                         _______ _______ _______ _____ _____    ______ ____
ROOT
ATOM      1  N   UNL     1       3.730   3.166  18.252  0.00  0.00    +0.000 NA
ATOM      2  C   UNL     1       3.263   1.958  18.340  0.00  0.00    +0.000 C 
ATOM      3  N   UNL     1       4.096   0.799  18.304  0.00  0.00    +0.000 N 
ATOM      4  N   UNL     1       1.865   1.779  18.483  0.00  0.00    +0.000 N 
ATOM      5  H   UNL     1       5.116   0.823  18.212  0.00  0.00    +0.000 HD
ATOM      6  H   UNL     1       3.665  -0.133  18.382  0.00  0.00    +0.000 HD
ATOM      7  H   UNL     1       1.232   2.593  18.514  0.00  0.00    +0.000 HD
ATOM      8  H   UNL     1       1.466   0.833  18.559  0.00  0.00    +0.000 HD
ENDROOT
BRANCH   1   9
ATOM      9  N   UNL     1       5.065   3.484  18.107  0.00  0.00    +0.000 N 
ATOM     10  H   UNL     1       5.761   3.145  18.777  0.00  0.00    +0.000 HD
BRANCH   9  11
ATOM     11  C   UNL     1       5.492   4.310  16.996  0.00  0.00    +0.000 C 
BRANCH  11  12
ATOM     12  C   UNL     1       6.988   4.518  16.980  0.00  0.00    +0.000 C 
ATOM     13  O   UNL     1       7.623   4.354  18.012  0.00  0.00    +0.000 OA
BRANCH  12  15
ATOM     14  C   UNL     1       7.051   4.851  14.579  0.00  0.00    +0.000 C 
ATOM     15  O   UNL     1       7.617   4.887  15.833  0.00  0.00    +0.000 OA
ENDBRANCH  12  15
ENDBRANCH  11  12
ENDBRANCH   9  11
ENDBRANCH   1   9
TORSDOF 4
ENDMDL
MODEL 2
REMARK VINA RESULT:      -4.9      3.776      4.708
REMARK  Name = 
REMARK  5 active torsions:
REMARK  status: ('A' for Active; 'I' for Inactive)
REMARK    1  A    between atoms: C_1  and  O_2
REMARK    2  A    between atoms: O_2  and  C_3
REMARK    3  A    between atoms: C_3  and  C_5
REMARK    4  A    between atoms: C_5  and  N_6
REMARK    5  A    between atoms: N_6  and  N_7
REMARK                            x       y       z     vdW  Elec       q    Type
REMARK                         _______ _______ _______ _____ _____    ______ ____
ROOT
ATOM      1  N   UNL     1       7.788   4.542  18.030  0.00  0.00    +0.000 NA
ATOM      2  C   UNL     1       7.862   5.593  18.787  0.00  0.00    +0.000 C 
ATOM      3  N   UNL     1       7.862   6.924  18.270  0.00  0.00    +0.000 N 
ATOM      4  N   UNL     1       7.942   5.416  20.190  0.00  0.00    +0.000 N 
ATOM      5  H   UNL     1       7.800   7.157  17.273  0.00  0.00    +0.000 HD
ATOM      6  H   UNL     1       7.921   7.718  18.923  0.00  0.00    +0.000 HD
ATOM      7  H   UNL     1       7.944   4.470  20.600  0.00  0.00    +0.000 HD
ATOM      8  H   UNL     1       7.999   6.232  20.817  0.00  0.00    +0.000 HD
ENDROOT
BRANCH   1   9
ATOM      9  N   UNL     1       7.709   4.569  16.653  0.00  0.00    +0.000 N 
ATOM     10  H   UNL     1       8.516   4.845  16.086  0.00  0.00    +0.000 HD
BRANCH   9  11
ATOM     11  C   UNL     1       6.470   4.207  15.995  0.00  0.00    +0.000 C 
BRANCH  11  12
ATOM     12  C   UNL     1       5.472   5.340  15.988  0.00  0.00    +0.000 C 
ATOM     13  O   UNL     1       5.617   6.256  15.191  0.00  0.00    +0.000 OA
BRANCH  12  15
ATOM     14  C   UNL     1       4.199   6.316  17.806  0.00  0.00    +0.000 C 
ATOM     15  O   UNL     1       4.430   5.343  16.861  0.00  0.00    +0.000 OA
ENDBRANCH  12  15
ENDBRANCH  11  12
ENDBRANCH   9  11
ENDBRANCH   1   9
TORSDOF 4
ENDMDL
MODEL 3
REMARK VINA RESULT:      -4.8      0.831      1.715
REMARK  Name = 
REMARK  5 active torsions:
REMARK  status: ('A' for Active; 'I' for Inactive)
REMARK    1  A    between atoms: C_1  and  O_2
REMARK    2  A    between atoms: O_2  and  C_3
REMARK    3  A    between atoms: C_3  and  C_5
REMARK    4  A    between atoms: C_5  and  N_6
REMARK    5  A    between atoms: N_6  and  N_7
REMARK                            x       y       z     vdW  Elec       q    Type
REMARK                         _______ _______ _______ _____ _____    ______ ____
ROOT
ATOM      1  N   UNL     1       3.784   3.023  17.481  0.00  0.00    +0.000 NA
ATOM      2  C   UNL     1       3.314   1.933  18.005  0.00  0.00    +0.000 C 
ATOM      3  N   UNL     1       4.129   0.795  18.292  0.00  0.00    +0.000 N 
ATOM      4  N   UNL     1       1.933   1.868  18.313  0.00  0.00    +0.000 N 
ATOM      5  H   UNL     1       5.137   0.747  18.114  0.00  0.00    +0.000 HD
ATOM      6  H   UNL     1       3.696  -0.040  18.711  0.00  0.00    +0.000 HD
ATOM      7  H   UNL     1       1.314   2.670  18.122  0.00  0.00    +0.000 HD
ATOM      8  H   UNL     1       1.532   1.017  18.734  0.00  0.00    +0.000 HD
ENDROOT
BRANCH   1   9
ATOM      9  N   UNL     1       5.104   3.221  17.130  0.00  0.00    +0.000 N 
ATOM     10  H   UNL     1       5.814   2.511  17.333  0.00  0.00    +0.000 HD
BRANCH   9  11
ATOM     11  C   UNL     1       5.497   4.448  16.468  0.00  0.00    +0.000 C 
BRANCH  11  12
ATOM     12  C   UNL     1       6.997   4.585  16.361  0.00  0.00    +0.000 C 
ATOM     13  O   UNL     1       7.504   4.730  15.257  0.00  0.00    +0.000 OA
BRANCH  12  15
ATOM     14  C   UNL     1       7.682   5.427  18.529  0.00  0.00    +0.000 C 
ATOM     15  O   UNL     1       7.772   4.545  17.477  0.00  0.00    +0.000 OA
ENDBRANCH  12  15
ENDBRANCH  11  12
ENDBRANCH   9  11
ENDBRANCH   1   9
TORSDOF 4
ENDMDL
MODEL 4
REMARK VINA RESULT:      -4.8      3.546      5.195
REMARK  Name = 
REMARK  5 active torsions:
REMARK  status: ('A' for Active; 'I' for Inactive)
REMARK    1  A    between atoms: C_1  and  O_2
REMARK    2  A    between atoms: O_2  and  C_3
REMARK    3  A    between atoms: C_3  and  C_5
REMARK    4  A    between atoms: C_5  and  N_6
REMARK    5  A    between atoms: N_6  and  N_7
REMARK                            x       y       z     vdW  Elec       q    Type
REMARK                         _______ _______ _______ _____ _____    ______ ____
ROOT
ATOM      1  N   UNL     1       6.808   4.990  19.155  0.00  0.00    +0.000 NA
ATOM      2  C   UNL     1       7.498   5.788  18.399  0.00  0.00    +0.000 C 
ATOM      3  N   UNL     1       7.501   5.698  16.974  0.00  0.00    +0.000 N 
ATOM      4  N   UNL     1       8.281   6.796  19.012  0.00  0.00    +0.000 N 
ATOM      5  H   UNL     1       6.964   5.010  16.437  0.00  0.00    +0.000 HD
ATOM      6  H   UNL     1       8.069   6.363  16.429  0.00  0.00    +0.000 HD
ATOM      7  H   UNL     1       8.303   6.892  20.039  0.00  0.00    +0.000 HD
ATOM      8  H   UNL     1       8.837   7.447  18.438  0.00  0.00    +0.000 HD
ENDROOT
BRANCH   1   9
ATOM      9  N   UNL     1       6.008   3.965  18.692  0.00  0.00    +0.000 N 
ATOM     10  H   UNL     1       6.338   3.332  17.956  0.00  0.00    +0.000 HD
BRANCH   9  11
ATOM     11  C   UNL     1       4.683   3.778  19.246  0.00  0.00    +0.000 C 
BRANCH  11  12
ATOM     12  C   UNL     1       4.405   2.334  19.591  0.00  0.00    +0.000 C 
ATOM     13  O   UNL     1       4.982   1.828  20.544  0.00  0.00    +0.000 OA
BRANCH  12  15
ATOM     14  C   UNL     1       2.671   2.132  17.909  0.00  0.00    +0.000 C 
ATOM     15  O   UNL     1       3.528   1.608  18.849  0.00  0.00    +0.000 OA
ENDBRANCH  12  15
ENDBRANCH  11  12
ENDBRANCH   9  11
ENDBRANCH   1   9
TORSDOF 4
ENDMDL
MODEL 5
REMARK VINA RESULT:      -4.7      2.899      4.749
REMARK  Name = 
REMARK  5 active torsions:
REMARK  status: ('A' for Active; 'I' for Inactive)
REMARK    1  A    between atoms: C_1  and  O_2
REMARK    2  A    between atoms: O_2  and  C_3
REMARK    3  A    between atoms: C_3  and  C_5
REMARK    4  A    between atoms: C_5  and  N_6
REMARK    5  A    between atoms: N_6  and  N_7
REMARK                            x       y       z     vdW  Elec       q    Type
REMARK                         _______ _______ _______ _____ _____    ______ ____
ROOT
ATOM      1  N   UNL     1       5.812   4.167  16.218  0.00  0.00    +0.000 NA
ATOM      2  C   UNL     1       6.936   4.697  16.592  0.00  0.00    +0.000 C 
ATOM      3  N   UNL     1       7.621   4.305  17.782  0.00  0.00    +0.000 N 
ATOM      4  N   UNL     1       7.514   5.706  15.783  0.00  0.00    +0.000 N 
ATOM      5  H   UNL     1       7.290   3.581  18.428  0.00  0.00    +0.000 HD
ATOM      6  H   UNL     1       8.512   4.761  18.023  0.00  0.00    +0.000 HD
ATOM      7  H   UNL     1       7.049   6.014  14.916  0.00  0.00    +0.000 HD
ATOM      8  H   UNL     1       8.408   6.142  16.052  0.00  0.00    +0.000 HD
ENDROOT
BRANCH   1   9
ATOM      9  N   UNL     1       5.139   3.181  16.910  0.00  0.00    +0.000 N 
ATOM     10  H   UNL     1       5.475   2.213  16.905  0.00  0.00    +0.000 HD
BRANCH   9  11
ATOM     11  C   UNL     1       3.940   3.512  17.652  0.00  0.00    +0.000 C 
BRANCH  11  12
ATOM     12  C   UNL     1       4.206   3.669  19.130  0.00  0.00    +0.000 C 
ATOM     13  O   UNL     1       5.324   3.423  19.563  0.00  0.00    +0.000 OA
BRANCH  12  15
ATOM     14  C   UNL     1       2.658   5.333  19.974  0.00  0.00    +0.000 C 
ATOM     15  O   UNL     1       3.215   4.074  19.968  0.00  0.00    +0.000 OA
ENDBRANCH  12  15
ENDBRANCH  11  12
ENDBRANCH   9  11
ENDBRANCH   1   9
TORSDOF 4
ENDMDL
MODEL 6
REMARK VINA RESULT:      -4.7      2.954      4.091
REMARK  Name = 
REMARK  5 active torsions:
REMARK  status: ('A' for Active; 'I' for Inactive)
REMARK    1  A    between atoms: C_1  and  O_2
REMARK    2  A    between atoms: O_2  and  C_3
REMARK    3  A    between atoms: C_3  and  C_5
REMARK    4  A    between atoms: C_5  and  N_6
REMARK    5  A    between atoms: N_6  and  N_7
REMARK                            x       y       z     vdW  Elec       q    Type
REMARK                         _______ _______ _______ _____ _____    ______ ____
ROOT
ATOM      1  N   UNL     1       5.519   4.179  15.529  0.00  0.00    +0.000 NA
ATOM      2  C   UNL     1       6.395   4.297  14.579  0.00  0.00    +0.000 C 
ATOM      3  N   UNL     1       7.437   5.272  14.601  0.00  0.00    +0.000 N 
ATOM      4  N   UNL     1       6.318   3.418  13.471  0.00  0.00    +0.000 N 
ATOM      5  H   UNL     1       7.582   5.947  15.359  0.00  0.00    +0.000 HD
ATOM      6  H   UNL     1       8.104   5.314  13.817  0.00  0.00    +0.000 HD
ATOM      7  H   UNL     1       5.580   2.700  13.421  0.00  0.00    +0.000 HD
ATOM      8  H   UNL     1       7.002   3.485  12.703  0.00  0.00    +0.000 HD
ENDROOT
BRANCH   1   9
ATOM      9  N   UNL     1       5.474   4.968  16.660  0.00  0.00    +0.000 N 
ATOM     10  H   UNL     1       4.979   5.866  16.654  0.00  0.00    +0.000 HD
BRANCH   9  11
ATOM     11  C   UNL     1       6.137   4.531  17.871  0.00  0.00    +0.000 C 
BRANCH  11  12
ATOM     12  C   UNL     1       7.253   5.461  18.281  0.00  0.00    +0.000 C 
ATOM     13  O   UNL     1       7.708   5.383  19.414  0.00  0.00    +0.000 OA
BRANCH  12  15
ATOM     14  C   UNL     1       7.681   7.741  17.575  0.00  0.00    +0.000 C 
ATOM     15  O   UNL     1       7.742   6.377  17.403  0.00  0.00    +0.000 OA
ENDBRANCH  12  15
ENDBRANCH  11  12
ENDBRANCH   9  11
ENDBRANCH   1   9
TORSDOF 4
ENDMDL
MODEL 7
REMARK VINA RESULT:      -4.6      3.173      5.040
REMARK  Name = 
REMARK  5 active torsions:
REMARK  status: ('A' for Active; 'I' for Inactive)
REMARK    1  A    between atoms: C_1  and  O_2
REMARK    2  A    between atoms: O_2  and  C_3
REMARK    3  A    between atoms: C_3  and  C_5
REMARK    4  A    between atoms: C_5  and  N_6
REMARK    5  A    between atoms: N_6  and  N_7
REMARK                            x       y       z     vdW  Elec       q    Type
REMARK                         _______ _______ _______ _____ _____    ______ ____
ROOT
ATOM      1  N   UNL     1       7.216   5.243  18.944  0.00  0.00    +0.000 NA
ATOM      2  C   UNL     1       7.626   6.226  18.201  0.00  0.00    +0.000 C 
ATOM      3  N   UNL     1       7.359   6.303  16.800  0.00  0.00    +0.000 N 
ATOM      4  N   UNL     1       8.366   7.271  18.805  0.00  0.00    +0.000 N 
ATOM      5  H   UNL     1       6.827   5.604  16.273  0.00  0.00    +0.000 HD
ATOM      6  H   UNL     1       7.710   7.111  16.265  0.00  0.00    +0.000 HD
ATOM      7  H   UNL     1       8.577   7.250  19.814  0.00  0.00    +0.000 HD
ATOM      8  H   UNL     1       8.701   8.066  18.242  0.00  0.00    +0.000 HD
ENDROOT
BRANCH   1   9
ATOM      9  N   UNL     1       6.491   4.162  18.487  0.00  0.00    +0.000 N 
ATOM     10  H   UNL     1       6.945   3.412  17.957  0.00  0.00    +0.000 HD
BRANCH   9  11
ATOM     11  C   UNL     1       5.070   4.082  18.754  0.00  0.00    +0.000 C 
BRANCH  11  12
ATOM     12  C   UNL     1       4.244   4.176  17.493  0.00  0.00    +0.000 C 
ATOM     13  O   UNL     1       4.461   5.086  16.705  0.00  0.00    +0.000 OA
BRANCH  12  15
ATOM     14  C   UNL     1       3.104   2.080  17.926  0.00  0.00    +0.000 C 
ATOM     15  O   UNL     1       3.270   3.262  17.240  0.00  0.00    +0.000 OA
ENDBRANCH  12  15
ENDBRANCH  11  12
ENDBRANCH   9  11
ENDBRANCH   1   9
TORSDOF 4
ENDMDL
MODEL 8
REMARK VINA RESULT:      -4.6      2.157      2.456
REMARK  Name = 
REMARK  5 active torsions:
REMARK  status: ('A' for Active; 'I' for Inactive)
REMARK    1  A    between atoms: C_1  and  O_2
REMARK    2  A    between atoms: O_2  and  C_3
REMARK    3  A    between atoms: C_3  and  C_5
REMARK    4  A    between atoms: C_5  and  N_6
REMARK    5  A    between atoms: N_6  and  N_7
REMARK                            x       y       z     vdW  Elec       q    Type
REMARK                         _______ _______ _______ _____ _____    ______ ____
ROOT
ATOM      1  N   UNL     1       5.956   4.860  18.958  0.00  0.00    +0.000 NA
ATOM      2  C   UNL     1       4.945   4.102  19.252  0.00  0.00    +0.000 C 
ATOM      3  N   UNL     1       4.983   2.679  19.141  0.00  0.00    +0.000 N 
ATOM      4  N   UNL     1       3.750   4.710  19.709  0.00  0.00    +0.000 N 
ATOM      5  H   UNL     1       5.800   2.145  18.828  0.00  0.00    +0.000 HD
ATOM      6  H   UNL     1       4.147   2.132  19.393  0.00  0.00    +0.000 HD
ATOM      7  H   UNL     1       3.686   5.735  19.804  0.00  0.00    +0.000 HD
ATOM      8  H   UNL     1       2.932   4.134  19.954  0.00  0.00    +0.000 HD
ENDROOT
BRANCH   1   9
ATOM      9  N   UNL     1       7.175   4.402  18.499  0.00  0.00    +0.000 N 
ATOM     10  H   UNL     1       7.860   3.996  19.144  0.00  0.00    +0.000 HD
BRANCH   9  11
ATOM     11  C   UNL     1       7.496   4.497  17.090  0.00  0.00    +0.000 C 
BRANCH  11  12
ATOM     12  C   UNL     1       7.078   5.821  16.496  0.00  0.00    +0.000 C 
ATOM     13  O   UNL     1       7.668   6.838  16.834  0.00  0.00    +0.000 OA
BRANCH  12  15
ATOM     14  C   UNL     1       5.490   4.789  14.982  0.00  0.00    +0.000 C 
ATOM     15  O   UNL     1       6.057   5.880  15.600  0.00  0.00    +0.000 OA
ENDBRANCH  12  15
ENDBRANCH  11  12
ENDBRANCH   9  11
ENDBRANCH   1   9
TORSDOF 4
ENDMDL
MODEL 9
REMARK VINA RESULT:      -4.6      4.095      5.413
REMARK  Name = 
REMARK  5 active torsions:
REMARK  status: ('A' for Active; 'I' for Inactive)
REMARK    1  A    between atoms: C_1  and  O_2
REMARK    2  A    between atoms: O_2  and  C_3
REMARK    3  A    between atoms: C_3  and  C_5
REMARK    4  A    between atoms: C_5  and  N_6
REMARK    5  A    between atoms: N_6  and  N_7
REMARK                            x       y       z     vdW  Elec       q    Type
REMARK                         _______ _______ _______ _____ _____    ______ ____
ROOT
ATOM      1  N   UNL     1       2.988   2.403  17.950  0.00  0.00    +0.000 NA
ATOM      2  C   UNL     1       4.170   2.744  18.364  0.00  0.00    +0.000 C 
ATOM      3  N   UNL     1       4.681   2.375  19.645  0.00  0.00    +0.000 N 
ATOM      4  N   UNL     1       4.994   3.513  17.506  0.00  0.00    +0.000 N 
ATOM      5  H   UNL     1       4.167   1.814  20.333  0.00  0.00    +0.000 HD
ATOM      6  H   UNL     1       5.629   2.674  19.915  0.00  0.00    +0.000 HD
ATOM      7  H   UNL     1       4.660   3.797  16.573  0.00  0.00    +0.000 HD
ATOM      8  H   UNL     1       5.939   3.795  17.806  0.00  0.00    +0.000 HD
ENDROOT
BRANCH   1   9
ATOM      9  N   UNL     1       2.083   1.661  18.681  0.00  0.00    +0.000 N 
ATOM     10  H   UNL     1       2.256   0.671  18.882  0.00  0.00    +0.000 HD
BRANCH   9  11
ATOM     11  C   UNL     1       0.870   2.282  19.171  0.00  0.00    +0.000 C 
BRANCH  11  12
ATOM     12  C   UNL     1       1.106   3.088  20.427  0.00  0.00    +0.000 C 
ATOM     13  O   UNL     1       1.390   2.504  21.464  0.00  0.00    +0.000 OA
BRANCH  12  15
ATOM     14  C   UNL     1       2.043   5.316  20.610  0.00  0.00    +0.000 C 
ATOM     15  O   UNL     1       1.000   4.442  20.405  0.00  0.00    +0.000 OA
ENDBRANCH  12  15
ENDBRANCH  11  12
ENDBRANCH   9  11
ENDBRANCH   1   9
TORSDOF 4
ENDMDL
