MODEL 1
REMARK VINA RESULT:      -8.1      0.000      0.000
REMARK  Name = 
REMARK  4 active torsions:
REMARK  status: ('A' for Active; 'I' for Inactive)
REMARK    1  A    between atoms: C_1  and  C_2
REMARK    2  A    between atoms: C_5  and  N_6
REMARK    3  A    between atoms: C_9  and  C_10
REMARK    4  A    between atoms: C_25  and  C_26
REMARK                            x       y       z     vdW  Elec       q    Type
REMARK                         _______ _______ _______ _____ _____    ______ ____
ROOT
ATOM      1  N   UNL     1       3.287   5.387  18.941  0.00  0.00    +0.000 N 
ATOM      2  C   UNL     1       3.128   4.216  19.716  0.00  0.00    +0.000 A 
ATOM      3  O   UNL     1       3.719   3.153  19.517  0.00  0.00    +0.000 OA
ATOM      4  C   UNL     1       2.139   4.275  20.830  0.00  0.00    +0.000 A 
ATOM      5  C   UNL     1       1.471   5.413  21.055  0.00  0.00    +0.000 A 
ATOM      6  C   UNL     1       1.689   6.581  20.239  0.00  0.00    +0.000 A 
ATOM      7  C   UNL     1       0.968   7.847  20.541  0.00  0.00    +0.000 A 
ATOM      8  O   UNL     1       0.171   7.881  21.480  0.00  0.00    +0.000 OA
ATOM      9  N   UNL     1       1.263   8.925  19.724  0.00  0.00    +0.000 N 
ATOM     10  C   UNL     1       0.626  10.141  19.944  0.00  0.00    +0.000 A 
ATOM     11  C   UNL     1       0.874  11.214  19.182  0.00  0.00    +0.000 A 
ATOM     12  C   UNL     1       1.826  11.123  18.108  0.00  0.00    +0.000 A 
ATOM     13  C   UNL     1       2.466   9.973  17.864  0.00  0.00    +0.000 A 
ATOM     14  C   UNL     1       2.187   8.774  18.703  0.00  0.00    +0.000 A 
ATOM     15  N   UNL     1       2.809   7.669  18.440  0.00  0.00    +0.000 NA
ATOM     16  C   UNL     1       2.554   6.562  19.211  0.00  0.00    +0.000 A 
ENDROOT
BRANCH   1  21
ATOM     17  C   UNL     1       7.145   5.056  14.665  0.00  0.00    +0.000 C 
ATOM     18  C   UNL     1       6.148   5.181  15.785  0.00  0.00    +0.000 A 
ATOM     19  C   UNL     1       4.959   4.439  15.729  0.00  0.00    +0.000 A 
ATOM     20  C   UNL     1       4.014   4.524  16.754  0.00  0.00    +0.000 A 
ATOM     21  C   UNL     1       4.250   5.329  17.873  0.00  0.00    +0.000 A 
ATOM     22  C   UNL     1       5.435   6.076  17.929  0.00  0.00    +0.000 A 
ATOM     23  C   UNL     1       6.379   6.027  16.887  0.00  0.00    +0.000 A 
ATOM     24  C   UNL     1       7.610   6.887  16.969  0.00  0.00    +0.000 C 
ENDBRANCH   1  21
BRANCH   4  25
ATOM     25  C   UNL     1       1.908   3.122  21.626  0.00  0.00    +0.000 C 
ATOM     26  N   UNL     1       1.665   2.214  22.307  0.00  0.00    +0.000 NA
ENDBRANCH   4  25
TORSDOF 2
ENDMDL
MODEL 2
REMARK VINA RESULT:      -7.5      0.432      1.351
REMARK  Name = 
REMARK  4 active torsions:
REMARK  status: ('A' for Active; 'I' for Inactive)
REMARK    1  A    between atoms: C_1  and  C_2
REMARK    2  A    between atoms: C_5  and  N_6
REMARK    3  A    between atoms: C_9  and  C_10
REMARK    4  A    between atoms: C_25  and  C_26
REMARK                            x       y       z     vdW  Elec       q    Type
REMARK                         _______ _______ _______ _____ _____    ______ ____
ROOT
ATOM      1  N   UNL     1       3.582   5.387  18.911  0.00  0.00    +0.000 N 
ATOM      2  C   UNL     1       3.439   4.221  19.697  0.00  0.00    +0.000 A 
ATOM      3  O   UNL     1       4.076   3.179  19.535  0.00  0.00    +0.000 OA
ATOM      4  C   UNL     1       2.407   4.257  20.772  0.00  0.00    +0.000 A 
ATOM      5  C   UNL     1       1.689   5.372  20.957  0.00  0.00    +0.000 A 
ATOM      6  C   UNL     1       1.893   6.535  20.131  0.00  0.00    +0.000 A 
ATOM      7  C   UNL     1       1.114   7.777  20.388  0.00  0.00    +0.000 A 
ATOM      8  O   UNL     1       0.282   7.794  21.297  0.00  0.00    +0.000 OA
ATOM      9  N   UNL     1       1.398   8.854  19.566  0.00  0.00    +0.000 N 
ATOM     10  C   UNL     1       0.708  10.048  19.745  0.00  0.00    +0.000 A 
ATOM     11  C   UNL     1       0.943  11.119  18.976  0.00  0.00    +0.000 A 
ATOM     12  C   UNL     1       1.937  11.051  17.939  0.00  0.00    +0.000 A 
ATOM     13  C   UNL     1       2.629   9.923  17.736  0.00  0.00    +0.000 A 
ATOM     14  C   UNL     1       2.364   8.725  18.582  0.00  0.00    +0.000 A 
ATOM     15  N   UNL     1       3.036   7.641  18.358  0.00  0.00    +0.000 NA
ATOM     16  C   UNL     1       2.795   6.536  19.136  0.00  0.00    +0.000 A 
ENDROOT
BRANCH   1  21
ATOM     17  C   UNL     1       7.619   5.335  14.791  0.00  0.00    +0.000 C 
ATOM     18  C   UNL     1       6.553   5.314  15.852  0.00  0.00    +0.000 A 
ATOM     19  C   UNL     1       6.822   5.885  17.104  0.00  0.00    +0.000 A 
ATOM     20  C   UNL     1       5.855   5.889  18.111  0.00  0.00    +0.000 A 
ATOM     21  C   UNL     1       4.585   5.351  17.879  0.00  0.00    +0.000 A 
ATOM     22  C   UNL     1       4.315   4.773  16.631  0.00  0.00    +0.000 A 
ATOM     23  C   UNL     1       5.292   4.730  15.619  0.00  0.00    +0.000 A 
ATOM     24  C   UNL     1       4.972   4.054  14.316  0.00  0.00    +0.000 C 
ENDBRANCH   1  21
BRANCH   4  25
ATOM     25  C   UNL     1       2.191   3.107  21.577  0.00  0.00    +0.000 C 
ATOM     26  N   UNL     1       1.951   2.194  22.253  0.00  0.00    +0.000 NA
ENDBRANCH   4  25
TORSDOF 2
ENDMDL
MODEL 3
REMARK VINA RESULT:      -7.3      3.242      5.850
REMARK  Name = 
REMARK  4 active torsions:
REMARK  status: ('A' for Active; 'I' for Inactive)
REMARK    1  A    between atoms: C_1  and  C_2
REMARK    2  A    between atoms: C_5  and  N_6
REMARK    3  A    between atoms: C_9  and  C_10
REMARK    4  A    between atoms: C_25  and  C_26
REMARK                            x       y       z     vdW  Elec       q    Type
REMARK                         _______ _______ _______ _____ _____    ______ ____
ROOT
ATOM      1  N   UNL     1       6.160   5.734  16.702  0.00  0.00    +0.000 N 
ATOM      2  C   UNL     1       6.664   5.269  15.466  0.00  0.00    +0.000 A 
ATOM      3  O   UNL     1       7.697   5.674  14.929  0.00  0.00    +0.000 OA
ATOM      4  C   UNL     1       5.853   4.242  14.753  0.00  0.00    +0.000 A 
ATOM      5  C   UNL     1       4.718   3.800  15.307  0.00  0.00    +0.000 A 
ATOM      6  C   UNL     1       4.264   4.302  16.580  0.00  0.00    +0.000 A 
ATOM      7  C   UNL     1       3.023   3.758  17.196  0.00  0.00    +0.000 A 
ATOM      8  O   UNL     1       2.379   2.893  16.600  0.00  0.00    +0.000 OA
ATOM      9  N   UNL     1       2.681   4.276  18.433  0.00  0.00    +0.000 N 
ATOM     10  C   UNL     1       1.533   3.819  19.069  0.00  0.00    +0.000 A 
ATOM     11  C   UNL     1       1.156   4.289  20.266  0.00  0.00    +0.000 A 
ATOM     12  C   UNL     1       1.953   5.287  20.925  0.00  0.00    +0.000 A 
ATOM     13  C   UNL     1       3.070   5.752  20.351  0.00  0.00    +0.000 A 
ATOM     14  C   UNL     1       3.487   5.240  19.016  0.00  0.00    +0.000 A 
ATOM     15  N   UNL     1       4.564   5.714  18.474  0.00  0.00    +0.000 NA
ATOM     16  C   UNL     1       4.953   5.245  17.244  0.00  0.00    +0.000 A 
ENDROOT
BRANCH   1  21
ATOM     17  C   UNL     1       9.298   9.646  19.552  0.00  0.00    +0.000 C 
ATOM     18  C   UNL     1       8.485   8.647  18.775  0.00  0.00    +0.000 A 
ATOM     19  C   UNL     1       8.545   7.291  19.131  0.00  0.00    +0.000 A 
ATOM     20  C   UNL     1       7.799   6.337  18.437  0.00  0.00    +0.000 A 
ATOM     21  C   UNL     1       6.951   6.718  17.393  0.00  0.00    +0.000 A 
ATOM     22  C   UNL     1       6.894   8.071  17.031  0.00  0.00    +0.000 A 
ATOM     23  C   UNL     1       7.667   9.039  17.698  0.00  0.00    +0.000 A 
ATOM     24  C   UNL     1       7.610  10.470  17.239  0.00  0.00    +0.000 C 
ENDBRANCH   1  21
BRANCH   4  25
ATOM     25  C   UNL     1       6.287   3.757  13.490  0.00  0.00    +0.000 C 
ATOM     26  N   UNL     1       6.591   3.400  12.428  0.00  0.00    +0.000 NA
ENDBRANCH   4  25
TORSDOF 2
ENDMDL
MODEL 4
REMARK VINA RESULT:      -6.8      3.824      6.603
REMARK  Name = 
REMARK  4 active torsions:
REMARK  status: ('A' for Active; 'I' for Inactive)
REMARK    1  A    between atoms: C_1  and  C_2
REMARK    2  A    between atoms: C_5  and  N_6
REMARK    3  A    between atoms: C_9  and  C_10
REMARK    4  A    between atoms: C_25  and  C_26
REMARK                            x       y       z     vdW  Elec       q    Type
REMARK                         _______ _______ _______ _____ _____    ______ ____
ROOT
ATOM      1  N   UNL     1      -0.021  10.366  19.631  0.00  0.00    +0.000 N 
ATOM      2  C   UNL     1       0.202  11.020  20.865  0.00  0.00    +0.000 A 
ATOM      3  O   UNL     1       1.162  10.813  21.609  0.00  0.00    +0.000 OA
ATOM      4  C   UNL     1      -0.833  11.999  21.303  0.00  0.00    +0.000 A 
ATOM      5  C   UNL     1      -1.895  12.227  20.521  0.00  0.00    +0.000 A 
ATOM      6  C   UNL     1      -2.058  11.540  19.265  0.00  0.00    +0.000 A 
ATOM      7  C   UNL     1      -3.224  11.847  18.392  0.00  0.00    +0.000 A 
ATOM      8  O   UNL     1      -4.056  12.677  18.763  0.00  0.00    +0.000 OA
ATOM      9  N   UNL     1      -3.281  11.162  17.191  0.00  0.00    +0.000 N 
ATOM     10  C   UNL     1      -4.343  11.395  16.325  0.00  0.00    +0.000 A 
ATOM     11  C   UNL     1      -4.448  10.757  15.151  0.00  0.00    +0.000 A 
ATOM     12  C   UNL     1      -3.439   9.809  14.760  0.00  0.00    +0.000 A 
ATOM     13  C   UNL     1      -2.397   9.559  15.561  0.00  0.00    +0.000 A 
ATOM     14  C   UNL     1      -2.281  10.258  16.872  0.00  0.00    +0.000 A 
ATOM     15  N   UNL     1      -1.271   9.990  17.636  0.00  0.00    +0.000 NA
ATOM     16  C   UNL     1      -1.160  10.632  18.844  0.00  0.00    +0.000 A 
ENDROOT
BRANCH   1  21
ATOM     17  C   UNL     1       3.978   6.612  17.843  0.00  0.00    +0.000 C 
ATOM     18  C   UNL     1       2.943   7.581  18.347  0.00  0.00    +0.000 A 
ATOM     19  C   UNL     1       2.745   8.789  17.662  0.00  0.00    +0.000 A 
ATOM     20  C   UNL     1       1.788   9.708  18.097  0.00  0.00    +0.000 A 
ATOM     21  C   UNL     1       0.986   9.428  19.207  0.00  0.00    +0.000 A 
ATOM     22  C   UNL     1       1.186   8.225  19.898  0.00  0.00    +0.000 A 
ATOM     23  C   UNL     1       2.170   7.305  19.492  0.00  0.00    +0.000 A 
ATOM     24  C   UNL     1       2.382   6.052  20.295  0.00  0.00    +0.000 C 
ENDBRANCH   1  21
BRANCH   4  25
ATOM     25  C   UNL     1      -0.686  12.666  22.548  0.00  0.00    +0.000 C 
ATOM     26  N   UNL     1      -0.632  13.233  23.560  0.00  0.00    +0.000 NA
ENDBRANCH   4  25
TORSDOF 2
ENDMDL
MODEL 5
REMARK VINA RESULT:      -6.7      5.498      9.640
REMARK  Name = 
REMARK  4 active torsions:
REMARK  status: ('A' for Active; 'I' for Inactive)
REMARK    1  A    between atoms: C_1  and  C_2
REMARK    2  A    between atoms: C_5  and  N_6
REMARK    3  A    between atoms: C_9  and  C_10
REMARK    4  A    between atoms: C_25  and  C_26
REMARK                            x       y       z     vdW  Elec       q    Type
REMARK                         _______ _______ _______ _____ _____    ______ ____
ROOT
ATOM      1  N   UNL     1      -1.298  12.036  20.165  0.00  0.00    +0.000 N 
ATOM      2  C   UNL     1      -0.110  11.361  19.802  0.00  0.00    +0.000 A 
ATOM      3  O   UNL     1       0.961  11.443  20.406  0.00  0.00    +0.000 OA
ATOM      4  C   UNL     1      -0.163  10.523  18.570  0.00  0.00    +0.000 A 
ATOM      5  C   UNL     1      -1.310  10.432  17.886  0.00  0.00    +0.000 A 
ATOM      6  C   UNL     1      -2.493  11.133  18.317  0.00  0.00    +0.000 A 
ATOM      7  C   UNL     1      -3.768  10.977  17.564  0.00  0.00    +0.000 A 
ATOM      8  O   UNL     1      -3.796  10.261  16.562  0.00  0.00    +0.000 OA
ATOM      9  N   UNL     1      -4.859  11.662  18.069  0.00  0.00    +0.000 N 
ATOM     10  C   UNL     1      -6.084  11.567  17.417  0.00  0.00    +0.000 A 
ATOM     11  C   UNL     1      -7.171  12.211  17.862  0.00  0.00    +0.000 A 
ATOM     12  C   UNL     1      -7.086  13.021  19.048  0.00  0.00    +0.000 A 
ATOM     13  C   UNL     1      -5.928  13.137  19.709  0.00  0.00    +0.000 A 
ATOM     14  C   UNL     1      -4.714  12.430  19.212  0.00  0.00    +0.000 A 
ATOM     15  N   UNL     1      -3.602  12.567  19.862  0.00  0.00    +0.000 NA
ATOM     16  C   UNL     1      -2.482  11.918  19.408  0.00  0.00    +0.000 A 
ENDROOT
BRANCH   1  21
ATOM     17  C   UNL     1      -1.178  15.226  24.970  0.00  0.00    +0.000 C 
ATOM     18  C   UNL     1      -1.175  14.411  23.706  0.00  0.00    +0.000 A 
ATOM     19  C   UNL     1      -1.703  13.111  23.728  0.00  0.00    +0.000 A 
ATOM     20  C   UNL     1      -1.723  12.328  22.572  0.00  0.00    +0.000 A 
ATOM     21  C   UNL     1      -1.245  12.837  21.360  0.00  0.00    +0.000 A 
ATOM     22  C   UNL     1      -0.710  14.132  21.337  0.00  0.00    +0.000 A 
ATOM     23  C   UNL     1      -0.651  14.920  22.501  0.00  0.00    +0.000 A 
ATOM     24  C   UNL     1      -0.022  16.283  22.436  0.00  0.00    +0.000 C 
ENDBRANCH   1  21
BRANCH   4  25
ATOM     25  C   UNL     1       1.005   9.844  18.132  0.00  0.00    +0.000 C 
ATOM     26  N   UNL     1       1.956   9.326  17.714  0.00  0.00    +0.000 NA
ENDBRANCH   4  25
TORSDOF 2
ENDMDL
MODEL 6
REMARK VINA RESULT:      -6.6      1.484      5.765
REMARK  Name = 
REMARK  4 active torsions:
REMARK  status: ('A' for Active; 'I' for Inactive)
REMARK    1  A    between atoms: C_1  and  C_2
REMARK    2  A    between atoms: C_5  and  N_6
REMARK    3  A    between atoms: C_9  and  C_10
REMARK    4  A    between atoms: C_25  and  C_26
REMARK                            x       y       z     vdW  Elec       q    Type
REMARK                         _______ _______ _______ _____ _____    ______ ____
ROOT
ATOM      1  N   UNL     1       2.443   5.952  19.320  0.00  0.00    +0.000 N 
ATOM      2  C   UNL     1       1.803   5.252  20.368  0.00  0.00    +0.000 A 
ATOM      3  O   UNL     1       1.029   5.756  21.184  0.00  0.00    +0.000 OA
ATOM      4  C   UNL     1       2.132   3.804  20.509  0.00  0.00    +0.000 A 
ATOM      5  C   UNL     1       2.984   3.238  19.647  0.00  0.00    +0.000 A 
ATOM      6  C   UNL     1       3.593   4.002  18.587  0.00  0.00    +0.000 A 
ATOM      7  C   UNL     1       4.501   3.336  17.613  0.00  0.00    +0.000 A 
ATOM      8  O   UNL     1       4.741   2.134  17.734  0.00  0.00    +0.000 OA
ATOM      9  N   UNL     1       5.014   4.142  16.612  0.00  0.00    +0.000 N 
ATOM     10  C   UNL     1       5.871   3.590  15.667  0.00  0.00    +0.000 A 
ATOM     11  C   UNL     1       6.398   4.325  14.679  0.00  0.00    +0.000 A 
ATOM     12  C   UNL     1       6.070   5.722  14.574  0.00  0.00    +0.000 A 
ATOM     13  C   UNL     1       5.244   6.293  15.460  0.00  0.00    +0.000 A 
ATOM     14  C   UNL     1       4.665   5.481  16.567  0.00  0.00    +0.000 A 
ATOM     15  N   UNL     1       3.878   6.058  17.419  0.00  0.00    +0.000 NA
ATOM     16  C   UNL     1       3.342   5.314  18.440  0.00  0.00    +0.000 A 
ENDROOT
BRANCH   1  21
ATOM     17  C   UNL     1       1.215  11.556  18.724  0.00  0.00    +0.000 C 
ATOM     18  C   UNL     1       1.506  10.092  18.906  0.00  0.00    +0.000 A 
ATOM     19  C   UNL     1       1.947   9.340  17.807  0.00  0.00    +0.000 A 
ATOM     20  C   UNL     1       2.233   7.980  17.941  0.00  0.00    +0.000 A 
ATOM     21  C   UNL     1       2.115   7.347  19.182  0.00  0.00    +0.000 A 
ATOM     22  C   UNL     1       1.668   8.094  20.280  0.00  0.00    +0.000 A 
ATOM     23  C   UNL     1       1.343   9.457  20.153  0.00  0.00    +0.000 A 
ATOM     24  C   UNL     1       0.818  10.203  21.347  0.00  0.00    +0.000 C 
ENDBRANCH   1  21
BRANCH   4  25
ATOM     25  C   UNL     1       1.548   3.051  21.562  0.00  0.00    +0.000 C 
ATOM     26  N   UNL     1       1.099   2.376  22.393  0.00  0.00    +0.000 NA
ENDBRANCH   4  25
TORSDOF 2
ENDMDL
MODEL 7
REMARK VINA RESULT:      -6.6      7.590      9.595
REMARK  Name = 
REMARK  4 active torsions:
REMARK  status: ('A' for Active; 'I' for Inactive)
REMARK    1  A    between atoms: C_1  and  C_2
REMARK    2  A    between atoms: C_5  and  N_6
REMARK    3  A    between atoms: C_9  and  C_10
REMARK    4  A    between atoms: C_25  and  C_26
REMARK                            x       y       z     vdW  Elec       q    Type
REMARK                         _______ _______ _______ _____ _____    ______ ____
ROOT
ATOM      1  N   UNL     1      -2.557  12.041  18.792  0.00  0.00    +0.000 N 
ATOM      2  C   UNL     1      -2.552  11.498  17.487  0.00  0.00    +0.000 A 
ATOM      3  O   UNL     1      -1.554  11.385  16.774  0.00  0.00    +0.000 OA
ATOM      4  C   UNL     1      -3.868  11.072  16.931  0.00  0.00    +0.000 A 
ATOM      5  C   UNL     1      -4.970  11.201  17.680  0.00  0.00    +0.000 A 
ATOM      6  C   UNL     1      -4.908  11.749  19.012  0.00  0.00    +0.000 A 
ATOM      7  C   UNL     1      -6.142  11.837  19.840  0.00  0.00    +0.000 A 
ATOM      8  O   UNL     1      -7.216  11.459  19.369  0.00  0.00    +0.000 OA
ATOM      9  N   UNL     1      -5.981  12.347  21.117  0.00  0.00    +0.000 N 
ATOM     10  C   UNL     1      -7.089  12.462  21.948  0.00  0.00    +0.000 A 
ATOM     11  C   UNL     1      -6.990  12.951  23.191  0.00  0.00    +0.000 A 
ATOM     12  C   UNL     1      -5.708  13.363  23.697  0.00  0.00    +0.000 A 
ATOM     13  C   UNL     1      -4.613  13.264  22.932  0.00  0.00    +0.000 A 
ATOM     14  C   UNL     1      -4.721  12.731  21.545  0.00  0.00    +0.000 A 
ATOM     15  N   UNL     1      -3.651  12.657  20.819  0.00  0.00    +0.000 NA
ATOM     16  C   UNL     1      -3.746  12.166  19.541  0.00  0.00    +0.000 A 
ENDROOT
BRANCH   1  21
ATOM     17  C   UNL     1       2.521  13.620  21.029  0.00  0.00    +0.000 C 
ATOM     18  C   UNL     1       1.205  13.229  20.413  0.00  0.00    +0.000 A 
ATOM     19  C   UNL     1       0.685  11.951  20.662  0.00  0.00    +0.000 A 
ATOM     20  C   UNL     1      -0.537  11.557  20.113  0.00  0.00    +0.000 A 
ATOM     21  C   UNL     1      -1.283  12.442  19.329  0.00  0.00    +0.000 A 
ATOM     22  C   UNL     1      -0.763  13.718  19.073  0.00  0.00    +0.000 A 
ATOM     23  C   UNL     1       0.483  14.117  19.591  0.00  0.00    +0.000 A 
ATOM     24  C   UNL     1       1.022  15.477  19.246  0.00  0.00    +0.000 C 
ENDBRANCH   1  21
BRANCH   4  25
ATOM     25  C   UNL     1      -3.937  10.548  15.613  0.00  0.00    +0.000 C 
ATOM     26  N   UNL     1      -3.924  10.106  14.540  0.00  0.00    +0.000 NA
ENDBRANCH   4  25
TORSDOF 2
ENDMDL
MODEL 8
REMARK VINA RESULT:      -6.5      9.046     11.420
REMARK  Name = 
REMARK  4 active torsions:
REMARK  status: ('A' for Active; 'I' for Inactive)
REMARK    1  A    between atoms: C_1  and  C_2
REMARK    2  A    between atoms: C_5  and  N_6
REMARK    3  A    between atoms: C_9  and  C_10
REMARK    4  A    between atoms: C_25  and  C_26
REMARK                            x       y       z     vdW  Elec       q    Type
REMARK                         _______ _______ _______ _____ _____    ______ ____
ROOT
ATOM      1  N   UNL     1       7.123  14.376  21.793  0.00  0.00    +0.000 N 
ATOM      2  C   UNL     1       6.133  15.373  21.634  0.00  0.00    +0.000 A 
ATOM      3  O   UNL     1       5.246  15.623  22.452  0.00  0.00    +0.000 OA
ATOM      4  C   UNL     1       6.155  16.144  20.358  0.00  0.00    +0.000 A 
ATOM      5  C   UNL     1       7.098  15.880  19.446  0.00  0.00    +0.000 A 
ATOM      6  C   UNL     1       8.091  14.860  19.674  0.00  0.00    +0.000 A 
ATOM      7  C   UNL     1       9.157  14.619  18.663  0.00  0.00    +0.000 A 
ATOM      8  O   UNL     1       9.169  15.283  17.626  0.00  0.00    +0.000 OA
ATOM      9  N   UNL     1      10.085  13.642  18.981  0.00  0.00    +0.000 N 
ATOM     10  C   UNL     1      11.109  13.359  18.083  0.00  0.00    +0.000 A 
ATOM     11  C   UNL     1      12.031  12.423  18.340  0.00  0.00    +0.000 A 
ATOM     12  C   UNL     1      11.979  11.687  19.575  0.00  0.00    +0.000 A 
ATOM     13  C   UNL     1      11.013  11.931  20.470  0.00  0.00    +0.000 A 
ATOM     14  C   UNL     1       9.979  12.965  20.184  0.00  0.00    +0.000 A 
ATOM     15  N   UNL     1       9.047  13.175  21.058  0.00  0.00    +0.000 NA
ATOM     16  C   UNL     1       8.092  14.126  20.799  0.00  0.00    +0.000 A 
ENDROOT
BRANCH   1  21
ATOM     17  C   UNL     1       6.954  11.426  26.747  0.00  0.00    +0.000 C 
ATOM     18  C   UNL     1       7.036  12.205  25.463  0.00  0.00    +0.000 A 
ATOM     19  C   UNL     1       6.316  11.759  24.345  0.00  0.00    +0.000 A 
ATOM     20  C   UNL     1       6.362  12.461  23.138  0.00  0.00    +0.000 A 
ATOM     21  C   UNL     1       7.105  13.641  23.030  0.00  0.00    +0.000 A 
ATOM     22  C   UNL     1       7.831  14.085  24.143  0.00  0.00    +0.000 A 
ATOM     23  C   UNL     1       7.821  13.369  25.355  0.00  0.00    +0.000 A 
ATOM     24  C   UNL     1       8.657  13.858  26.505  0.00  0.00    +0.000 C 
ENDBRANCH   1  21
BRANCH   4  25
ATOM     25  C   UNL     1       5.168  17.138  20.122  0.00  0.00    +0.000 C 
ATOM     26  N   UNL     1       4.318  17.915  19.974  0.00  0.00    +0.000 NA
ENDBRANCH   4  25
TORSDOF 2
ENDMDL
MODEL 9
REMARK VINA RESULT:      -6.5      5.699      9.240
REMARK  Name = 
REMARK  4 active torsions:
REMARK  status: ('A' for Active; 'I' for Inactive)
REMARK    1  A    between atoms: C_1  and  C_2
REMARK    2  A    between atoms: C_5  and  N_6
REMARK    3  A    between atoms: C_9  and  C_10
REMARK    4  A    between atoms: C_25  and  C_26
REMARK                            x       y       z     vdW  Elec       q    Type
REMARK                         _______ _______ _______ _____ _____    ______ ____
ROOT
ATOM      1  N   UNL     1      -1.736  12.611  21.369  0.00  0.00    +0.000 N 
ATOM      2  C   UNL     1      -1.146  13.277  22.468  0.00  0.00    +0.000 A 
ATOM      3  O   UNL     1       0.022  13.136  22.834  0.00  0.00    +0.000 OA
ATOM      4  C   UNL     1      -2.028  14.185  23.255  0.00  0.00    +0.000 A 
ATOM      5  C   UNL     1      -3.305  14.342  22.888  0.00  0.00    +0.000 A 
ATOM      6  C   UNL     1      -3.845  13.646  21.748  0.00  0.00    +0.000 A 
ATOM      7  C   UNL     1      -5.256  13.875  21.333  0.00  0.00    +0.000 A 
ATOM      8  O   UNL     1      -5.961  14.647  21.985  0.00  0.00    +0.000 OA
ATOM      9  N   UNL     1      -5.678  13.187  20.208  0.00  0.00    +0.000 N 
ATOM     10  C   UNL     1      -6.985  13.349  19.762  0.00  0.00    +0.000 A 
ATOM     11  C   UNL     1      -7.445  12.706  18.681  0.00  0.00    +0.000 A 
ATOM     12  C   UNL     1      -6.573  11.828  17.947  0.00  0.00    +0.000 A 
ATOM     13  C   UNL     1      -5.306  11.647  18.338  0.00  0.00    +0.000 A 
ATOM     14  C   UNL     1      -4.793  12.353  19.546  0.00  0.00    +0.000 A 
ATOM     15  N   UNL     1      -3.567  12.152  19.913  0.00  0.00    +0.000 NA
ATOM     16  C   UNL     1      -3.090  12.800  21.025  0.00  0.00    +0.000 A 
ENDROOT
BRANCH   1  21
ATOM     17  C   UNL     1       1.640   9.139  18.235  0.00  0.00    +0.000 C 
ATOM     18  C   UNL     1       0.779  10.032  19.085  0.00  0.00    +0.000 A 
ATOM     19  C   UNL     1       0.368  11.273  18.577  0.00  0.00    +0.000 A 
ATOM     20  C   UNL     1      -0.438  12.125  19.335  0.00  0.00    +0.000 A 
ATOM     21  C   UNL     1      -0.879  11.742  20.606  0.00  0.00    +0.000 A 
ATOM     22  C   UNL     1      -0.465  10.505  21.119  0.00  0.00    +0.000 A 
ATOM     23  C   UNL     1       0.376   9.653  20.381  0.00  0.00    +0.000 A 
ATOM     24  C   UNL     1       0.836   8.360  20.995  0.00  0.00    +0.000 C 
ENDBRANCH   1  21
BRANCH   4  25
ATOM     25  C   UNL     1      -1.505  14.860  24.391  0.00  0.00    +0.000 C 
ATOM     26  N   UNL     1      -1.024  15.366  25.318  0.00  0.00    +0.000 NA
ENDBRANCH   4  25
TORSDOF 2
ENDMDL
