MODEL 1
REMARK VINA RESULT:      -7.3      0.000      0.000
REMARK  Name = 
REMARK  6 active torsions:
REMARK  status: ('A' for Active; 'I' for Inactive)
REMARK    1  A    between atoms: C_1  and  O_2
REMARK    2  A    between atoms: O_2  and  C_3
REMARK    3  A    between atoms: C_7  and  C_8
REMARK    4  A    between atoms: C_8  and  C_10
REMARK    5  A    between atoms: C_17  and  O_18
REMARK    6  A    between atoms: O_18  and  C_19
REMARK                            x       y       z     vdW  Elec       q    Type
REMARK                         _______ _______ _______ _____ _____    ______ ____
ROOT
ATOM      1  C   UNL     1       1.458   9.426  19.753  0.00  0.00    +0.000 C 
ATOM      2  C   UNL     1       0.683  10.419  20.226  0.00  0.00    +0.000 C 
ATOM      3  N   UNL     1      -0.288  10.347  21.192  0.00  0.00    +0.000 N 
ATOM      4  C   UNL     1      -0.910  11.535  21.747  0.00  0.00    +0.000 C 
ATOM      5  C   UNL     1      -1.232  12.572  20.629  0.00  0.00    +0.000 C 
ATOM      6  C   UNL     1      -2.643  12.378  20.056  0.00  0.00    +0.000 A 
ATOM      7  C   UNL     1      -3.788  12.846  20.720  0.00  0.00    +0.000 A 
ATOM      8  C   UNL     1      -5.063  12.620  20.183  0.00  0.00    +0.000 A 
ATOM      9  C   UNL     1      -5.199  11.809  19.056  0.00  0.00    +0.000 A 
ATOM     10  C   UNL     1      -4.074  11.401  18.350  0.00  0.00    +0.000 A 
ATOM     11  C   UNL     1      -2.813  11.798  18.784  0.00  0.00    +0.000 A 
ATOM     12  C   UNL     1      -1.646  11.777  17.829  0.00  0.00    +0.000 C 
ATOM     13  C   UNL     1      -0.711  12.932  18.230  0.00  0.00    +0.000 C 
ATOM     14  N   UNL     1      -0.195  12.631  19.558  0.00  0.00    +0.000 N 
ATOM     15  C   UNL     1       0.878  11.734  19.492  0.00  0.00    +0.000 C 
ATOM     16  O   UNL     1       1.835  11.913  18.738  0.00  0.00    +0.000 OA
ATOM     17  H   UNL     1      -0.446   9.430  21.613  0.00  0.00    +0.000 HD
ENDROOT
BRANCH   1  18
ATOM     18  C   UNL     1       1.481   8.048  20.300  0.00  0.00    +0.000 C 
ATOM     19  O   UNL     1       0.891   7.743  21.332  0.00  0.00    +0.000 OA
BRANCH  18  24
ATOM     20  C   UNL     1       2.999   4.742  19.155  0.00  0.00    +0.000 A 
ATOM     21  C   UNL     1       3.682   5.165  18.014  0.00  0.00    +0.000 A 
ATOM     22  C   UNL     1       3.632   6.500  17.610  0.00  0.00    +0.000 A 
ATOM     23  C   UNL     1       2.910   7.430  18.359  0.00  0.00    +0.000 A 
ATOM     24  C   UNL     1       2.233   7.022  19.514  0.00  0.00    +0.000 A 
ATOM     25  C   UNL     1       2.262   5.668  19.894  0.00  0.00    +0.000 A 
BRANCH  20  27
ATOM     26  C   UNL     1       4.446   2.915  19.651  0.00  0.00    +0.000 C 
ATOM     27  O   UNL     1       3.128   3.410  19.441  0.00  0.00    +0.000 OA
ENDBRANCH  20  27
ENDBRANCH  18  24
ENDBRANCH   1  18
BRANCH   8  28
ATOM     28  O   UNL     1      -6.100  13.251  20.819  0.00  0.00    +0.000 OA
ATOM     29  C   UNL     1      -7.252  12.448  21.075  0.00  0.00    +0.000 C 
ENDBRANCH   8  28
TORSDOF 4
ENDMDL
MODEL 2
REMARK VINA RESULT:      -7.2      2.754      4.598
REMARK  Name = 
REMARK  6 active torsions:
REMARK  status: ('A' for Active; 'I' for Inactive)
REMARK    1  A    between atoms: C_1  and  O_2
REMARK    2  A    between atoms: O_2  and  C_3
REMARK    3  A    between atoms: C_7  and  C_8
REMARK    4  A    between atoms: C_8  and  C_10
REMARK    5  A    between atoms: C_17  and  O_18
REMARK    6  A    between atoms: O_18  and  C_19
REMARK                            x       y       z     vdW  Elec       q    Type
REMARK                         _______ _______ _______ _____ _____    ______ ____
ROOT
ATOM      1  C   UNL     1       1.137   9.735  19.593  0.00  0.00    +0.000 C 
ATOM      2  C   UNL     1       0.363  10.824  19.433  0.00  0.00    +0.000 C 
ATOM      3  N   UNL     1       0.113  11.520  18.277  0.00  0.00    +0.000 N 
ATOM      4  C   UNL     1      -0.900  12.558  18.210  0.00  0.00    +0.000 C 
ATOM      5  C   UNL     1      -0.857  13.465  19.476  0.00  0.00    +0.000 C 
ATOM      6  C   UNL     1       0.070  14.674  19.285  0.00  0.00    +0.000 A 
ATOM      7  C   UNL     1      -0.330  15.814  18.570  0.00  0.00    +0.000 A 
ATOM      8  C   UNL     1       0.556  16.884  18.387  0.00  0.00    +0.000 A 
ATOM      9  C   UNL     1       1.883  16.756  18.799  0.00  0.00    +0.000 A 
ATOM     10  C   UNL     1       2.271  15.667  19.570  0.00  0.00    +0.000 A 
ATOM     11  C   UNL     1       1.329  14.701  19.914  0.00  0.00    +0.000 A 
ATOM     12  C   UNL     1       1.580  13.789  21.088  0.00  0.00    +0.000 C 
ATOM     13  C   UNL     1       0.211  13.471  21.715  0.00  0.00    +0.000 C 
ATOM     14  N   UNL     1      -0.552  12.717  20.731  0.00  0.00    +0.000 N 
ATOM     15  C   UNL     1      -0.191  11.365  20.739  0.00  0.00    +0.000 C 
ATOM     16  O   UNL     1      -0.145  10.705  21.777  0.00  0.00    +0.000 OA
ATOM     17  H   UNL     1       0.562  11.173  17.429  0.00  0.00    +0.000 HD
ENDROOT
BRANCH   1  18
ATOM     18  C   UNL     1       1.786   8.997  18.484  0.00  0.00    +0.000 C 
ATOM     19  O   UNL     1       1.907   9.476  17.360  0.00  0.00    +0.000 OA
BRANCH  18  24
ATOM     20  C   UNL     1       3.691   5.700  18.258  0.00  0.00    +0.000 A 
ATOM     21  C   UNL     1       3.279   5.094  19.445  0.00  0.00    +0.000 A 
ATOM     22  C   UNL     1       2.412   5.755  20.317  0.00  0.00    +0.000 A 
ATOM     23  C   UNL     1       1.935   7.027  19.996  0.00  0.00    +0.000 A 
ATOM     24  C   UNL     1       2.328   7.640  18.801  0.00  0.00    +0.000 A 
ATOM     25  C   UNL     1       3.229   6.979  17.945  0.00  0.00    +0.000 A 
BRANCH  20  27
ATOM     26  C   UNL     1       5.752   4.514  18.103  0.00  0.00    +0.000 C 
ATOM     27  O   UNL     1       4.541   4.948  17.493  0.00  0.00    +0.000 OA
ENDBRANCH  20  27
ENDBRANCH  18  24
ENDBRANCH   1  18
BRANCH   8  28
ATOM     28  O   UNL     1       0.022  18.011  17.817  0.00  0.00    +0.000 OA
ATOM     29  C   UNL     1       0.814  18.628  16.802  0.00  0.00    +0.000 C 
ENDBRANCH   8  28
TORSDOF 4
ENDMDL
MODEL 3
REMARK VINA RESULT:      -7.1      2.778      4.352
REMARK  Name = 
REMARK  6 active torsions:
REMARK  status: ('A' for Active; 'I' for Inactive)
REMARK    1  A    between atoms: C_1  and  O_2
REMARK    2  A    between atoms: O_2  and  C_3
REMARK    3  A    between atoms: C_7  and  C_8
REMARK    4  A    between atoms: C_8  and  C_10
REMARK    5  A    between atoms: C_17  and  O_18
REMARK    6  A    between atoms: O_18  and  C_19
REMARK                            x       y       z     vdW  Elec       q    Type
REMARK                         _______ _______ _______ _____ _____    ______ ____
ROOT
ATOM      1  C   UNL     1       1.367   9.818  19.534  0.00  0.00    +0.000 C 
ATOM      2  C   UNL     1       0.552  10.886  19.465  0.00  0.00    +0.000 C 
ATOM      3  N   UNL     1       0.117  11.546  18.343  0.00  0.00    +0.000 N 
ATOM      4  C   UNL     1      -0.919  12.561  18.403  0.00  0.00    +0.000 C 
ATOM      5  C   UNL     1      -0.710  13.502  19.628  0.00  0.00    +0.000 C 
ATOM      6  C   UNL     1       0.149  14.725  19.273  0.00  0.00    +0.000 A 
ATOM      7  C   UNL     1      -0.379  15.836  18.599  0.00  0.00    +0.000 A 
ATOM      8  C   UNL     1       0.445  16.920  18.261  0.00  0.00    +0.000 A 
ATOM      9  C   UNL     1       1.820  16.829  18.475  0.00  0.00    +0.000 A 
ATOM     10  C   UNL     1       2.344  15.769  19.204  0.00  0.00    +0.000 A 
ATOM     11  C   UNL     1       1.487  14.794  19.707  0.00  0.00    +0.000 A 
ATOM     12  C   UNL     1       1.930  13.918  20.852  0.00  0.00    +0.000 C 
ATOM     13  C   UNL     1       0.677  13.589  21.682  0.00  0.00    +0.000 C 
ATOM     14  N   UNL     1      -0.206  12.795  20.840  0.00  0.00    +0.000 N 
ATOM     15  C   UNL     1       0.185  11.450  20.826  0.00  0.00    +0.000 C 
ATOM     16  O   UNL     1       0.399  10.819  21.861  0.00  0.00    +0.000 OA
ATOM     17  H   UNL     1       0.444  11.186  17.446  0.00  0.00    +0.000 HD
ENDROOT
BRANCH   1  18
ATOM     18  C   UNL     1       1.862   9.063  18.358  0.00  0.00    +0.000 C 
ATOM     19  O   UNL     1       1.801   9.514  17.217  0.00  0.00    +0.000 OA
BRANCH  18  24
ATOM     20  C   UNL     1       2.688   5.690  19.935  0.00  0.00    +0.000 A 
ATOM     21  C   UNL     1       3.698   5.256  19.075  0.00  0.00    +0.000 A 
ATOM     22  C   UNL     1       4.089   6.037  17.985  0.00  0.00    +0.000 A 
ATOM     23  C   UNL     1       3.482   7.273  17.759  0.00  0.00    +0.000 A 
ATOM     24  C   UNL     1       2.480   7.728  18.623  0.00  0.00    +0.000 A 
ATOM     25  C   UNL     1       2.069   6.918  19.698  0.00  0.00    +0.000 A 
BRANCH  20  27
ATOM     26  C   UNL     1       1.297   3.949  20.777  0.00  0.00    +0.000 C 
ATOM     27  O   UNL     1       2.399   4.833  20.961  0.00  0.00    +0.000 OA
ENDBRANCH  20  27
ENDBRANCH  18  24
ENDBRANCH   1  18
BRANCH   8  28
ATOM     28  O   UNL     1      -0.194  18.020  17.751  0.00  0.00    +0.000 OA
ATOM     29  C   UNL     1      -1.505  18.267  18.258  0.00  0.00    +0.000 C 
ENDBRANCH   8  28
TORSDOF 4
ENDMDL
MODEL 4
REMARK VINA RESULT:      -7.1      2.820      4.218
REMARK  Name = 
REMARK  6 active torsions:
REMARK  status: ('A' for Active; 'I' for Inactive)
REMARK    1  A    between atoms: C_1  and  O_2
REMARK    2  A    between atoms: O_2  and  C_3
REMARK    3  A    between atoms: C_7  and  C_8
REMARK    4  A    between atoms: C_8  and  C_10
REMARK    5  A    between atoms: C_17  and  O_18
REMARK    6  A    between atoms: O_18  and  C_19
REMARK                            x       y       z     vdW  Elec       q    Type
REMARK                         _______ _______ _______ _____ _____    ______ ____
ROOT
ATOM      1  C   UNL     1       1.774   8.302  19.207  0.00  0.00    +0.000 C 
ATOM      2  C   UNL     1       0.840   9.266  19.111  0.00  0.00    +0.000 C 
ATOM      3  N   UNL     1       0.531  10.037  18.019  0.00  0.00    +0.000 N 
ATOM      4  C   UNL     1      -0.634  10.903  17.996  0.00  0.00    +0.000 C 
ATOM      5  C   UNL     1      -0.795  11.660  19.348  0.00  0.00    +0.000 C 
ATOM      6  C   UNL     1      -0.071  13.015  19.339  0.00  0.00    +0.000 A 
ATOM      7  C   UNL     1      -0.619  14.148  18.720  0.00  0.00    +0.000 A 
ATOM      8  C   UNL     1       0.087  15.359  18.701  0.00  0.00    +0.000 A 
ATOM      9  C   UNL     1       1.397  15.397  19.179  0.00  0.00    +0.000 A 
ATOM     10  C   UNL     1       1.924  14.304  19.857  0.00  0.00    +0.000 A 
ATOM     11  C   UNL     1       1.138  13.170  20.043  0.00  0.00    +0.000 A 
ATOM     12  C   UNL     1       1.482  12.185  21.132  0.00  0.00    +0.000 C 
ATOM     13  C   UNL     1       0.157  11.588  21.638  0.00  0.00    +0.000 C 
ATOM     14  N   UNL     1      -0.428  10.837  20.537  0.00  0.00    +0.000 N 
ATOM     15  C   UNL     1       0.148   9.565  20.429  0.00  0.00    +0.000 C 
ATOM     16  O   UNL     1       0.255   8.811  21.396  0.00  0.00    +0.000 OA
ATOM     17  H   UNL     1       1.068   9.861  17.169  0.00  0.00    +0.000 HD
ENDROOT
BRANCH   1  18
ATOM     18  C   UNL     1       2.583   7.802  18.070  0.00  0.00    +0.000 C 
ATOM     19  O   UNL     1       2.890   8.517  17.120  0.00  0.00    +0.000 OA
BRANCH  18  24
ATOM     20  C   UNL     1       4.793   4.717  18.451  0.00  0.00    +0.000 A 
ATOM     21  C   UNL     1       3.850   3.710  18.241  0.00  0.00    +0.000 A 
ATOM     22  C   UNL     1       2.512   4.027  18.001  0.00  0.00    +0.000 A 
ATOM     23  C   UNL     1       2.110   5.363  17.951  0.00  0.00    +0.000 A 
ATOM     24  C   UNL     1       3.048   6.383  18.144  0.00  0.00    +0.000 A 
ATOM     25  C   UNL     1       4.387   6.052  18.419  0.00  0.00    +0.000 A 
BRANCH  20  27
ATOM     26  C   UNL     1       7.074   4.699  17.763  0.00  0.00    +0.000 C 
ATOM     27  O   UNL     1       6.068   4.273  18.677  0.00  0.00    +0.000 OA
ENDBRANCH  20  27
ENDBRANCH  18  24
ENDBRANCH   1  18
BRANCH   8  28
ATOM     28  O   UNL     1      -0.598  16.443  18.218  0.00  0.00    +0.000 OA
ATOM     29  C   UNL     1       0.192  17.596  17.927  0.00  0.00    +0.000 C 
ENDBRANCH   8  28
TORSDOF 4
ENDMDL
MODEL 5
REMARK VINA RESULT:      -7.0      2.796      4.161
REMARK  Name = 
REMARK  6 active torsions:
REMARK  status: ('A' for Active; 'I' for Inactive)
REMARK    1  A    between atoms: C_1  and  O_2
REMARK    2  A    between atoms: O_2  and  C_3
REMARK    3  A    between atoms: C_7  and  C_8
REMARK    4  A    between atoms: C_8  and  C_10
REMARK    5  A    between atoms: C_17  and  O_18
REMARK    6  A    between atoms: O_18  and  C_19
REMARK                            x       y       z     vdW  Elec       q    Type
REMARK                         _______ _______ _______ _____ _____    ______ ____
ROOT
ATOM      1  C   UNL     1       1.779   8.319  19.198  0.00  0.00    +0.000 C 
ATOM      2  C   UNL     1       0.844   9.284  19.114  0.00  0.00    +0.000 C 
ATOM      3  N   UNL     1       0.517  10.050  18.024  0.00  0.00    +0.000 N 
ATOM      4  C   UNL     1      -0.647  10.917  18.017  0.00  0.00    +0.000 C 
ATOM      5  C   UNL     1      -0.785  11.680  19.368  0.00  0.00    +0.000 C 
ATOM      6  C   UNL     1      -0.059  13.034  19.340  0.00  0.00    +0.000 A 
ATOM      7  C   UNL     1      -0.618  14.165  18.726  0.00  0.00    +0.000 A 
ATOM      8  C   UNL     1       0.090  15.375  18.690  0.00  0.00    +0.000 A 
ATOM      9  C   UNL     1       1.408  15.414  19.145  0.00  0.00    +0.000 A 
ATOM     10  C   UNL     1       1.945  14.324  19.819  0.00  0.00    +0.000 A 
ATOM     11  C   UNL     1       1.162  13.192  20.022  0.00  0.00    +0.000 A 
ATOM     12  C   UNL     1       1.524  12.211  21.110  0.00  0.00    +0.000 C 
ATOM     13  C   UNL     1       0.207  11.617  21.641  0.00  0.00    +0.000 C 
ATOM     14  N   UNL     1      -0.398  10.862  20.554  0.00  0.00    +0.000 N 
ATOM     15  C   UNL     1       0.175   9.589  20.442  0.00  0.00    +0.000 C 
ATOM     16  O   UNL     1       0.298   8.839  21.410  0.00  0.00    +0.000 OA
ATOM     17  H   UNL     1       1.039   9.870  17.165  0.00  0.00    +0.000 HD
ENDROOT
BRANCH   1  18
ATOM     18  C   UNL     1       2.568   7.813  18.049  0.00  0.00    +0.000 C 
ATOM     19  O   UNL     1       2.921   8.541  17.126  0.00  0.00    +0.000 OA
BRANCH  18  24
ATOM     20  C   UNL     1       2.395   4.004  17.967  0.00  0.00    +0.000 A 
ATOM     21  C   UNL     1       3.739   3.691  18.170  0.00  0.00    +0.000 A 
ATOM     22  C   UNL     1       4.692   4.702  18.309  0.00  0.00    +0.000 A 
ATOM     23  C   UNL     1       4.300   6.040  18.265  0.00  0.00    +0.000 A 
ATOM     24  C   UNL     1       2.953   6.369  18.078  0.00  0.00    +0.000 A 
ATOM     25  C   UNL     1       2.006   5.343  17.905  0.00  0.00    +0.000 A 
BRANCH  20  27
ATOM     26  C   UNL     1       0.857   2.513  19.011  0.00  0.00    +0.000 C 
ATOM     27  O   UNL     1       1.564   2.923  17.845  0.00  0.00    +0.000 OA
ENDBRANCH  20  27
ENDBRANCH  18  24
ENDBRANCH   1  18
BRANCH   8  28
ATOM     28  O   UNL     1      -0.602  16.458  18.213  0.00  0.00    +0.000 OA
ATOM     29  C   UNL     1       0.147  17.666  18.084  0.00  0.00    +0.000 C 
ENDBRANCH   8  28
TORSDOF 4
ENDMDL
MODEL 6
REMARK VINA RESULT:      -7.0      0.933      1.535
REMARK  Name = 
REMARK  6 active torsions:
REMARK  status: ('A' for Active; 'I' for Inactive)
REMARK    1  A    between atoms: C_1  and  O_2
REMARK    2  A    between atoms: O_2  and  C_3
REMARK    3  A    between atoms: C_7  and  C_8
REMARK    4  A    between atoms: C_8  and  C_10
REMARK    5  A    between atoms: C_17  and  O_18
REMARK    6  A    between atoms: O_18  and  C_19
REMARK                            x       y       z     vdW  Elec       q    Type
REMARK                         _______ _______ _______ _____ _____    ______ ____
ROOT
ATOM      1  C   UNL     1       1.430   9.392  19.790  0.00  0.00    +0.000 C 
ATOM      2  C   UNL     1       0.685  10.427  20.221  0.00  0.00    +0.000 C 
ATOM      3  N   UNL     1      -0.270  10.427  21.206  0.00  0.00    +0.000 N 
ATOM      4  C   UNL     1      -0.856  11.657  21.706  0.00  0.00    +0.000 C 
ATOM      5  C   UNL     1      -1.175  12.640  20.540  0.00  0.00    +0.000 C 
ATOM      6  C   UNL     1      -2.600  12.449  20.001  0.00  0.00    +0.000 A 
ATOM      7  C   UNL     1      -3.722  12.976  20.657  0.00  0.00    +0.000 A 
ATOM      8  C   UNL     1      -5.011  12.751  20.154  0.00  0.00    +0.000 A 
ATOM      9  C   UNL     1      -5.185  11.885  19.074  0.00  0.00    +0.000 A 
ATOM     10  C   UNL     1      -4.081  11.415  18.372  0.00  0.00    +0.000 A 
ATOM     11  C   UNL     1      -2.804  11.806  18.765  0.00  0.00    +0.000 A 
ATOM     12  C   UNL     1      -1.655  11.709  17.793  0.00  0.00    +0.000 C 
ATOM     13  C   UNL     1      -0.688  12.861  18.117  0.00  0.00    +0.000 C 
ATOM     14  N   UNL     1      -0.156  12.619  19.450  0.00  0.00    +0.000 N 
ATOM     15  C   UNL     1       0.896  11.696  19.415  0.00  0.00    +0.000 C 
ATOM     16  O   UNL     1       1.844  11.813  18.638  0.00  0.00    +0.000 OA
ATOM     17  H   UNL     1      -0.440   9.538  21.677  0.00  0.00    +0.000 HD
ENDROOT
BRANCH   1  18
ATOM     18  C   UNL     1       1.433   8.045  20.408  0.00  0.00    +0.000 C 
ATOM     19  O   UNL     1       0.829   7.801  21.450  0.00  0.00    +0.000 OA
BRANCH  18  24
ATOM     20  C   UNL     1       3.628   6.215  17.882  0.00  0.00    +0.000 A 
ATOM     21  C   UNL     1       3.530   4.911  18.369  0.00  0.00    +0.000 A 
ATOM     22  C   UNL     1       2.781   4.633  19.514  0.00  0.00    +0.000 A 
ATOM     23  C   UNL     1       2.105   5.662  20.172  0.00  0.00    +0.000 A 
ATOM     24  C   UNL     1       2.181   6.971  19.686  0.00  0.00    +0.000 A 
ATOM     25  C   UNL     1       2.967   7.246  18.551  0.00  0.00    +0.000 A 
BRANCH  20  27
ATOM     26  C   UNL     1       5.738   6.784  16.934  0.00  0.00    +0.000 C 
ATOM     27  O   UNL     1       4.392   6.353  16.756  0.00  0.00    +0.000 OA
ENDBRANCH  20  27
ENDBRANCH  18  24
ENDBRANCH   1  18
BRANCH   8  28
ATOM     28  O   UNL     1      -6.023  13.439  20.772  0.00  0.00    +0.000 OA
ATOM     29  C   UNL     1      -7.081  12.641  21.303  0.00  0.00    +0.000 C 
ENDBRANCH   8  28
TORSDOF 4
ENDMDL
MODEL 7
REMARK VINA RESULT:      -7.0      2.657      4.161
REMARK  Name = 
REMARK  6 active torsions:
REMARK  status: ('A' for Active; 'I' for Inactive)
REMARK    1  A    between atoms: C_1  and  O_2
REMARK    2  A    between atoms: O_2  and  C_3
REMARK    3  A    between atoms: C_7  and  C_8
REMARK    4  A    between atoms: C_8  and  C_10
REMARK    5  A    between atoms: C_17  and  O_18
REMARK    6  A    between atoms: O_18  and  C_19
REMARK                            x       y       z     vdW  Elec       q    Type
REMARK                         _______ _______ _______ _____ _____    ______ ____
ROOT
ATOM      1  C   UNL     1       1.427   8.858  19.439  0.00  0.00    +0.000 C 
ATOM      2  C   UNL     1       0.547   9.867  19.307  0.00  0.00    +0.000 C 
ATOM      3  N   UNL     1       0.263  10.599  18.182  0.00  0.00    +0.000 N 
ATOM      4  C   UNL     1      -0.853  11.526  18.131  0.00  0.00    +0.000 C 
ATOM      5  C   UNL     1      -0.950  12.357  19.446  0.00  0.00    +0.000 C 
ATOM      6  C   UNL     1      -0.153  13.667  19.358  0.00  0.00    +0.000 A 
ATOM      7  C   UNL     1      -0.648  14.797  18.691  0.00  0.00    +0.000 A 
ATOM      8  C   UNL     1       0.123  15.965  18.602  0.00  0.00    +0.000 A 
ATOM      9  C   UNL     1       1.441  15.953  19.060  0.00  0.00    +0.000 A 
ATOM     10  C   UNL     1       1.918  14.868  19.784  0.00  0.00    +0.000 A 
ATOM     11  C   UNL     1       1.074  13.790  20.037  0.00  0.00    +0.000 A 
ATOM     12  C   UNL     1       1.381  12.842  21.170  0.00  0.00    +0.000 C 
ATOM     13  C   UNL     1       0.034  12.345  21.723  0.00  0.00    +0.000 C 
ATOM     14  N   UNL     1      -0.610  11.574  20.669  0.00  0.00    +0.000 N 
ATOM     15  C   UNL     1      -0.106  10.269  20.618  0.00  0.00    +0.000 C 
ATOM     16  O   UNL     1      -0.026   9.558  21.620  0.00  0.00    +0.000 OA
ATOM     17  H   UNL     1       0.776  10.351  17.335  0.00  0.00    +0.000 HD
ENDROOT
BRANCH   1  18
ATOM     18  C   UNL     1       2.190   8.258  18.318  0.00  0.00    +0.000 C 
ATOM     19  O   UNL     1       2.369   8.849  17.257  0.00  0.00    +0.000 OA
BRANCH  18  24
ATOM     20  C   UNL     1       2.941   4.833  19.818  0.00  0.00    +0.000 A 
ATOM     21  C   UNL     1       3.918   4.382  18.928  0.00  0.00    +0.000 A 
ATOM     22  C   UNL     1       4.310   5.170  17.845  0.00  0.00    +0.000 A 
ATOM     23  C   UNL     1       3.739   6.428  17.654  0.00  0.00    +0.000 A 
ATOM     24  C   UNL     1       2.770   6.899  18.547  0.00  0.00    +0.000 A 
ATOM     25  C   UNL     1       2.357   6.084  19.616  0.00  0.00    +0.000 A 
BRANCH  20  27
ATOM     26  C   UNL     1       1.308   3.485  20.910  0.00  0.00    +0.000 C 
ATOM     27  O   UNL     1       2.646   3.967  20.835  0.00  0.00    +0.000 OA
ENDBRANCH  20  27
ENDBRANCH  18  24
ENDBRANCH   1  18
BRANCH   8  28
ATOM     28  O   UNL     1      -0.508  17.060  18.074  0.00  0.00    +0.000 OA
ATOM     29  C   UNL     1       0.346  18.103  17.606  0.00  0.00    +0.000 C 
ENDBRANCH   8  28
TORSDOF 4
ENDMDL
MODEL 8
REMARK VINA RESULT:      -6.9      3.152      5.098
REMARK  Name = 
REMARK  6 active torsions:
REMARK  status: ('A' for Active; 'I' for Inactive)
REMARK    1  A    between atoms: C_1  and  O_2
REMARK    2  A    between atoms: O_2  and  C_3
REMARK    3  A    between atoms: C_7  and  C_8
REMARK    4  A    between atoms: C_8  and  C_10
REMARK    5  A    between atoms: C_17  and  O_18
REMARK    6  A    between atoms: O_18  and  C_19
REMARK                            x       y       z     vdW  Elec       q    Type
REMARK                         _______ _______ _______ _____ _____    ______ ____
ROOT
ATOM      1  C   UNL     1       1.289  10.037  19.709  0.00  0.00    +0.000 C 
ATOM      2  C   UNL     1       0.744  11.252  19.511  0.00  0.00    +0.000 C 
ATOM      3  N   UNL     1       0.540  11.901  18.320  0.00  0.00    +0.000 N 
ATOM      4  C   UNL     1      -0.240  13.123  18.236  0.00  0.00    +0.000 C 
ATOM      5  C   UNL     1       0.102  14.087  19.411  0.00  0.00    +0.000 C 
ATOM      6  C   UNL     1       1.236  15.056  19.048  0.00  0.00    +0.000 A 
ATOM      7  C   UNL     1       1.017  16.201  18.267  0.00  0.00    +0.000 A 
ATOM      8  C   UNL     1       2.084  17.044  17.926  0.00  0.00    +0.000 A 
ATOM      9  C   UNL     1       3.387  16.667  18.250  0.00  0.00    +0.000 A 
ATOM     10  C   UNL     1       3.611  15.577  19.083  0.00  0.00    +0.000 A 
ATOM     11  C   UNL     1       2.526  14.860  19.578  0.00  0.00    +0.000 A 
ATOM     12  C   UNL     1       2.688  14.001  20.806  0.00  0.00    +0.000 C 
ATOM     13  C   UNL     1       1.345  14.025  21.557  0.00  0.00    +0.000 C 
ATOM     14  N   UNL     1       0.358  13.383  20.701  0.00  0.00    +0.000 N 
ATOM     15  C   UNL     1       0.432  11.988  20.801  0.00  0.00    +0.000 C 
ATOM     16  O   UNL     1       0.435  11.409  21.887  0.00  0.00    +0.000 OA
ATOM     17  H   UNL     1       0.830  11.408  17.475  0.00  0.00    +0.000 HD
ENDROOT
BRANCH   1  18
ATOM     18  C   UNL     1       1.671   9.102  18.624  0.00  0.00    +0.000 C 
ATOM     19  O   UNL     1       1.615   9.416  17.438  0.00  0.00    +0.000 OA
BRANCH  18  24
ATOM     20  C   UNL     1       3.580   5.801  18.710  0.00  0.00    +0.000 A 
ATOM     21  C   UNL     1       3.028   5.226  19.855  0.00  0.00    +0.000 A 
ATOM     22  C   UNL     1       2.067   5.910  20.602  0.00  0.00    +0.000 A 
ATOM     23  C   UNL     1       1.635   7.172  20.194  0.00  0.00    +0.000 A 
ATOM     24  C   UNL     1       2.167   7.754  19.038  0.00  0.00    +0.000 A 
ATOM     25  C   UNL     1       3.161   7.071  18.312  0.00  0.00    +0.000 A 
BRANCH  20  27
ATOM     26  C   UNL     1       4.117   4.415  16.848  0.00  0.00    +0.000 C 
ATOM     27  O   UNL     1       4.512   5.029  18.070  0.00  0.00    +0.000 OA
ENDBRANCH  20  27
ENDBRANCH  18  24
ENDBRANCH   1  18
BRANCH   8  28
ATOM     28  O   UNL     1       1.744  18.215  17.300  0.00  0.00    +0.000 OA
ATOM     29  C   UNL     1       0.360  18.372  16.986  0.00  0.00    +0.000 C 
ENDBRANCH   8  28
TORSDOF 4
ENDMDL
MODEL 9
REMARK VINA RESULT:      -6.9      3.121      5.063
REMARK  Name = 
REMARK  6 active torsions:
REMARK  status: ('A' for Active; 'I' for Inactive)
REMARK    1  A    between atoms: C_1  and  O_2
REMARK    2  A    between atoms: O_2  and  C_3
REMARK    3  A    between atoms: C_7  and  C_8
REMARK    4  A    between atoms: C_8  and  C_10
REMARK    5  A    between atoms: C_17  and  O_18
REMARK    6  A    between atoms: O_18  and  C_19
REMARK                            x       y       z     vdW  Elec       q    Type
REMARK                         _______ _______ _______ _____ _____    ______ ____
ROOT
ATOM      1  C   UNL     1       1.112  10.166  19.500  0.00  0.00    +0.000 C 
ATOM      2  C   UNL     1       0.649  11.428  19.447  0.00  0.00    +0.000 C 
ATOM      3  N   UNL     1       0.250  12.136  18.341  0.00  0.00    +0.000 N 
ATOM      4  C   UNL     1      -0.416  13.421  18.452  0.00  0.00    +0.000 C 
ATOM      5  C   UNL     1       0.259  14.310  19.539  0.00  0.00    +0.000 C 
ATOM      6  C   UNL     1       1.370  15.192  18.953  0.00  0.00    +0.000 A 
ATOM      7  C   UNL     1       1.090  16.379  18.259  0.00  0.00    +0.000 A 
ATOM      8  C   UNL     1       2.129  17.141  17.706  0.00  0.00    +0.000 A 
ATOM      9  C   UNL     1       3.433  16.644  17.730  0.00  0.00    +0.000 A 
ATOM     10  C   UNL     1       3.733  15.510  18.475  0.00  0.00    +0.000 A 
ATOM     11  C   UNL     1       2.720  14.869  19.183  0.00  0.00    +0.000 A 
ATOM     12  C   UNL     1       3.068  13.955  20.332  0.00  0.00    +0.000 C 
ATOM     13  C   UNL     1       1.927  14.065  21.359  0.00  0.00    +0.000 C 
ATOM     14  N   UNL     1       0.724  13.540  20.730  0.00  0.00    +0.000 N 
ATOM     15  C   UNL     1       0.692  12.141  20.787  0.00  0.00    +0.000 C 
ATOM     16  O   UNL     1       0.878  11.524  21.836  0.00  0.00    +0.000 OA
ATOM     17  H   UNL     1       0.305  11.651  17.445  0.00  0.00    +0.000 HD
ENDROOT
BRANCH   1  18
ATOM     18  C   UNL     1       1.163   9.242  18.342  0.00  0.00    +0.000 C 
ATOM     19  O   UNL     1       0.477   9.411  17.338  0.00  0.00    +0.000 OA
BRANCH  18  24
ATOM     20  C   UNL     1       2.943   6.073  19.499  0.00  0.00    +0.000 A 
ATOM     21  C   UNL     1       3.969   6.007  18.555  0.00  0.00    +0.000 A 
ATOM     22  C   UNL     1       4.068   6.966  17.545  0.00  0.00    +0.000 A 
ATOM     23  C   UNL     1       3.147   8.012  17.483  0.00  0.00    +0.000 A 
ATOM     24  C   UNL     1       2.123   8.099  18.432  0.00  0.00    +0.000 A 
ATOM     25  C   UNL     1       2.012   7.110  19.426  0.00  0.00    +0.000 A 
BRANCH  20  27
ATOM     26  C   UNL     1       3.324   3.773  19.988  0.00  0.00    +0.000 C 
ATOM     27  O   UNL     1       2.957   5.074  20.434  0.00  0.00    +0.000 OA
ENDBRANCH  20  27
ENDBRANCH  18  24
ENDBRANCH   1  18
BRANCH   8  28
ATOM     28  O   UNL     1       1.769  18.359  17.191  0.00  0.00    +0.000 OA
ATOM     29  C   UNL     1       0.366  18.618  17.132  0.00  0.00    +0.000 C 
ENDBRANCH   8  28
TORSDOF 4
ENDMDL
