MODEL 1
REMARK VINA RESULT:      -8.0      0.000      0.000
REMARK  Name = 
REMARK  8 active torsions:
REMARK  status: ('A' for Active; 'I' for Inactive)
REMARK    1  A    between atoms: N_1  and  S_2
REMARK    2  A    between atoms: S_2  and  C_5
REMARK    3  A    between atoms: C_9  and  N_10
REMARK    4  A    between atoms: C_11  and  C_13
REMARK    5  A    between atoms: C_13  and  S_14
REMARK    6  A    between atoms: S_14  and  C_15
REMARK    7  A    between atoms: C_18  and  C_19
REMARK    8  A    between atoms: N_22  and  C_23
REMARK                            x       y       z     vdW  Elec       q    Type
REMARK                         _______ _______ _______ _____ _____    ______ ____
ROOT
ATOM      1  N   UNL     1       2.678   6.211  20.225  0.00  0.00    +0.000 N 
ATOM      2  C   UNL     1       2.044   7.438  20.141  0.00  0.00    +0.000 C 
ATOM      3  O   UNL     1       1.975   8.155  19.142  0.00  0.00    +0.000 OA
ATOM      4  H   UNL     1       2.442   5.635  21.032  0.00  0.00    +0.000 HD
ENDROOT
BRANCH   1   9
ATOM      5  C   UNL     1       5.677   5.208  18.322  0.00  0.00    +0.000 A 
ATOM      6  C   UNL     1       5.137   4.428  17.297  0.00  0.00    +0.000 A 
ATOM      7  C   UNL     1       3.759   4.244  17.235  0.00  0.00    +0.000 A 
ATOM      8  C   UNL     1       2.929   4.827  18.192  0.00  0.00    +0.000 A 
ATOM      9  C   UNL     1       3.466   5.595  19.233  0.00  0.00    +0.000 A 
ATOM     10  C   UNL     1       4.849   5.797  19.286  0.00  0.00    +0.000 A 
BRANCH   5  11
ATOM     11  S   UNL     1       7.415   5.491  18.374  0.00  0.00    +0.000 S 
ATOM     12  O   UNL     1       7.687   6.820  17.880  0.00  0.00    +0.000 OA
ATOM     13  O   UNL     1       8.110   4.323  17.879  0.00  0.00    +0.000 OA
BRANCH  11  14
ATOM     14  N   UNL     1       7.741   5.523  20.023  0.00  0.00    +0.000 NA
ATOM     15  H   UNL     1       7.161   4.826  20.494  0.00  0.00    +0.000 HD
ATOM     16  H   UNL     1       7.609   6.471  20.380  0.00  0.00    +0.000 HD
ENDBRANCH  11  14
ENDBRANCH   5  11
ENDBRANCH   1   9
BRANCH   2  17
ATOM     17  C   UNL     1       1.380   7.857  21.443  0.00  0.00    +0.000 C 
BRANCH  17  18
ATOM     18  S   UNL     1      -0.227   8.638  21.147  0.00  0.00    +0.000 S 
BRANCH  18  19
ATOM     19  C   UNL     1       0.176  10.326  21.048  0.00  0.00    +0.000 A 
ATOM     20  N   UNL     1       1.111  10.882  21.787  0.00  0.00    +0.000 NA
ATOM     21  N   UNL     1       1.333  12.143  21.303  0.00  0.00    +0.000 NA
ATOM     22  C   UNL     1       0.482  12.363  20.320  0.00  0.00    +0.000 A 
ATOM     23  N   UNL     1      -0.282  11.219  20.084  0.00  0.00    +0.000 N 
BRANCH  23  24
ATOM     24  C   UNL     1      -1.251  11.030  19.050  0.00  0.00    +0.000 A 
ATOM     25  C   UNL     1      -2.485  11.697  19.105  0.00  0.00    +0.000 A 
ATOM     26  C   UNL     1      -3.454  11.494  18.119  0.00  0.00    +0.000 A 
ATOM     27  C   UNL     1      -3.187  10.658  17.042  0.00  0.00    +0.000 A 
ATOM     28  C   UNL     1      -1.956  10.014  16.957  0.00  0.00    +0.000 A 
ATOM     29  C   UNL     1      -0.999  10.183  17.962  0.00  0.00    +0.000 A 
ENDBRANCH  23  24
BRANCH  22  30
ATOM     30  C   UNL     1       0.341  13.734  19.649  0.00  0.00    +0.000 C 
ATOM     31  C   UNL     1       1.535  14.648  19.504  0.00  0.00    +0.000 C 
ATOM     32  C   UNL     1       1.009  13.928  18.304  0.00  0.00    +0.000 C 
ENDBRANCH  22  30
ENDBRANCH  18  19
ENDBRANCH  17  18
ENDBRANCH   2  17
TORSDOF 8
ENDMDL
MODEL 2
REMARK VINA RESULT:      -7.8      1.101      1.563
REMARK  Name = 
REMARK  8 active torsions:
REMARK  status: ('A' for Active; 'I' for Inactive)
REMARK    1  A    between atoms: N_1  and  S_2
REMARK    2  A    between atoms: S_2  and  C_5
REMARK    3  A    between atoms: C_9  and  N_10
REMARK    4  A    between atoms: C_11  and  C_13
REMARK    5  A    between atoms: C_13  and  S_14
REMARK    6  A    between atoms: S_14  and  C_15
REMARK    7  A    between atoms: C_18  and  C_19
REMARK    8  A    between atoms: N_22  and  C_23
REMARK                            x       y       z     vdW  Elec       q    Type
REMARK                         _______ _______ _______ _____ _____    ______ ____
ROOT
ATOM      1  N   UNL     1       2.115   6.339  20.276  0.00  0.00    +0.000 N 
ATOM      2  C   UNL     1       1.845   7.688  20.132  0.00  0.00    +0.000 C 
ATOM      3  O   UNL     1       1.935   8.343  19.093  0.00  0.00    +0.000 OA
ATOM      4  H   UNL     1       1.763   5.895  21.122  0.00  0.00    +0.000 HD
ENDROOT
BRANCH   1   9
ATOM      5  C   UNL     1       4.609   4.777  18.048  0.00  0.00    +0.000 A 
ATOM      6  C   UNL     1       3.851   3.820  17.371  0.00  0.00    +0.000 A 
ATOM      7  C   UNL     1       2.493   3.702  17.652  0.00  0.00    +0.000 A 
ATOM      8  C   UNL     1       1.900   4.528  18.608  0.00  0.00    +0.000 A 
ATOM      9  C   UNL     1       2.659   5.476  19.304  0.00  0.00    +0.000 A 
ATOM     10  C   UNL     1       4.021   5.610  19.008  0.00  0.00    +0.000 A 
BRANCH   5  11
ATOM     11  S   UNL     1       6.316   4.969  17.656  0.00  0.00    +0.000 S 
ATOM     12  O   UNL     1       7.107   4.410  18.727  0.00  0.00    +0.000 OA
ATOM     13  O   UNL     1       6.546   6.298  17.135  0.00  0.00    +0.000 OA
BRANCH  11  14
ATOM     14  N   UNL     1       6.515   3.946  16.337  0.00  0.00    +0.000 NA
ATOM     15  H   UNL     1       5.799   3.218  16.365  0.00  0.00    +0.000 HD
ATOM     16  H   UNL     1       7.468   3.580  16.328  0.00  0.00    +0.000 HD
ENDBRANCH  11  14
ENDBRANCH   5  11
ENDBRANCH   1   9
BRANCH   2  17
ATOM     17  C   UNL     1       1.378   8.344  21.422  0.00  0.00    +0.000 C 
BRANCH  17  18
ATOM     18  S   UNL     1      -0.349   8.878  21.309  0.00  0.00    +0.000 S 
BRANCH  18  19
ATOM     19  C   UNL     1      -0.212  10.608  21.209  0.00  0.00    +0.000 A 
ATOM     20  N   UNL     1       0.561  11.311  22.008  0.00  0.00    +0.000 NA
ATOM     21  N   UNL     1       0.618  12.589  21.518  0.00  0.00    +0.000 NA
ATOM     22  C   UNL     1      -0.177  12.663  20.469  0.00  0.00    +0.000 A 
ATOM     23  N   UNL     1      -0.728  11.410  20.196  0.00  0.00    +0.000 N 
BRANCH  23  24
ATOM     24  C   UNL     1      -1.570  11.062  19.094  0.00  0.00    +0.000 A 
ATOM     25  C   UNL     1      -1.087  10.236  18.067  0.00  0.00    +0.000 A 
ATOM     26  C   UNL     1      -1.889   9.917  16.968  0.00  0.00    +0.000 A 
ATOM     27  C   UNL     1      -3.196  10.382  16.900  0.00  0.00    +0.000 A 
ATOM     28  C   UNL     1      -3.700  11.177  17.927  0.00  0.00    +0.000 A 
ATOM     29  C   UNL     1      -2.888  11.531  19.009  0.00  0.00    +0.000 A 
ENDBRANCH  23  24
BRANCH  22  30
ATOM     30  C   UNL     1      -0.480  13.989  19.763  0.00  0.00    +0.000 C 
ATOM     31  C   UNL     1       0.612  15.009  19.535  0.00  0.00    +0.000 C 
ATOM     32  C   UNL     1       0.108  14.200  18.383  0.00  0.00    +0.000 C 
ENDBRANCH  22  30
ENDBRANCH  18  19
ENDBRANCH  17  18
ENDBRANCH   2  17
TORSDOF 8
ENDMDL
MODEL 3
REMARK VINA RESULT:      -7.7      2.846      3.362
REMARK  Name = 
REMARK  8 active torsions:
REMARK  status: ('A' for Active; 'I' for Inactive)
REMARK    1  A    between atoms: N_1  and  S_2
REMARK    2  A    between atoms: S_2  and  C_5
REMARK    3  A    between atoms: C_9  and  N_10
REMARK    4  A    between atoms: C_11  and  C_13
REMARK    5  A    between atoms: C_13  and  S_14
REMARK    6  A    between atoms: S_14  and  C_15
REMARK    7  A    between atoms: C_18  and  C_19
REMARK    8  A    between atoms: N_22  and  C_23
REMARK                            x       y       z     vdW  Elec       q    Type
REMARK                         _______ _______ _______ _____ _____    ______ ____
ROOT
ATOM      1  N   UNL     1       1.798   8.045  21.209  0.00  0.00    +0.000 N 
ATOM      2  C   UNL     1       0.575   8.493  21.676  0.00  0.00    +0.000 C 
ATOM      3  O   UNL     1      -0.528   8.029  21.391  0.00  0.00    +0.000 OA
ATOM      4  H   UNL     1       2.621   8.363  21.718  0.00  0.00    +0.000 HD
ENDROOT
BRANCH   1   9
ATOM      5  C   UNL     1       2.144   4.698  19.693  0.00  0.00    +0.000 A 
ATOM      6  C   UNL     1       2.455   4.999  18.364  0.00  0.00    +0.000 A 
ATOM      7  C   UNL     1       2.561   6.330  17.974  0.00  0.00    +0.000 A 
ATOM      8  C   UNL     1       2.350   7.352  18.901  0.00  0.00    +0.000 A 
ATOM      9  C   UNL     1       2.019   7.056  20.229  0.00  0.00    +0.000 A 
ATOM     10  C   UNL     1       1.932   5.718  20.628  0.00  0.00    +0.000 A 
BRANCH   5  11
ATOM     11  S   UNL     1       2.064   3.014  20.205  0.00  0.00    +0.000 S 
ATOM     12  O   UNL     1       3.300   2.358  19.847  0.00  0.00    +0.000 OA
ATOM     13  O   UNL     1       0.770   2.466  19.865  0.00  0.00    +0.000 OA
BRANCH  11  14
ATOM     14  N   UNL     1       2.059   3.132  21.882  0.00  0.00    +0.000 NA
ATOM     15  H   UNL     1       1.597   2.310  22.275  0.00  0.00    +0.000 HD
ATOM     16  H   UNL     1       1.629   4.015  22.162  0.00  0.00    +0.000 HD
ENDBRANCH  11  14
ENDBRANCH   5  11
ENDBRANCH   1   9
BRANCH   2  17
ATOM     17  C   UNL     1       0.698   9.658  22.645  0.00  0.00    +0.000 C 
BRANCH  17  18
ATOM     18  S   UNL     1      -0.885  10.509  22.865  0.00  0.00    +0.000 S 
BRANCH  18  19
ATOM     19  C   UNL     1      -0.581  12.076  22.177  0.00  0.00    +0.000 A 
ATOM     20  N   UNL     1      -0.173  13.103  22.890  0.00  0.00    +0.000 NA
ATOM     21  N   UNL     1       0.191  14.097  22.023  0.00  0.00    +0.000 NA
ATOM     22  C   UNL     1      -0.066  13.688  20.796  0.00  0.00    +0.000 A 
ATOM     23  N   UNL     1      -0.544  12.377  20.820  0.00  0.00    +0.000 N 
BRANCH  23  24
ATOM     24  C   UNL     1      -0.854  11.554  19.691  0.00  0.00    +0.000 A 
ATOM     25  C   UNL     1       0.135  10.744  19.112  0.00  0.00    +0.000 A 
ATOM     26  C   UNL     1      -0.146   9.962  17.989  0.00  0.00    +0.000 A 
ATOM     27  C   UNL     1      -1.430   9.944  17.457  0.00  0.00    +0.000 A 
ATOM     28  C   UNL     1      -2.430  10.719  18.039  0.00  0.00    +0.000 A 
ATOM     29  C   UNL     1      -2.142  11.533  19.139  0.00  0.00    +0.000 A 
ENDBRANCH  23  24
BRANCH  22  30
ATOM     30  C   UNL     1       0.072  14.610  19.579  0.00  0.00    +0.000 C 
ATOM     31  C   UNL     1       1.121  15.697  19.549  0.00  0.00    +0.000 C 
ATOM     32  C   UNL     1       1.317  14.465  18.726  0.00  0.00    +0.000 C 
ENDBRANCH  22  30
ENDBRANCH  18  19
ENDBRANCH  17  18
ENDBRANCH   2  17
TORSDOF 8
ENDMDL
MODEL 4
REMARK VINA RESULT:      -7.7      3.445      9.763
REMARK  Name = 
REMARK  8 active torsions:
REMARK  status: ('A' for Active; 'I' for Inactive)
REMARK    1  A    between atoms: N_1  and  S_2
REMARK    2  A    between atoms: S_2  and  C_5
REMARK    3  A    between atoms: C_9  and  N_10
REMARK    4  A    between atoms: C_11  and  C_13
REMARK    5  A    between atoms: C_13  and  S_14
REMARK    6  A    between atoms: S_14  and  C_15
REMARK    7  A    between atoms: C_18  and  C_19
REMARK    8  A    between atoms: N_22  and  C_23
REMARK                            x       y       z     vdW  Elec       q    Type
REMARK                         _______ _______ _______ _____ _____    ______ ____
ROOT
ATOM      1  N   UNL     1       0.311  10.179  18.144  0.00  0.00    +0.000 N 
ATOM      2  C   UNL     1       1.130   9.343  18.883  0.00  0.00    +0.000 C 
ATOM      3  O   UNL     1       0.981   9.038  20.066  0.00  0.00    +0.000 OA
ATOM      4  H   UNL     1       0.421  10.139  17.132  0.00  0.00    +0.000 HD
ENDROOT
BRANCH   1   9
ATOM      5  C   UNL     1      -3.131  11.475  18.439  0.00  0.00    +0.000 A 
ATOM      6  C   UNL     1      -3.016  12.403  19.477  0.00  0.00    +0.000 A 
ATOM      7  C   UNL     1      -1.777  12.606  20.076  0.00  0.00    +0.000 A 
ATOM      8  C   UNL     1      -0.663  11.881  19.647  0.00  0.00    +0.000 A 
ATOM      9  C   UNL     1      -0.777  10.936  18.621  0.00  0.00    +0.000 A 
ATOM     10  C   UNL     1      -2.018  10.745  18.004  0.00  0.00    +0.000 A 
BRANCH   5  11
ATOM     11  S   UNL     1      -4.686  11.256  17.640  0.00  0.00    +0.000 S 
ATOM     12  O   UNL     1      -5.494  10.356  18.430  0.00  0.00    +0.000 OA
ATOM     13  O   UNL     1      -4.478  11.067  16.222  0.00  0.00    +0.000 OA
BRANCH  11  14
ATOM     14  N   UNL     1      -5.396  12.774  17.777  0.00  0.00    +0.000 NA
ATOM     15  H   UNL     1      -4.820  13.459  17.285  0.00  0.00    +0.000 HD
ATOM     16  H   UNL     1      -5.542  12.996  18.763  0.00  0.00    +0.000 HD
ENDBRANCH  11  14
ENDBRANCH   5  11
ENDBRANCH   1   9
BRANCH   2  17
ATOM     17  C   UNL     1       2.288   8.776  18.077  0.00  0.00    +0.000 C 
BRANCH  17  18
ATOM     18  S   UNL     1       2.664   7.073  18.562  0.00  0.00    +0.000 S 
BRANCH  18  19
ATOM     19  C   UNL     1       3.979   6.651  17.507  0.00  0.00    +0.000 A 
ATOM     20  N   UNL     1       4.735   7.549  16.913  0.00  0.00    +0.000 NA
ATOM     21  N   UNL     1       5.801   6.895  16.356  0.00  0.00    +0.000 NA
ATOM     22  C   UNL     1       5.643   5.602  16.558  0.00  0.00    +0.000 A 
ATOM     23  N   UNL     1       4.496   5.374  17.319  0.00  0.00    +0.000 N 
BRANCH  23  24
ATOM     24  C   UNL     1       4.032   4.116  17.818  0.00  0.00    +0.000 A 
ATOM     25  C   UNL     1       2.973   3.449  17.181  0.00  0.00    +0.000 A 
ATOM     26  C   UNL     1       2.488   2.237  17.678  0.00  0.00    +0.000 A 
ATOM     27  C   UNL     1       3.081   1.653  18.791  0.00  0.00    +0.000 A 
ATOM     28  C   UNL     1       4.152   2.287  19.415  0.00  0.00    +0.000 A 
ATOM     29  C   UNL     1       4.615   3.519  18.944  0.00  0.00    +0.000 A 
ENDBRANCH  23  24
BRANCH  22  30
ATOM     30  C   UNL     1       6.572   4.556  15.931  0.00  0.00    +0.000 C 
ATOM     31  C   UNL     1       6.062   3.606  14.873  0.00  0.00    +0.000 C 
ATOM     32  C   UNL     1       6.954   4.738  14.477  0.00  0.00    +0.000 C 
ENDBRANCH  22  30
ENDBRANCH  18  19
ENDBRANCH  17  18
ENDBRANCH   2  17
TORSDOF 8
ENDMDL
MODEL 5
REMARK VINA RESULT:      -7.7      3.194      9.498
REMARK  Name = 
REMARK  8 active torsions:
REMARK  status: ('A' for Active; 'I' for Inactive)
REMARK    1  A    between atoms: N_1  and  S_2
REMARK    2  A    between atoms: S_2  and  C_5
REMARK    3  A    between atoms: C_9  and  N_10
REMARK    4  A    between atoms: C_11  and  C_13
REMARK    5  A    between atoms: C_13  and  S_14
REMARK    6  A    between atoms: S_14  and  C_15
REMARK    7  A    between atoms: C_18  and  C_19
REMARK    8  A    between atoms: N_22  and  C_23
REMARK                            x       y       z     vdW  Elec       q    Type
REMARK                         _______ _______ _______ _____ _____    ______ ____
ROOT
ATOM      1  N   UNL     1       1.568   9.028  18.738  0.00  0.00    +0.000 N 
ATOM      2  C   UNL     1       1.988   7.932  19.469  0.00  0.00    +0.000 C 
ATOM      3  O   UNL     1       1.497   7.528  20.524  0.00  0.00    +0.000 OA
ATOM      4  H   UNL     1       1.907   9.089  17.779  0.00  0.00    +0.000 HD
ENDROOT
BRANCH   1   9
ATOM      5  C   UNL     1      -1.600  10.920  18.671  0.00  0.00    +0.000 A 
ATOM      6  C   UNL     1      -1.446  11.805  19.741  0.00  0.00    +0.000 A 
ATOM      7  C   UNL     1      -0.270  11.777  20.484  0.00  0.00    +0.000 A 
ATOM      8  C   UNL     1       0.740  10.868  20.166  0.00  0.00    +0.000 A 
ATOM      9  C   UNL     1       0.583   9.966  19.107  0.00  0.00    +0.000 A 
ATOM     10  C   UNL     1      -0.591  10.005  18.346  0.00  0.00    +0.000 A 
BRANCH   5  11
ATOM     11  S   UNL     1      -3.064  10.988  17.692  0.00  0.00    +0.000 S 
ATOM     12  O   UNL     1      -3.942  11.997  18.235  0.00  0.00    +0.000 OA
ATOM     13  O   UNL     1      -3.513   9.645  17.400  0.00  0.00    +0.000 OA
BRANCH  11  14
ATOM     14  N   UNL     1      -2.505  11.588  16.224  0.00  0.00    +0.000 NA
ATOM     15  H   UNL     1      -2.603  12.604  16.217  0.00  0.00    +0.000 HD
ATOM     16  H   UNL     1      -2.995  11.125  15.456  0.00  0.00    +0.000 HD
ENDBRANCH  11  14
ENDBRANCH   5  11
ENDBRANCH   1   9
BRANCH   2  17
ATOM     17  C   UNL     1       3.159   7.201  18.831  0.00  0.00    +0.000 C 
BRANCH  17  18
ATOM     18  S   UNL     1       3.338   5.526  19.494  0.00  0.00    +0.000 S 
BRANCH  18  19
ATOM     19  C   UNL     1       3.953   4.635  18.134  0.00  0.00    +0.000 A 
ATOM     20  N   UNL     1       3.233   3.756  17.471  0.00  0.00    +0.000 NA
ATOM     21  N   UNL     1       3.923   3.419  16.338  0.00  0.00    +0.000 NA
ATOM     22  C   UNL     1       5.084   4.043  16.362  0.00  0.00    +0.000 A 
ATOM     23  N   UNL     1       5.160   4.868  17.485  0.00  0.00    +0.000 N 
BRANCH  23  24
ATOM     24  C   UNL     1       6.220   5.768  17.820  0.00  0.00    +0.000 A 
ATOM     25  C   UNL     1       7.150   5.429  18.815  0.00  0.00    +0.000 A 
ATOM     26  C   UNL     1       8.169   6.313  19.175  0.00  0.00    +0.000 A 
ATOM     27  C   UNL     1       8.301   7.530  18.517  0.00  0.00    +0.000 A 
ATOM     28  C   UNL     1       7.405   7.868  17.506  0.00  0.00    +0.000 A 
ATOM     29  C   UNL     1       6.360   7.002  17.170  0.00  0.00    +0.000 A 
ENDBRANCH  23  24
BRANCH  22  30
ATOM     30  C   UNL     1       6.180   3.774  15.325  0.00  0.00    +0.000 C 
ATOM     31  C   UNL     1       5.856   3.745  13.849  0.00  0.00    +0.000 C 
ATOM     32  C   UNL     1       6.586   4.919  14.419  0.00  0.00    +0.000 C 
ENDBRANCH  22  30
ENDBRANCH  18  19
ENDBRANCH  17  18
ENDBRANCH   2  17
TORSDOF 8
ENDMDL
MODEL 6
REMARK VINA RESULT:      -7.6      1.125      1.452
REMARK  Name = 
REMARK  8 active torsions:
REMARK  status: ('A' for Active; 'I' for Inactive)
REMARK    1  A    between atoms: N_1  and  S_2
REMARK    2  A    between atoms: S_2  and  C_5
REMARK    3  A    between atoms: C_9  and  N_10
REMARK    4  A    between atoms: C_11  and  C_13
REMARK    5  A    between atoms: C_13  and  S_14
REMARK    6  A    between atoms: S_14  and  C_15
REMARK    7  A    between atoms: C_18  and  C_19
REMARK    8  A    between atoms: N_22  and  C_23
REMARK                            x       y       z     vdW  Elec       q    Type
REMARK                         _______ _______ _______ _____ _____    ______ ____
ROOT
ATOM      1  N   UNL     1       2.740   6.389  19.734  0.00  0.00    +0.000 N 
ATOM      2  C   UNL     1       2.088   7.599  19.578  0.00  0.00    +0.000 C 
ATOM      3  O   UNL     1       1.769   8.122  18.510  0.00  0.00    +0.000 OA
ATOM      4  H   UNL     1       2.715   5.978  20.666  0.00  0.00    +0.000 HD
ENDROOT
BRANCH   1   9
ATOM      5  C   UNL     1       5.102   5.147  17.184  0.00  0.00    +0.000 A 
ATOM      6  C   UNL     1       4.430   4.039  16.664  0.00  0.00    +0.000 A 
ATOM      7  C   UNL     1       3.173   3.710  17.161  0.00  0.00    +0.000 A 
ATOM      8  C   UNL     1       2.596   4.476  18.175  0.00  0.00    +0.000 A 
ATOM      9  C   UNL     1       3.274   5.576  18.713  0.00  0.00    +0.000 A 
ATOM     10  C   UNL     1       4.529   5.921  18.201  0.00  0.00    +0.000 A 
BRANCH   5  11
ATOM     11  S   UNL     1       6.670   5.602  16.519  0.00  0.00    +0.000 S 
ATOM     12  O   UNL     1       6.558   5.694  15.083  0.00  0.00    +0.000 OA
ATOM     13  O   UNL     1       7.710   4.836  17.169  0.00  0.00    +0.000 OA
BRANCH  11  14
ATOM     14  N   UNL     1       6.873   7.174  17.080  0.00  0.00    +0.000 NA
ATOM     15  H   UNL     1       7.301   7.147  18.007  0.00  0.00    +0.000 HD
ATOM     16  H   UNL     1       5.977   7.664  17.058  0.00  0.00    +0.000 HD
ENDBRANCH  11  14
ENDBRANCH   5  11
ENDBRANCH   1   9
BRANCH   2  17
ATOM     17  C   UNL     1       1.753   8.270  20.900  0.00  0.00    +0.000 C 
BRANCH  17  18
ATOM     18  S   UNL     1       0.010   8.754  20.976  0.00  0.00    +0.000 S 
BRANCH  18  19
ATOM     19  C   UNL     1       0.092  10.490  21.015  0.00  0.00    +0.000 A 
ATOM     20  N   UNL     1       0.910  11.150  21.806  0.00  0.00    +0.000 NA
ATOM     21  N   UNL     1       0.893  12.465  21.424  0.00  0.00    +0.000 NA
ATOM     22  C   UNL     1       0.012  12.600  20.453  0.00  0.00    +0.000 A 
ATOM     23  N   UNL     1      -0.526  11.356  20.119  0.00  0.00    +0.000 N 
BRANCH  23  24
ATOM     24  C   UNL     1      -1.447  11.074  19.062  0.00  0.00    +0.000 A 
ATOM     25  C   UNL     1      -1.080  10.219  18.011  0.00  0.00    +0.000 A 
ATOM     26  C   UNL     1      -1.958   9.963  16.955  0.00  0.00    +0.000 A 
ATOM     27  C   UNL     1      -3.231  10.520  16.956  0.00  0.00    +0.000 A 
ATOM     28  C   UNL     1      -3.622  11.345  18.008  0.00  0.00    +0.000 A 
ATOM     29  C   UNL     1      -2.732  11.636  19.046  0.00  0.00    +0.000 A 
ENDBRANCH  23  24
BRANCH  22  30
ATOM     30  C   UNL     1      -0.382  13.970  19.890  0.00  0.00    +0.000 C 
ATOM     31  C   UNL     1       0.635  15.082  19.781  0.00  0.00    +0.000 C 
ATOM     32  C   UNL     1       0.191  14.368  18.545  0.00  0.00    +0.000 C 
ENDBRANCH  22  30
ENDBRANCH  18  19
ENDBRANCH  17  18
ENDBRANCH   2  17
TORSDOF 8
ENDMDL
MODEL 7
REMARK VINA RESULT:      -7.6      2.924      3.463
REMARK  Name = 
REMARK  8 active torsions:
REMARK  status: ('A' for Active; 'I' for Inactive)
REMARK    1  A    between atoms: N_1  and  S_2
REMARK    2  A    between atoms: S_2  and  C_5
REMARK    3  A    between atoms: C_9  and  N_10
REMARK    4  A    between atoms: C_11  and  C_13
REMARK    5  A    between atoms: C_13  and  S_14
REMARK    6  A    between atoms: S_14  and  C_15
REMARK    7  A    between atoms: C_18  and  C_19
REMARK    8  A    between atoms: N_22  and  C_23
REMARK                            x       y       z     vdW  Elec       q    Type
REMARK                         _______ _______ _______ _____ _____    ______ ____
ROOT
ATOM      1  N   UNL     1       1.756   7.882  21.328  0.00  0.00    +0.000 N 
ATOM      2  C   UNL     1       0.533   8.408  21.708  0.00  0.00    +0.000 C 
ATOM      3  O   UNL     1      -0.569   8.081  21.266  0.00  0.00    +0.000 OA
ATOM      4  H   UNL     1       2.541   8.073  21.948  0.00  0.00    +0.000 HD
ENDROOT
BRANCH   1   9
ATOM      5  C   UNL     1       2.099   4.650  19.581  0.00  0.00    +0.000 A 
ATOM      6  C   UNL     1       2.467   5.042  18.291  0.00  0.00    +0.000 A 
ATOM      7  C   UNL     1       2.612   6.396  18.006  0.00  0.00    +0.000 A 
ATOM      8  C   UNL     1       2.384   7.351  18.998  0.00  0.00    +0.000 A 
ATOM      9  C   UNL     1       1.996   6.965  20.286  0.00  0.00    +0.000 A 
ATOM     10  C   UNL     1       1.869   5.603  20.581  0.00  0.00    +0.000 A 
BRANCH   5  11
ATOM     11  S   UNL     1       1.967   2.935  19.963  0.00  0.00    +0.000 S 
ATOM     12  O   UNL     1       3.236   2.472  20.474  0.00  0.00    +0.000 OA
ATOM     13  O   UNL     1       1.267   2.255  18.896  0.00  0.00    +0.000 OA
BRANCH  11  14
ATOM     14  N   UNL     1       0.900   2.921  21.261  0.00  0.00    +0.000 NA
ATOM     15  H   UNL     1       0.346   2.063  21.231  0.00  0.00    +0.000 HD
ATOM     16  H   UNL     1       0.336   3.772  21.250  0.00  0.00    +0.000 HD
ENDBRANCH  11  14
ENDBRANCH   5  11
ENDBRANCH   1   9
BRANCH   2  17
ATOM     17  C   UNL     1       0.650   9.468  22.791  0.00  0.00    +0.000 C 
BRANCH  17  18
ATOM     18  S   UNL     1      -0.914  10.347  23.032  0.00  0.00    +0.000 S 
BRANCH  18  19
ATOM     19  C   UNL     1      -0.560  11.939  22.429  0.00  0.00    +0.000 A 
ATOM     20  N   UNL     1      -0.375  12.976  23.216  0.00  0.00    +0.000 NA
ATOM     21  N   UNL     1       0.110  14.002  22.450  0.00  0.00    +0.000 NA
ATOM     22  C   UNL     1       0.146  13.597  21.195  0.00  0.00    +0.000 A 
ATOM     23  N   UNL     1      -0.250  12.262  21.112  0.00  0.00    +0.000 N 
BRANCH  23  24
ATOM     24  C   UNL     1      -0.263  11.440  19.941  0.00  0.00    +0.000 A 
ATOM     25  C   UNL     1      -1.481  11.077  19.344  0.00  0.00    +0.000 A 
ATOM     26  C   UNL     1      -1.508  10.247  18.221  0.00  0.00    +0.000 A 
ATOM     27  C   UNL     1      -0.320   9.805  17.652  0.00  0.00    +0.000 A 
ATOM     28  C   UNL     1       0.897  10.183  18.214  0.00  0.00    +0.000 A 
ATOM     29  C   UNL     1       0.928  10.981  19.362  0.00  0.00    +0.000 A 
ENDBRANCH  23  24
BRANCH  22  30
ATOM     30  C   UNL     1       0.489  14.544  20.039  0.00  0.00    +0.000 C 
ATOM     31  C   UNL     1      -0.238  14.444  18.719  0.00  0.00    +0.000 C 
ATOM     32  C   UNL     1      -0.549  15.575  19.645  0.00  0.00    +0.000 C 
ENDBRANCH  22  30
ENDBRANCH  18  19
ENDBRANCH  17  18
ENDBRANCH   2  17
TORSDOF 8
ENDMDL
MODEL 8
REMARK VINA RESULT:      -7.6      3.543      9.786
REMARK  Name = 
REMARK  8 active torsions:
REMARK  status: ('A' for Active; 'I' for Inactive)
REMARK    1  A    between atoms: N_1  and  S_2
REMARK    2  A    between atoms: S_2  and  C_5
REMARK    3  A    between atoms: C_9  and  N_10
REMARK    4  A    between atoms: C_11  and  C_13
REMARK    5  A    between atoms: C_13  and  S_14
REMARK    6  A    between atoms: S_14  and  C_15
REMARK    7  A    between atoms: C_18  and  C_19
REMARK    8  A    between atoms: N_22  and  C_23
REMARK                            x       y       z     vdW  Elec       q    Type
REMARK                         _______ _______ _______ _____ _____    ______ ____
ROOT
ATOM      1  N   UNL     1       0.291  10.216  18.155  0.00  0.00    +0.000 N 
ATOM      2  C   UNL     1       1.151   9.343  18.797  0.00  0.00    +0.000 C 
ATOM      3  O   UNL     1       1.152   9.072  19.997  0.00  0.00    +0.000 OA
ATOM      4  H   UNL     1       0.254  10.149  17.139  0.00  0.00    +0.000 HD
ENDROOT
BRANCH   1   9
ATOM      5  C   UNL     1      -2.983  11.765  18.867  0.00  0.00    +0.000 A 
ATOM      6  C   UNL     1      -2.670  12.683  19.872  0.00  0.00    +0.000 A 
ATOM      7  C   UNL     1      -1.354  12.794  20.308  0.00  0.00    +0.000 A 
ATOM      8  C   UNL     1      -0.359  11.988  19.750  0.00  0.00    +0.000 A 
ATOM      9  C   UNL     1      -0.671  11.053  18.756  0.00  0.00    +0.000 A 
ATOM     10  C   UNL     1      -1.990  10.954  18.302  0.00  0.00    +0.000 A 
BRANCH   5  11
ATOM     11  S   UNL     1      -4.638  11.659  18.271  0.00  0.00    +0.000 S 
ATOM     12  O   UNL     1      -5.413  12.729  18.856  0.00  0.00    +0.000 OA
ATOM     13  O   UNL     1      -5.075  10.281  18.299  0.00  0.00    +0.000 OA
BRANCH  11  14
ATOM     14  N   UNL     1      -4.474  12.030  16.640  0.00  0.00    +0.000 NA
ATOM     15  H   UNL     1      -5.352  12.422  16.294  0.00  0.00    +0.000 HD
ATOM     16  H   UNL     1      -4.168  11.201  16.129  0.00  0.00    +0.000 HD
ENDBRANCH  11  14
ENDBRANCH   5  11
ENDBRANCH   1   9
BRANCH   2  17
ATOM     17  C   UNL     1       2.146   8.685  17.854  0.00  0.00    +0.000 C 
BRANCH  17  18
ATOM     18  S   UNL     1       2.795   7.142  18.544  0.00  0.00    +0.000 S 
BRANCH  18  19
ATOM     19  C   UNL     1       3.925   6.621  17.331  0.00  0.00    +0.000 A 
ATOM     20  N   UNL     1       4.637   7.459  16.609  0.00  0.00    +0.000 NA
ATOM     21  N   UNL     1       5.579   6.733  15.932  0.00  0.00    +0.000 NA
ATOM     22  C   UNL     1       5.383   5.457  16.195  0.00  0.00    +0.000 A 
ATOM     23  N   UNL     1       4.343   5.312  17.114  0.00  0.00    +0.000 N 
BRANCH  23  24
ATOM     24  C   UNL     1       3.887   4.095  17.712  0.00  0.00    +0.000 A 
ATOM     25  C   UNL     1       4.526   3.582  18.851  0.00  0.00    +0.000 A 
ATOM     26  C   UNL     1       4.111   2.377  19.423  0.00  0.00    +0.000 A 
ATOM     27  C   UNL     1       3.025   1.691  18.893  0.00  0.00    +0.000 A 
ATOM     28  C   UNL     1       2.360   2.204  17.782  0.00  0.00    +0.000 A 
ATOM     29  C   UNL     1       2.797   3.389  17.183  0.00  0.00    +0.000 A 
ENDBRANCH  23  24
BRANCH  22  30
ATOM     30  C   UNL     1       6.158   4.344  15.479  0.00  0.00    +0.000 C 
ATOM     31  C   UNL     1       5.829   3.968  14.054  0.00  0.00    +0.000 C 
ATOM     32  C   UNL     1       7.072   4.747  14.340  0.00  0.00    +0.000 C 
ENDBRANCH  22  30
ENDBRANCH  18  19
ENDBRANCH  17  18
ENDBRANCH   2  17
TORSDOF 8
ENDMDL
MODEL 9
REMARK VINA RESULT:      -7.6      6.112      8.575
REMARK  Name = 
REMARK  8 active torsions:
REMARK  status: ('A' for Active; 'I' for Inactive)
REMARK    1  A    between atoms: N_1  and  S_2
REMARK    2  A    between atoms: S_2  and  C_5
REMARK    3  A    between atoms: C_9  and  N_10
REMARK    4  A    between atoms: C_11  and  C_13
REMARK    5  A    between atoms: C_13  and  S_14
REMARK    6  A    between atoms: S_14  and  C_15
REMARK    7  A    between atoms: C_18  and  C_19
REMARK    8  A    between atoms: N_22  and  C_23
REMARK                            x       y       z     vdW  Elec       q    Type
REMARK                         _______ _______ _______ _____ _____    ______ ____
ROOT
ATOM      1  N   UNL     1       6.988   7.735  17.008  0.00  0.00    +0.000 N 
ATOM      2  C   UNL     1       7.933   8.139  17.934  0.00  0.00    +0.000 C 
ATOM      3  O   UNL     1       8.485   7.424  18.771  0.00  0.00    +0.000 OA
ATOM      4  H   UNL     1       6.812   8.375  16.234  0.00  0.00    +0.000 HD
ENDROOT
BRANCH   1   9
ATOM      5  C   UNL     1       4.589   4.998  17.613  0.00  0.00    +0.000 A 
ATOM      6  C   UNL     1       5.098   3.969  16.818  0.00  0.00    +0.000 A 
ATOM      7  C   UNL     1       6.258   4.187  16.082  0.00  0.00    +0.000 A 
ATOM      8  C   UNL     1       6.900   5.425  16.133  0.00  0.00    +0.000 A 
ATOM      9  C   UNL     1       6.383   6.466  16.914  0.00  0.00    +0.000 A 
ATOM     10  C   UNL     1       5.227   6.243  17.670  0.00  0.00    +0.000 A 
BRANCH   5  11
ATOM     11  S   UNL     1       3.151   4.709  18.591  0.00  0.00    +0.000 S 
ATOM     12  O   UNL     1       3.180   3.348  19.072  0.00  0.00    +0.000 OA
ATOM     13  O   UNL     1       1.996   5.273  17.929  0.00  0.00    +0.000 OA
BRANCH  11  14
ATOM     14  N   UNL     1       3.406   5.691  19.932  0.00  0.00    +0.000 NA
ATOM     15  H   UNL     1       3.581   5.104  20.749  0.00  0.00    +0.000 HD
ATOM     16  H   UNL     1       2.615   6.326  20.047  0.00  0.00    +0.000 HD
ENDBRANCH  11  14
ENDBRANCH   5  11
ENDBRANCH   1   9
BRANCH   2  17
ATOM     17  C   UNL     1       8.281   9.615  17.826  0.00  0.00    +0.000 C 
BRANCH  17  18
ATOM     18  S   UNL     1       9.231  10.180  19.261  0.00  0.00    +0.000 S 
BRANCH  18  19
ATOM     19  C   UNL     1      10.086  11.560  18.640  0.00  0.00    +0.000 A 
ATOM     20  N   UNL     1      10.811  11.517  17.543  0.00  0.00    +0.000 NA
ATOM     21  N   UNL     1      11.147  12.802  17.212  0.00  0.00    +0.000 NA
ATOM     22  C   UNL     1      10.681  13.604  18.150  0.00  0.00    +0.000 A 
ATOM     23  N   UNL     1       9.962  12.869  19.093  0.00  0.00    +0.000 N 
BRANCH  23  24
ATOM     24  C   UNL     1       9.234  13.384  20.212  0.00  0.00    +0.000 A 
ATOM     25  C   UNL     1       9.718  13.202  21.516  0.00  0.00    +0.000 A 
ATOM     26  C   UNL     1       9.000  13.671  22.619  0.00  0.00    +0.000 A 
ATOM     27  C   UNL     1       7.811  14.366  22.432  0.00  0.00    +0.000 A 
ATOM     28  C   UNL     1       7.334  14.582  21.142  0.00  0.00    +0.000 A 
ATOM     29  C   UNL     1       8.029  14.080  20.038  0.00  0.00    +0.000 A 
ENDBRANCH  23  24
BRANCH  22  30
ATOM     30  C   UNL     1      11.009  15.101  18.184  0.00  0.00    +0.000 C 
ATOM     31  C   UNL     1      11.325  15.851  16.912  0.00  0.00    +0.000 C 
ATOM     32  C   UNL     1      10.001  16.054  17.575  0.00  0.00    +0.000 C 
ENDBRANCH  22  30
ENDBRANCH  18  19
ENDBRANCH  17  18
ENDBRANCH   2  17
TORSDOF 8
ENDMDL
