MODEL 1
REMARK VINA RESULT:      -8.1      0.000      0.000
REMARK  Name = 
REMARK  8 active torsions:
REMARK  status: ('A' for Active; 'I' for Inactive)
REMARK    1  A    between atoms: C_1  and  C_2
REMARK    2  A    between atoms: C_2  and  C_3
REMARK    3  A    between atoms: C_3  and  C_4
REMARK    4  A    between atoms: N_6  and  C_7
REMARK    5  A    between atoms: C_7  and  C_8
REMARK    6  A    between atoms: C_8  and  C_9
REMARK    7  A    between atoms: C_9  and  C_10
REMARK    8  A    between atoms: C_16  and  C_17
REMARK                            x       y       z     vdW  Elec       q    Type
REMARK                         _______ _______ _______ _____ _____    ______ ____
ROOT
ATOM      1  C   UNL     1       6.937   5.730  17.111  0.00  0.00    +0.000 A 
ATOM      2  C   UNL     1       7.426   5.568  15.800  0.00  0.00    +0.000 A 
ATOM      3  C   UNL     1       6.864   4.648  14.905  0.00  0.00    +0.000 A 
ATOM      4  C   UNL     1       5.782   3.842  15.279  0.00  0.00    +0.000 A 
ATOM      5  C   UNL     1       5.262   3.999  16.569  0.00  0.00    +0.000 A 
ATOM      6  N   UNL     1       4.226   3.359  17.196  0.00  0.00    +0.000 NA
ATOM      7  C   UNL     1       4.173   3.937  18.382  0.00  0.00    +0.000 A 
ATOM      8  O   UNL     1       5.139   4.889  18.597  0.00  0.00    +0.000 OA
ATOM      9  C   UNL     1       5.832   4.929  17.422  0.00  0.00    +0.000 A 
ENDROOT
BRANCH   7  10
ATOM     10  C   UNL     1       3.190   3.739  19.446  0.00  0.00    +0.000 A 
ATOM     11  C   UNL     1       3.476   2.836  20.484  0.00  0.00    +0.000 A 
ATOM     12  C   UNL     1       2.525   2.546  21.464  0.00  0.00    +0.000 A 
ATOM     13  C   UNL     1       1.276   3.162  21.423  0.00  0.00    +0.000 A 
ATOM     14  C   UNL     1       0.987   4.083  20.417  0.00  0.00    +0.000 A 
ATOM     15  C   UNL     1       1.941   4.374  19.437  0.00  0.00    +0.000 A 
ENDBRANCH   7  10
BRANCH   1  16
ATOM     16  C   UNL     1       7.622   6.642  18.091  0.00  0.00    +0.000 C 
BRANCH  16  17
ATOM     17  C   UNL     1       7.703   8.085  17.582  0.00  0.00    +0.000 C 
BRANCH  17  18
ATOM     18  C   UNL     1       8.543   8.966  18.504  0.00  0.00    +0.000 C 
BRANCH  18  21
ATOM     19  C   UNL     1       9.549  11.210  18.519  0.00  0.00    +0.000 C 
ATOM     20  O   UNL     1      10.364  10.924  19.388  0.00  0.00    +0.000 OA
ATOM     21  N   UNL     1       8.643  10.315  18.001  0.00  0.00    +0.000 N 
ATOM     22  H   UNL     1       8.057  10.582  17.221  0.00  0.00    +0.000 HD
BRANCH  19  23
ATOM     23  C   UNL     1       9.457  12.598  17.922  0.00  0.00    +0.000 C 
BRANCH  23  25
ATOM     24  C   UNL     1      11.420  13.493  16.587  0.00  0.00    +0.000 C 
ATOM     25  C   UNL     1      10.785  13.353  17.962  0.00  0.00    +0.000 C 
ENDBRANCH  23  25
ENDBRANCH  19  23
ENDBRANCH  18  21
ENDBRANCH  17  18
ENDBRANCH  16  17
ENDBRANCH   1  16
TORSDOF 7
ENDMDL
MODEL 2
REMARK VINA RESULT:      -8.0      0.334      1.037
REMARK  Name = 
REMARK  8 active torsions:
REMARK  status: ('A' for Active; 'I' for Inactive)
REMARK    1  A    between atoms: C_1  and  C_2
REMARK    2  A    between atoms: C_2  and  C_3
REMARK    3  A    between atoms: C_3  and  C_4
REMARK    4  A    between atoms: N_6  and  C_7
REMARK    5  A    between atoms: C_7  and  C_8
REMARK    6  A    between atoms: C_8  and  C_9
REMARK    7  A    between atoms: C_9  and  C_10
REMARK    8  A    between atoms: C_16  and  C_17
REMARK                            x       y       z     vdW  Elec       q    Type
REMARK                         _______ _______ _______ _____ _____    ______ ____
ROOT
ATOM      1  C   UNL     1       6.848   5.713  17.113  0.00  0.00    +0.000 A 
ATOM      2  C   UNL     1       7.363   5.603  15.806  0.00  0.00    +0.000 A 
ATOM      3  C   UNL     1       6.859   4.678  14.883  0.00  0.00    +0.000 A 
ATOM      4  C   UNL     1       5.812   3.813  15.224  0.00  0.00    +0.000 A 
ATOM      5  C   UNL     1       5.267   3.916  16.509  0.00  0.00    +0.000 A 
ATOM      6  N   UNL     1       4.254   3.214  17.107  0.00  0.00    +0.000 NA
ATOM      7  C   UNL     1       4.156   3.762  18.304  0.00  0.00    +0.000 A 
ATOM      8  O   UNL     1       5.072   4.755  18.553  0.00  0.00    +0.000 OA
ATOM      9  C   UNL     1       5.779   4.853  17.390  0.00  0.00    +0.000 A 
ENDROOT
BRANCH   7  10
ATOM     10  C   UNL     1       3.169   3.494  19.348  0.00  0.00    +0.000 A 
ATOM     11  C   UNL     1       1.892   4.069  19.248  0.00  0.00    +0.000 A 
ATOM     12  C   UNL     1       0.955   3.918  20.272  0.00  0.00    +0.000 A 
ATOM     13  C   UNL     1       1.282   3.183  21.408  0.00  0.00    +0.000 A 
ATOM     14  C   UNL     1       2.535   2.581  21.511  0.00  0.00    +0.000 A 
ATOM     15  C   UNL     1       3.472   2.731  20.484  0.00  0.00    +0.000 A 
ENDBRANCH   7  10
BRANCH   1  16
ATOM     16  C   UNL     1       7.475   6.635  18.122  0.00  0.00    +0.000 C 
BRANCH  16  17
ATOM     17  C   UNL     1       7.762   8.023  17.540  0.00  0.00    +0.000 C 
BRANCH  17  18
ATOM     18  C   UNL     1       8.531   8.903  18.524  0.00  0.00    +0.000 C 
BRANCH  18  21
ATOM     19  C   UNL     1       9.523  11.150  18.636  0.00  0.00    +0.000 C 
ATOM     20  O   UNL     1      10.218  10.880  19.610  0.00  0.00    +0.000 OA
ATOM     21  N   UNL     1       8.695  10.245  18.018  0.00  0.00    +0.000 N 
ATOM     22  H   UNL     1       8.217  10.498  17.163  0.00  0.00    +0.000 HD
BRANCH  19  23
ATOM     23  C   UNL     1       9.510  12.528  18.012  0.00  0.00    +0.000 C 
BRANCH  23  25
ATOM     24  C   UNL     1      11.278  14.251  17.423  0.00  0.00    +0.000 C 
ATOM     25  C   UNL     1      10.773  12.832  17.208  0.00  0.00    +0.000 C 
ENDBRANCH  23  25
ENDBRANCH  19  23
ENDBRANCH  18  21
ENDBRANCH  17  18
ENDBRANCH  16  17
ENDBRANCH   1  16
TORSDOF 7
ENDMDL
MODEL 3
REMARK VINA RESULT:      -8.0      3.437      5.644
REMARK  Name = 
REMARK  8 active torsions:
REMARK  status: ('A' for Active; 'I' for Inactive)
REMARK    1  A    between atoms: C_1  and  C_2
REMARK    2  A    between atoms: C_2  and  C_3
REMARK    3  A    between atoms: C_3  and  C_4
REMARK    4  A    between atoms: N_6  and  C_7
REMARK    5  A    between atoms: C_7  and  C_8
REMARK    6  A    between atoms: C_8  and  C_9
REMARK    7  A    between atoms: C_9  and  C_10
REMARK    8  A    between atoms: C_16  and  C_17
REMARK                            x       y       z     vdW  Elec       q    Type
REMARK                         _______ _______ _______ _____ _____    ______ ____
ROOT
ATOM      1  C   UNL     1       3.979   3.895  17.230  0.00  0.00    +0.000 A 
ATOM      2  C   UNL     1       4.147   2.594  17.742  0.00  0.00    +0.000 A 
ATOM      3  C   UNL     1       3.767   2.252  19.047  0.00  0.00    +0.000 A 
ATOM      4  C   UNL     1       3.197   3.201  19.906  0.00  0.00    +0.000 A 
ATOM      5  C   UNL     1       2.998   4.496  19.414  0.00  0.00    +0.000 A 
ATOM      6  N   UNL     1       2.471   5.607  20.017  0.00  0.00    +0.000 NA
ATOM      7  C   UNL     1       2.505   6.525  19.069  0.00  0.00    +0.000 A 
ATOM      8  O   UNL     1       3.063   6.103  17.887  0.00  0.00    +0.000 OA
ATOM      9  C   UNL     1       3.372   4.793  18.115  0.00  0.00    +0.000 A 
ENDROOT
BRANCH   7  10
ATOM     10  C   UNL     1       1.969   7.885  19.100  0.00  0.00    +0.000 A 
ATOM     11  C   UNL     1       2.088   8.694  17.959  0.00  0.00    +0.000 A 
ATOM     12  C   UNL     1       1.678  10.029  17.980  0.00  0.00    +0.000 A 
ATOM     13  C   UNL     1       1.137  10.569  19.144  0.00  0.00    +0.000 A 
ATOM     14  C   UNL     1       0.984   9.771  20.277  0.00  0.00    +0.000 A 
ATOM     15  C   UNL     1       1.393   8.435  20.253  0.00  0.00    +0.000 A 
ENDBRANCH   7  10
BRANCH   1  16
ATOM     16  C   UNL     1       4.495   4.268  15.867  0.00  0.00    +0.000 C 
BRANCH  16  17
ATOM     17  C   UNL     1       5.879   3.672  15.588  0.00  0.00    +0.000 C 
BRANCH  17  18
ATOM     18  C   UNL     1       6.900   4.750  15.232  0.00  0.00    +0.000 C 
BRANCH  18  21
ATOM     19  C   UNL     1       7.070   6.519  16.932  0.00  0.00    +0.000 C 
ATOM     20  O   UNL     1       6.125   7.155  16.478  0.00  0.00    +0.000 OA
ATOM     21  N   UNL     1       7.501   5.321  16.414  0.00  0.00    +0.000 N 
ATOM     22  H   UNL     1       8.226   4.797  16.885  0.00  0.00    +0.000 HD
BRANCH  19  23
ATOM     23  C   UNL     1       7.868   6.999  18.125  0.00  0.00    +0.000 C 
BRANCH  23  25
ATOM     24  C   UNL     1       6.579   5.308  19.510  0.00  0.00    +0.000 C 
ATOM     25  C   UNL     1       7.923   5.975  19.258  0.00  0.00    +0.000 C 
ENDBRANCH  23  25
ENDBRANCH  19  23
ENDBRANCH  18  21
ENDBRANCH  17  18
ENDBRANCH  16  17
ENDBRANCH   1  16
TORSDOF 7
ENDMDL
MODEL 4
REMARK VINA RESULT:      -7.9      4.185      6.869
REMARK  Name = 
REMARK  8 active torsions:
REMARK  status: ('A' for Active; 'I' for Inactive)
REMARK    1  A    between atoms: C_1  and  C_2
REMARK    2  A    between atoms: C_2  and  C_3
REMARK    3  A    between atoms: C_3  and  C_4
REMARK    4  A    between atoms: N_6  and  C_7
REMARK    5  A    between atoms: C_7  and  C_8
REMARK    6  A    between atoms: C_8  and  C_9
REMARK    7  A    between atoms: C_9  and  C_10
REMARK    8  A    between atoms: C_16  and  C_17
REMARK                            x       y       z     vdW  Elec       q    Type
REMARK                         _______ _______ _______ _____ _____    ______ ____
ROOT
ATOM      1  C   UNL     1       3.982   3.774  19.446  0.00  0.00    +0.000 A 
ATOM      2  C   UNL     1       3.755   2.595  20.184  0.00  0.00    +0.000 A 
ATOM      3  C   UNL     1       2.801   2.530  21.207  0.00  0.00    +0.000 A 
ATOM      4  C   UNL     1       2.024   3.645  21.545  0.00  0.00    +0.000 A 
ATOM      5  C   UNL     1       2.214   4.823  20.812  0.00  0.00    +0.000 A 
ATOM      6  N   UNL     1       1.606   6.046  20.918  0.00  0.00    +0.000 NA
ATOM      7  C   UNL     1       2.160   6.757  19.953  0.00  0.00    +0.000 A 
ATOM      8  O   UNL     1       3.131   6.094  19.243  0.00  0.00    +0.000 OA
ATOM      9  C   UNL     1       3.154   4.847  19.797  0.00  0.00    +0.000 A 
ENDROOT
BRANCH   7  10
ATOM     10  C   UNL     1       1.826   8.110  19.514  0.00  0.00    +0.000 A 
ATOM     11  C   UNL     1       1.100   8.950  20.374  0.00  0.00    +0.000 A 
ATOM     12  C   UNL     1       0.677  10.213  19.955  0.00  0.00    +0.000 A 
ATOM     13  C   UNL     1       0.983  10.655  18.670  0.00  0.00    +0.000 A 
ATOM     14  C   UNL     1       1.728   9.847  17.814  0.00  0.00    +0.000 A 
ATOM     15  C   UNL     1       2.153   8.583  18.236  0.00  0.00    +0.000 A 
ENDBRANCH   7  10
BRANCH   1  16
ATOM     16  C   UNL     1       5.086   3.856  18.428  0.00  0.00    +0.000 C 
BRANCH  16  17
ATOM     17  C   UNL     1       5.959   5.101  18.618  0.00  0.00    +0.000 C 
BRANCH  17  18
ATOM     18  C   UNL     1       6.474   5.642  17.286  0.00  0.00    +0.000 C 
BRANCH  18  21
ATOM     19  C   UNL     1       6.490   4.863  14.954  0.00  0.00    +0.000 C 
ATOM     20  O   UNL     1       7.629   5.266  14.745  0.00  0.00    +0.000 OA
ATOM     21  N   UNL     1       5.855   4.971  16.168  0.00  0.00    +0.000 N 
ATOM     22  H   UNL     1       4.952   4.538  16.307  0.00  0.00    +0.000 HD
BRANCH  19  23
ATOM     23  C   UNL     1       5.660   4.198  13.878  0.00  0.00    +0.000 C 
BRANCH  23  25
ATOM     24  C   UNL     1       5.822   2.677  11.852  0.00  0.00    +0.000 C 
ATOM     25  C   UNL     1       6.482   3.786  12.658  0.00  0.00    +0.000 C 
ENDBRANCH  23  25
ENDBRANCH  19  23
ENDBRANCH  18  21
ENDBRANCH  17  18
ENDBRANCH  16  17
ENDBRANCH   1  16
TORSDOF 7
ENDMDL
MODEL 5
REMARK VINA RESULT:      -7.9      0.816      1.117
REMARK  Name = 
REMARK  8 active torsions:
REMARK  status: ('A' for Active; 'I' for Inactive)
REMARK    1  A    between atoms: C_1  and  C_2
REMARK    2  A    between atoms: C_2  and  C_3
REMARK    3  A    between atoms: C_3  and  C_4
REMARK    4  A    between atoms: N_6  and  C_7
REMARK    5  A    between atoms: C_7  and  C_8
REMARK    6  A    between atoms: C_8  and  C_9
REMARK    7  A    between atoms: C_9  and  C_10
REMARK    8  A    between atoms: C_16  and  C_17
REMARK                            x       y       z     vdW  Elec       q    Type
REMARK                         _______ _______ _______ _____ _____    ______ ____
ROOT
ATOM      1  C   UNL     1       6.846   5.556  16.967  0.00  0.00    +0.000 A 
ATOM      2  C   UNL     1       7.312   5.472  15.641  0.00  0.00    +0.000 A 
ATOM      3  C   UNL     1       6.714   4.631  14.693  0.00  0.00    +0.000 A 
ATOM      4  C   UNL     1       5.617   3.828  15.028  0.00  0.00    +0.000 A 
ATOM      5  C   UNL     1       5.119   3.909  16.334  0.00  0.00    +0.000 A 
ATOM      6  N   UNL     1       4.076   3.253  16.932  0.00  0.00    +0.000 NA
ATOM      7  C   UNL     1       4.054   3.749  18.156  0.00  0.00    +0.000 A 
ATOM      8  O   UNL     1       5.047   4.659  18.420  0.00  0.00    +0.000 OA
ATOM      9  C   UNL     1       5.724   4.763  17.239  0.00  0.00    +0.000 A 
ENDROOT
BRANCH   7  10
ATOM     10  C   UNL     1       3.081   3.503  19.219  0.00  0.00    +0.000 A 
ATOM     11  C   UNL     1       3.532   3.045  20.467  0.00  0.00    +0.000 A 
ATOM     12  C   UNL     1       2.628   2.705  21.475  0.00  0.00    +0.000 A 
ATOM     13  C   UNL     1       1.259   2.826  21.249  0.00  0.00    +0.000 A 
ATOM     14  C   UNL     1       0.795   3.306  20.026  0.00  0.00    +0.000 A 
ATOM     15  C   UNL     1       1.701   3.648  19.018  0.00  0.00    +0.000 A 
ENDBRANCH   7  10
BRANCH   1  16
ATOM     16  C   UNL     1       7.568   6.380  17.997  0.00  0.00    +0.000 C 
BRANCH  16  17
ATOM     17  C   UNL     1       7.588   7.870  17.637  0.00  0.00    +0.000 C 
BRANCH  17  18
ATOM     18  C   UNL     1       8.518   8.662  18.553  0.00  0.00    +0.000 C 
BRANCH  18  21
ATOM     19  C   UNL     1       9.204  11.004  18.857  0.00  0.00    +0.000 C 
ATOM     20  O   UNL     1       9.481  10.851  20.042  0.00  0.00    +0.000 OA
ATOM     21  N   UNL     1       8.759   9.991  18.043  0.00  0.00    +0.000 N 
ATOM     22  H   UNL     1       8.634  10.154  17.053  0.00  0.00    +0.000 HD
BRANCH  19  23
ATOM     23  C   UNL     1       9.325  12.345  18.166  0.00  0.00    +0.000 C 
BRANCH  23  25
ATOM     24  C   UNL     1       7.460  14.013  17.740  0.00  0.00    +0.000 C 
ATOM     25  C   UNL     1       8.099  12.696  17.325  0.00  0.00    +0.000 C 
ENDBRANCH  23  25
ENDBRANCH  19  23
ENDBRANCH  18  21
ENDBRANCH  17  18
ENDBRANCH  16  17
ENDBRANCH   1  16
TORSDOF 7
ENDMDL
MODEL 6
REMARK VINA RESULT:      -7.9      4.735      6.975
REMARK  Name = 
REMARK  8 active torsions:
REMARK  status: ('A' for Active; 'I' for Inactive)
REMARK    1  A    between atoms: C_1  and  C_2
REMARK    2  A    between atoms: C_2  and  C_3
REMARK    3  A    between atoms: C_3  and  C_4
REMARK    4  A    between atoms: N_6  and  C_7
REMARK    5  A    between atoms: C_7  and  C_8
REMARK    6  A    between atoms: C_8  and  C_9
REMARK    7  A    between atoms: C_9  and  C_10
REMARK    8  A    between atoms: C_16  and  C_17
REMARK                            x       y       z     vdW  Elec       q    Type
REMARK                         _______ _______ _______ _____ _____    ______ ____
ROOT
ATOM      1  C   UNL     1       4.612   4.166  19.205  0.00  0.00    +0.000 A 
ATOM      2  C   UNL     1       4.496   2.863  19.726  0.00  0.00    +0.000 A 
ATOM      3  C   UNL     1       3.444   2.491  20.573  0.00  0.00    +0.000 A 
ATOM      4  C   UNL     1       2.453   3.409  20.942  0.00  0.00    +0.000 A 
ATOM      5  C   UNL     1       2.532   4.705  20.420  0.00  0.00    +0.000 A 
ATOM      6  N   UNL     1       1.718   5.791  20.604  0.00  0.00    +0.000 NA
ATOM      7  C   UNL     1       2.263   6.724  19.845  0.00  0.00    +0.000 A 
ATOM      8  O   UNL     1       3.414   6.337  19.204  0.00  0.00    +0.000 OA
ATOM      9  C   UNL     1       3.577   5.033  19.574  0.00  0.00    +0.000 A 
ENDROOT
BRANCH   7  10
ATOM     10  C   UNL     1       1.763   8.067  19.555  0.00  0.00    +0.000 A 
ATOM     11  C   UNL     1       2.004   8.630  18.291  0.00  0.00    +0.000 A 
ATOM     12  C   UNL     1       1.630   9.945  18.009  0.00  0.00    +0.000 A 
ATOM     13  C   UNL     1       1.003  10.713  18.987  0.00  0.00    +0.000 A 
ATOM     14  C   UNL     1       0.730  10.160  20.238  0.00  0.00    +0.000 A 
ATOM     15  C   UNL     1       1.103   8.843  20.519  0.00  0.00    +0.000 A 
ENDBRANCH   7  10
BRANCH   1  16
ATOM     16  C   UNL     1       5.807   4.575  18.388  0.00  0.00    +0.000 C 
BRANCH  16  17
ATOM     17  C   UNL     1       5.773   3.983  16.975  0.00  0.00    +0.000 C 
BRANCH  17  18
ATOM     18  C   UNL     1       5.381   5.027  15.932  0.00  0.00    +0.000 C 
BRANCH  18  21
ATOM     19  C   UNL     1       6.681   4.707  13.870  0.00  0.00    +0.000 C 
ATOM     20  O   UNL     1       7.678   5.263  14.319  0.00  0.00    +0.000 OA
ATOM     21  N   UNL     1       5.527   4.516  14.590  0.00  0.00    +0.000 N 
ATOM     22  H   UNL     1       4.771   3.970  14.199  0.00  0.00    +0.000 HD
BRANCH  19  23
ATOM     23  C   UNL     1       6.624   4.171  12.456  0.00  0.00    +0.000 C 
BRANCH  23  25
ATOM     24  C   UNL     1       4.480   3.291  11.422  0.00  0.00    +0.000 C 
ATOM     25  C   UNL     1       5.678   2.980  12.307  0.00  0.00    +0.000 C 
ENDBRANCH  23  25
ENDBRANCH  19  23
ENDBRANCH  18  21
ENDBRANCH  17  18
ENDBRANCH  16  17
ENDBRANCH   1  16
TORSDOF 7
ENDMDL
MODEL 7
REMARK VINA RESULT:      -7.8      3.142      5.352
REMARK  Name = 
REMARK  8 active torsions:
REMARK  status: ('A' for Active; 'I' for Inactive)
REMARK    1  A    between atoms: C_1  and  C_2
REMARK    2  A    between atoms: C_2  and  C_3
REMARK    3  A    between atoms: C_3  and  C_4
REMARK    4  A    between atoms: N_6  and  C_7
REMARK    5  A    between atoms: C_7  and  C_8
REMARK    6  A    between atoms: C_8  and  C_9
REMARK    7  A    between atoms: C_9  and  C_10
REMARK    8  A    between atoms: C_16  and  C_17
REMARK                            x       y       z     vdW  Elec       q    Type
REMARK                         _______ _______ _______ _____ _____    ______ ____
ROOT
ATOM      1  C   UNL     1       3.644   3.832  17.848  0.00  0.00    +0.000 A 
ATOM      2  C   UNL     1       3.627   2.548  18.426  0.00  0.00    +0.000 A 
ATOM      3  C   UNL     1       3.068   2.306  19.688  0.00  0.00    +0.000 A 
ATOM      4  C   UNL     1       2.498   3.343  20.437  0.00  0.00    +0.000 A 
ATOM      5  C   UNL     1       2.482   4.626  19.876  0.00  0.00    +0.000 A 
ATOM      6  N   UNL     1       1.998   5.808  20.370  0.00  0.00    +0.000 NA
ATOM      7  C   UNL     1       2.227   6.672  19.398  0.00  0.00    +0.000 A 
ATOM      8  O   UNL     1       2.875   6.144  18.307  0.00  0.00    +0.000 OA
ATOM      9  C   UNL     1       3.028   4.824  18.620  0.00  0.00    +0.000 A 
ENDROOT
BRANCH   7  10
ATOM     10  C   UNL     1       1.824   8.074  19.314  0.00  0.00    +0.000 A 
ATOM     11  C   UNL     1       1.225   8.683  20.429  0.00  0.00    +0.000 A 
ATOM     12  C   UNL     1       0.738   9.989  20.356  0.00  0.00    +0.000 A 
ATOM     13  C   UNL     1       0.850  10.707  19.168  0.00  0.00    +0.000 A 
ATOM     14  C   UNL     1       1.468  10.128  18.061  0.00  0.00    +0.000 A 
ATOM     15  C   UNL     1       1.958   8.821  18.135  0.00  0.00    +0.000 A 
ENDBRANCH   7  10
BRANCH   1  16
ATOM     16  C   UNL     1       4.345   4.090  16.543  0.00  0.00    +0.000 C 
BRANCH  16  17
ATOM     17  C   UNL     1       5.815   3.655  16.579  0.00  0.00    +0.000 C 
BRANCH  17  18
ATOM     18  C   UNL     1       6.721   4.662  15.874  0.00  0.00    +0.000 C 
BRANCH  18  21
ATOM     19  C   UNL     1       7.065   6.741  17.141  0.00  0.00    +0.000 C 
ATOM     20  O   UNL     1       6.048   7.268  16.702  0.00  0.00    +0.000 OA
ATOM     21  N   UNL     1       7.458   5.464  16.820  0.00  0.00    +0.000 N 
ATOM     22  H   UNL     1       8.256   5.050  17.284  0.00  0.00    +0.000 HD
BRANCH  19  23
ATOM     23  C   UNL     1       8.001   7.458  18.089  0.00  0.00    +0.000 C 
BRANCH  23  25
ATOM     24  C   UNL     1       8.974   9.685  18.821  0.00  0.00    +0.000 C 
ATOM     25  C   UNL     1       7.966   8.977  17.927  0.00  0.00    +0.000 C 
ENDBRANCH  23  25
ENDBRANCH  19  23
ENDBRANCH  18  21
ENDBRANCH  17  18
ENDBRANCH  16  17
ENDBRANCH   1  16
TORSDOF 7
ENDMDL
MODEL 8
REMARK VINA RESULT:      -7.8      3.758      6.720
REMARK  Name = 
REMARK  8 active torsions:
REMARK  status: ('A' for Active; 'I' for Inactive)
REMARK    1  A    between atoms: C_1  and  C_2
REMARK    2  A    between atoms: C_2  and  C_3
REMARK    3  A    between atoms: C_3  and  C_4
REMARK    4  A    between atoms: N_6  and  C_7
REMARK    5  A    between atoms: C_7  and  C_8
REMARK    6  A    between atoms: C_8  and  C_9
REMARK    7  A    between atoms: C_9  and  C_10
REMARK    8  A    between atoms: C_16  and  C_17
REMARK                            x       y       z     vdW  Elec       q    Type
REMARK                         _______ _______ _______ _____ _____    ______ ____
ROOT
ATOM      1  C   UNL     1       6.310   6.319  16.916  0.00  0.00    +0.000 A 
ATOM      2  C   UNL     1       7.610   6.712  17.289  0.00  0.00    +0.000 A 
ATOM      3  C   UNL     1       8.115   6.485  18.576  0.00  0.00    +0.000 A 
ATOM      4  C   UNL     1       7.341   5.852  19.556  0.00  0.00    +0.000 A 
ATOM      5  C   UNL     1       6.053   5.431  19.205  0.00  0.00    +0.000 A 
ATOM      6  N   UNL     1       5.090   4.797  19.944  0.00  0.00    +0.000 NA
ATOM      7  C   UNL     1       4.100   4.625  19.088  0.00  0.00    +0.000 A 
ATOM      8  O   UNL     1       4.329   5.147  17.838  0.00  0.00    +0.000 OA
ATOM      9  C   UNL     1       5.592   5.658  17.920  0.00  0.00    +0.000 A 
ENDROOT
BRANCH   7  10
ATOM     10  C   UNL     1       2.844   3.902  19.284  0.00  0.00    +0.000 A 
ATOM     11  C   UNL     1       2.165   4.027  20.506  0.00  0.00    +0.000 A 
ATOM     12  C   UNL     1       1.016   3.279  20.768  0.00  0.00    +0.000 A 
ATOM     13  C   UNL     1       0.527   2.398  19.806  0.00  0.00    +0.000 A 
ATOM     14  C   UNL     1       1.173   2.284  18.576  0.00  0.00    +0.000 A 
ATOM     15  C   UNL     1       2.322   3.036  18.313  0.00  0.00    +0.000 A 
ENDBRANCH   7  10
BRANCH   1  16
ATOM     16  C   UNL     1       5.747   6.671  15.566  0.00  0.00    +0.000 C 
BRANCH  16  17
ATOM     17  C   UNL     1       5.234   5.438  14.813  0.00  0.00    +0.000 C 
BRANCH  17  18
ATOM     18  C   UNL     1       6.367   4.476  14.462  0.00  0.00    +0.000 C 
BRANCH  18  21
ATOM     19  C   UNL     1       6.323   3.332  12.286  0.00  0.00    +0.000 C 
ATOM     20  O   UNL     1       7.135   4.098  11.778  0.00  0.00    +0.000 OA
ATOM     21  N   UNL     1       5.912   3.416  13.594  0.00  0.00    +0.000 N 
ATOM     22  H   UNL     1       5.311   2.702  13.983  0.00  0.00    +0.000 HD
BRANCH  19  23
ATOM     23  C   UNL     1       5.684   2.202  11.507  0.00  0.00    +0.000 C 
BRANCH  23  25
ATOM     24  C   UNL     1       6.240  -0.271  11.381  0.00  0.00    +0.000 C 
ATOM     25  C   UNL     1       6.690   1.146  11.053  0.00  0.00    +0.000 C 
ENDBRANCH  23  25
ENDBRANCH  19  23
ENDBRANCH  18  21
ENDBRANCH  17  18
ENDBRANCH  16  17
ENDBRANCH   1  16
TORSDOF 7
ENDMDL
MODEL 9
REMARK VINA RESULT:      -7.7      4.748      7.249
REMARK  Name = 
REMARK  8 active torsions:
REMARK  status: ('A' for Active; 'I' for Inactive)
REMARK    1  A    between atoms: C_1  and  C_2
REMARK    2  A    between atoms: C_2  and  C_3
REMARK    3  A    between atoms: C_3  and  C_4
REMARK    4  A    between atoms: N_6  and  C_7
REMARK    5  A    between atoms: C_7  and  C_8
REMARK    6  A    between atoms: C_8  and  C_9
REMARK    7  A    between atoms: C_9  and  C_10
REMARK    8  A    between atoms: C_16  and  C_17
REMARK                            x       y       z     vdW  Elec       q    Type
REMARK                         _______ _______ _______ _____ _____    ______ ____
ROOT
ATOM      1  C   UNL     1       2.721   3.567  18.599  0.00  0.00    +0.000 A 
ATOM      2  C   UNL     1       2.701   2.434  19.436  0.00  0.00    +0.000 A 
ATOM      3  C   UNL     1       2.393   2.522  20.800  0.00  0.00    +0.000 A 
ATOM      4  C   UNL     1       2.089   3.753  21.395  0.00  0.00    +0.000 A 
ATOM      5  C   UNL     1       2.081   4.891  20.581  0.00  0.00    +0.000 A 
ATOM      6  N   UNL     1       1.823   6.202  20.885  0.00  0.00    +0.000 NA
ATOM      7  C   UNL     1       1.929   6.820  19.723  0.00  0.00    +0.000 A 
ATOM      8  O   UNL     1       2.286   6.007  18.675  0.00  0.00    +0.000 OA
ATOM      9  C   UNL     1       2.374   4.765  19.235  0.00  0.00    +0.000 A 
ENDROOT
BRANCH   7  10
ATOM     10  C   UNL     1       1.653   8.220  19.410  0.00  0.00    +0.000 A 
ATOM     11  C   UNL     1       2.080   8.744  18.179  0.00  0.00    +0.000 A 
ATOM     12  C   UNL     1       1.923  10.100  17.883  0.00  0.00    +0.000 A 
ATOM     13  C   UNL     1       1.329  10.949  18.814  0.00  0.00    +0.000 A 
ATOM     14  C   UNL     1       0.873  10.439  20.028  0.00  0.00    +0.000 A 
ATOM     15  C   UNL     1       1.029   9.082  20.323  0.00  0.00    +0.000 A 
ENDBRANCH   7  10
BRANCH   1  16
ATOM     16  C   UNL     1       3.162   3.468  17.164  0.00  0.00    +0.000 C 
BRANCH  16  17
ATOM     17  C   UNL     1       4.681   3.610  17.014  0.00  0.00    +0.000 C 
BRANCH  17  18
ATOM     18  C   UNL     1       5.056   4.831  16.177  0.00  0.00    +0.000 C 
BRANCH  18  21
ATOM     19  C   UNL     1       6.584   4.671  14.257  0.00  0.00    +0.000 C 
ATOM     20  O   UNL     1       7.542   5.112  14.883  0.00  0.00    +0.000 OA
ATOM     21  N   UNL     1       5.342   4.468  14.810  0.00  0.00    +0.000 N 
ATOM     22  H   UNL     1       4.616   4.016  14.270  0.00  0.00    +0.000 HD
BRANCH  19  23
ATOM     23  C   UNL     1       6.677   4.303  12.792  0.00  0.00    +0.000 C 
BRANCH  23  25
ATOM     24  C   UNL     1       4.681   3.319  11.572  0.00  0.00    +0.000 C 
ATOM     25  C   UNL     1       5.895   3.037  12.444  0.00  0.00    +0.000 C 
ENDBRANCH  23  25
ENDBRANCH  19  23
ENDBRANCH  18  21
ENDBRANCH  17  18
ENDBRANCH  16  17
ENDBRANCH   1  16
TORSDOF 7
ENDMDL
