MODEL 1
REMARK VINA RESULT:      -6.3      0.000      0.000
REMARK  Name = 
REMARK  10 active torsions:
REMARK  status: ('A' for Active; 'I' for Inactive)
REMARK    1  A    between atoms: C_1  and  C_2
REMARK    2  A    between atoms: C_5  and  C_6
REMARK    3  A    between atoms: C_7  and  C_8
REMARK    4  A    between atoms: C_8  and  C_9
REMARK    5  A    between atoms: C_8  and  C_13
REMARK    6  A    between atoms: C_9  and  C_10
REMARK    7  A    between atoms: C_10  and  C_11
REMARK    8  A    between atoms: C_10  and  C_12
REMARK    9  A    between atoms: C_13  and  O_15
REMARK   10  A    between atoms: C_16  and  C_17
REMARK                            x       y       z     vdW  Elec       q    Type
REMARK                         _______ _______ _______ _____ _____    ______ ____
ROOT
ATOM      1  C   UNL     1      -2.158  12.001  20.121  0.00  0.00    +0.000 A 
ATOM      2  C   UNL     1      -0.974  11.199  19.724  0.00  0.00    +0.000 A 
ATOM      3  C   UNL     1      -0.991  10.601  18.444  0.00  0.00    +0.000 A 
ATOM      4  C   UNL     1       0.048   9.711  17.826  0.00  0.00    +0.000 C 
ATOM      5  N   UNL     1      -1.988  10.752  17.571  0.00  0.00    +0.000 NA
ATOM      6  C   UNL     1      -3.097  11.353  17.999  0.00  0.00    +0.000 A 
ATOM      7  S   UNL     1      -4.423  11.321  16.939  0.00  0.00    +0.000 S 
ATOM      8  C   UNL     1      -5.422  12.075  18.061  0.00  0.00    +0.000 A 
ATOM      9  C   UNL     1      -4.739  12.483  19.206  0.00  0.00    +0.000 A 
ATOM     10  C   UNL     1      -3.315  11.997  19.216  0.00  0.00    +0.000 A 
ATOM     11  C   UNL     1      -5.535  13.223  20.256  0.00  0.00    +0.000 C 
ATOM     12  C   UNL     1      -6.906  13.736  19.781  0.00  0.00    +0.000 C 
ATOM     13  C   UNL     1      -7.657  12.646  19.017  0.00  0.00    +0.000 C 
ATOM     14  C   UNL     1      -6.880  12.273  17.755  0.00  0.00    +0.000 C 
ENDROOT
BRANCH   1  19
ATOM     15  C   UNL     1      -3.171  15.131  24.980  0.00  0.00    +0.000 C 
ATOM     16  C   UNL     1      -2.754  14.290  23.811  0.00  0.00    +0.000 A 
ATOM     17  C   UNL     1      -1.954  14.801  22.794  0.00  0.00    +0.000 A 
ATOM     18  C   UNL     1      -1.764  14.079  21.599  0.00  0.00    +0.000 A 
ATOM     19  C   UNL     1      -2.235  12.764  21.420  0.00  0.00    +0.000 A 
ATOM     20  C   UNL     1      -2.832  12.211  22.562  0.00  0.00    +0.000 A 
ATOM     21  C   UNL     1      -3.200  12.979  23.682  0.00  0.00    +0.000 A 
ENDBRANCH   1  19
BRANCH   2  22
ATOM     22  C   UNL     1       0.157  10.895  20.740  0.00  0.00    +0.000 C 
BRANCH  22  23
ATOM     23  C   UNL     1      -0.120  10.103  22.020  0.00  0.00    +0.000 C 
ATOM     24  O   UNL     1       0.059  10.533  23.152  0.00  0.00    +0.000 OA
BRANCH  23  25
ATOM     25  O   UNL     1      -0.493   8.816  21.830  0.00  0.00    +0.000 OA
ATOM     26  H   UNL     1      -0.727   8.331  22.644  0.00  0.00    +0.000 HD
ENDBRANCH  23  25
ENDBRANCH  22  23
BRANCH  22  27
ATOM     27  C   UNL     1       1.110  12.094  21.003  0.00  0.00    +0.000 C 
BRANCH  27  28
ATOM     28  C   UNL     1       1.351  13.169  19.917  0.00  0.00    +0.000 C 
ATOM     29  C   UNL     1       1.788  14.525  20.455  0.00  0.00    +0.000 C 
ATOM     30  C   UNL     1       2.262  12.721  18.781  0.00  0.00    +0.000 C 
ENDBRANCH  27  28
ENDBRANCH  22  27
ENDBRANCH   2  22
TORSDOF 6
ENDMDL
MODEL 2
REMARK VINA RESULT:      -6.2      0.466      1.152
REMARK  Name = 
REMARK  10 active torsions:
REMARK  status: ('A' for Active; 'I' for Inactive)
REMARK    1  A    between atoms: C_1  and  C_2
REMARK    2  A    between atoms: C_5  and  C_6
REMARK    3  A    between atoms: C_7  and  C_8
REMARK    4  A    between atoms: C_8  and  C_9
REMARK    5  A    between atoms: C_8  and  C_13
REMARK    6  A    between atoms: C_9  and  C_10
REMARK    7  A    between atoms: C_10  and  C_11
REMARK    8  A    between atoms: C_10  and  C_12
REMARK    9  A    between atoms: C_13  and  O_15
REMARK   10  A    between atoms: C_16  and  C_17
REMARK                            x       y       z     vdW  Elec       q    Type
REMARK                         _______ _______ _______ _____ _____    ______ ____
ROOT
ATOM      1  C   UNL     1      -2.114  11.988  19.898  0.00  0.00    +0.000 A 
ATOM      2  C   UNL     1      -0.959  11.136  19.520  0.00  0.00    +0.000 A 
ATOM      3  C   UNL     1      -1.020  10.470  18.275  0.00  0.00    +0.000 A 
ATOM      4  C   UNL     1      -0.017   9.522  17.685  0.00  0.00    +0.000 C 
ATOM      5  N   UNL     1      -2.034  10.598  17.418  0.00  0.00    +0.000 NA
ATOM      6  C   UNL     1      -3.118  11.249  17.836  0.00  0.00    +0.000 A 
ATOM      7  S   UNL     1      -4.468  11.192  16.809  0.00  0.00    +0.000 S 
ATOM      8  C   UNL     1      -5.423  12.031  17.910  0.00  0.00    +0.000 A 
ATOM      9  C   UNL     1      -4.704  12.483  19.016  0.00  0.00    +0.000 A 
ATOM     10  C   UNL     1      -3.292  11.963  19.021  0.00  0.00    +0.000 A 
ATOM     11  C   UNL     1      -5.458  13.299  20.041  0.00  0.00    +0.000 C 
ATOM     12  C   UNL     1      -6.827  13.819  19.568  0.00  0.00    +0.000 C 
ATOM     13  C   UNL     1      -7.621  12.708  18.882  0.00  0.00    +0.000 C 
ATOM     14  C   UNL     1      -6.883  12.247  17.626  0.00  0.00    +0.000 C 
ENDROOT
BRANCH   1  19
ATOM     15  C   UNL     1      -1.510  15.021  24.885  0.00  0.00    +0.000 C 
ATOM     16  C   UNL     1      -1.826  14.322  23.597  0.00  0.00    +0.000 A 
ATOM     17  C   UNL     1      -2.572  13.149  23.569  0.00  0.00    +0.000 A 
ATOM     18  C   UNL     1      -2.662  12.385  22.388  0.00  0.00    +0.000 A 
ATOM     19  C   UNL     1      -2.143  12.822  21.155  0.00  0.00    +0.000 A 
ATOM     20  C   UNL     1      -1.605  14.117  21.189  0.00  0.00    +0.000 A 
ATOM     21  C   UNL     1      -1.333  14.802  22.388  0.00  0.00    +0.000 A 
ENDBRANCH   1  19
BRANCH   2  22
ATOM     22  C   UNL     1       0.188  10.860  20.526  0.00  0.00    +0.000 C 
BRANCH  22  23
ATOM     23  C   UNL     1      -0.062  10.074  21.815  0.00  0.00    +0.000 C 
ATOM     24  O   UNL     1      -0.515   8.936  21.854  0.00  0.00    +0.000 OA
BRANCH  23  25
ATOM     25  O   UNL     1       0.156  10.761  22.960  0.00  0.00    +0.000 OA
ATOM     26  H   UNL     1       0.946  10.484  23.462  0.00  0.00    +0.000 HD
ENDBRANCH  23  25
ENDBRANCH  22  23
BRANCH  22  27
ATOM     27  C   UNL     1       1.123  12.078  20.769  0.00  0.00    +0.000 C 
BRANCH  27  28
ATOM     28  C   UNL     1       1.442  13.073  19.628  0.00  0.00    +0.000 C 
ATOM     29  C   UNL     1       2.004  14.410  20.094  0.00  0.00    +0.000 C 
ATOM     30  C   UNL     1       2.294  12.491  18.507  0.00  0.00    +0.000 C 
ENDBRANCH  27  28
ENDBRANCH  22  27
ENDBRANCH   2  22
TORSDOF 6
ENDMDL
MODEL 3
REMARK VINA RESULT:      -6.2      1.447      2.313
REMARK  Name = 
REMARK  10 active torsions:
REMARK  status: ('A' for Active; 'I' for Inactive)
REMARK    1  A    between atoms: C_1  and  C_2
REMARK    2  A    between atoms: C_5  and  C_6
REMARK    3  A    between atoms: C_7  and  C_8
REMARK    4  A    between atoms: C_8  and  C_9
REMARK    5  A    between atoms: C_8  and  C_13
REMARK    6  A    between atoms: C_9  and  C_10
REMARK    7  A    between atoms: C_10  and  C_11
REMARK    8  A    between atoms: C_10  and  C_12
REMARK    9  A    between atoms: C_13  and  O_15
REMARK   10  A    between atoms: C_16  and  C_17
REMARK                            x       y       z     vdW  Elec       q    Type
REMARK                         _______ _______ _______ _____ _____    ______ ____
ROOT
ATOM      1  C   UNL     1      -1.971  12.338  20.203  0.00  0.00    +0.000 A 
ATOM      2  C   UNL     1      -0.691  11.671  19.859  0.00  0.00    +0.000 A 
ATOM      3  C   UNL     1      -0.659  10.894  18.679  0.00  0.00    +0.000 A 
ATOM      4  C   UNL     1       0.484  10.087  18.136  0.00  0.00    +0.000 C 
ATOM      5  N   UNL     1      -1.697  10.765  17.850  0.00  0.00    +0.000 NA
ATOM      6  C   UNL     1      -2.870  11.252  18.250  0.00  0.00    +0.000 A 
ATOM      7  S   UNL     1      -4.209  10.866  17.281  0.00  0.00    +0.000 S 
ATOM      8  C   UNL     1      -5.275  11.622  18.339  0.00  0.00    +0.000 A 
ATOM      9  C   UNL     1      -4.625  12.291  19.376  0.00  0.00    +0.000 A 
ATOM     10  C   UNL     1      -3.144  12.029  19.375  0.00  0.00    +0.000 A 
ATOM     11  C   UNL     1      -5.491  13.052  20.353  0.00  0.00    +0.000 C 
ATOM     12  C   UNL     1      -6.940  13.280  19.887  0.00  0.00    +0.000 C 
ATOM     13  C   UNL     1      -7.539  11.989  19.328  0.00  0.00    +0.000 C 
ATOM     14  C   UNL     1      -6.756  11.553  18.091  0.00  0.00    +0.000 C 
ENDROOT
BRANCH   1  19
ATOM     15  C   UNL     1      -3.289  15.987  24.607  0.00  0.00    +0.000 C 
ATOM     16  C   UNL     1      -2.789  15.044  23.554  0.00  0.00    +0.000 A 
ATOM     17  C   UNL     1      -2.079  15.498  22.447  0.00  0.00    +0.000 A 
ATOM     18  C   UNL     1      -1.820  14.640  21.360  0.00  0.00    +0.000 A 
ATOM     19  C   UNL     1      -2.123  13.265  21.384  0.00  0.00    +0.000 A 
ATOM     20  C   UNL     1      -2.625  12.814  22.613  0.00  0.00    +0.000 A 
ATOM     21  C   UNL     1      -3.068  13.684  23.626  0.00  0.00    +0.000 A 
ENDBRANCH   1  19
BRANCH   2  22
ATOM     22  C   UNL     1       0.506  11.692  20.843  0.00  0.00    +0.000 C 
BRANCH  22  23
ATOM     23  C   UNL     1       1.629  12.721  20.702  0.00  0.00    +0.000 C 
ATOM     24  O   UNL     1       1.956  13.513  21.579  0.00  0.00    +0.000 OA
BRANCH  23  25
ATOM     25  O   UNL     1       2.200  12.786  19.478  0.00  0.00    +0.000 OA
ATOM     26  H   UNL     1       1.691  12.358  18.763  0.00  0.00    +0.000 HD
ENDBRANCH  23  25
ENDBRANCH  22  23
BRANCH  22  27
ATOM     27  C   UNL     1       1.059  10.284  21.196  0.00  0.00    +0.000 C 
BRANCH  27  28
ATOM     28  C   UNL     1       0.303   9.357  22.179  0.00  0.00    +0.000 C 
ATOM     29  C   UNL     1      -0.545  10.087  23.211  0.00  0.00    +0.000 C 
ATOM     30  C   UNL     1      -0.499   8.250  21.507  0.00  0.00    +0.000 C 
ENDBRANCH  27  28
ENDBRANCH  22  27
ENDBRANCH   2  22
TORSDOF 6
ENDMDL
MODEL 4
REMARK VINA RESULT:      -6.1      2.005      2.771
REMARK  Name = 
REMARK  10 active torsions:
REMARK  status: ('A' for Active; 'I' for Inactive)
REMARK    1  A    between atoms: C_1  and  C_2
REMARK    2  A    between atoms: C_5  and  C_6
REMARK    3  A    between atoms: C_7  and  C_8
REMARK    4  A    between atoms: C_8  and  C_9
REMARK    5  A    between atoms: C_8  and  C_13
REMARK    6  A    between atoms: C_9  and  C_10
REMARK    7  A    between atoms: C_10  and  C_11
REMARK    8  A    between atoms: C_10  and  C_12
REMARK    9  A    between atoms: C_13  and  O_15
REMARK   10  A    between atoms: C_16  and  C_17
REMARK                            x       y       z     vdW  Elec       q    Type
REMARK                         _______ _______ _______ _____ _____    ______ ____
ROOT
ATOM      1  C   UNL     1      -2.479  12.390  20.030  0.00  0.00    +0.000 A 
ATOM      2  C   UNL     1      -1.665  11.524  19.142  0.00  0.00    +0.000 A 
ATOM      3  C   UNL     1      -2.326  10.889  18.067  0.00  0.00    +0.000 A 
ATOM      4  C   UNL     1      -1.750   9.934  17.062  0.00  0.00    +0.000 C 
ATOM      5  N   UNL     1      -3.621  11.058  17.792  0.00  0.00    +0.000 NA
ATOM      6  C   UNL     1      -4.359  11.722  18.680  0.00  0.00    +0.000 A 
ATOM      7  S   UNL     1      -6.035  11.718  18.412  0.00  0.00    +0.000 S 
ATOM      8  C   UNL     1      -6.331  12.551  19.842  0.00  0.00    +0.000 A 
ATOM      9  C   UNL     1      -5.162  12.961  20.482  0.00  0.00    +0.000 A 
ATOM     10  C   UNL     1      -3.931  12.411  19.814  0.00  0.00    +0.000 A 
ATOM     11  C   UNL     1      -5.318  13.768  21.751  0.00  0.00    +0.000 C 
ATOM     12  C   UNL     1      -6.732  14.328  21.987  0.00  0.00    +0.000 C 
ATOM     13  C   UNL     1      -7.789  13.251  21.746  0.00  0.00    +0.000 C 
ATOM     14  C   UNL     1      -7.745  12.805  20.285  0.00  0.00    +0.000 C 
ENDROOT
BRANCH   1  19
ATOM     15  C   UNL     1      -0.884  15.719  24.593  0.00  0.00    +0.000 C 
ATOM     16  C   UNL     1      -1.119  14.820  23.416  0.00  0.00    +0.000 A 
ATOM     17  C   UNL     1      -0.895  15.252  22.113  0.00  0.00    +0.000 A 
ATOM     18  C   UNL     1      -1.338  14.484  21.017  0.00  0.00    +0.000 A 
ATOM     19  C   UNL     1      -1.886  13.195  21.161  0.00  0.00    +0.000 A 
ATOM     20  C   UNL     1      -1.874  12.714  22.478  0.00  0.00    +0.000 A 
ATOM     21  C   UNL     1      -1.623  13.535  23.592  0.00  0.00    +0.000 A 
ENDBRANCH   1  19
BRANCH   2  22
ATOM     22  C   UNL     1      -0.188  11.200  19.484  0.00  0.00    +0.000 C 
BRANCH  22  23
ATOM     23  C   UNL     1       0.963  11.817  18.688  0.00  0.00    +0.000 C 
ATOM     24  O   UNL     1       1.167  13.021  18.588  0.00  0.00    +0.000 OA
BRANCH  23  25
ATOM     25  O   UNL     1       1.717  10.938  17.990  0.00  0.00    +0.000 OA
ATOM     26  H   UNL     1       2.659  10.910  18.243  0.00  0.00    +0.000 HD
ENDBRANCH  23  25
ENDBRANCH  22  23
BRANCH  22  27
ATOM     27  C   UNL     1       0.073   9.701  19.802  0.00  0.00    +0.000 C 
BRANCH  27  28
ATOM     28  C   UNL     1       0.622   9.266  21.183  0.00  0.00    +0.000 C 
ATOM     29  C   UNL     1      -0.384   9.367  22.323  0.00  0.00    +0.000 C 
ATOM     30  C   UNL     1       1.307   7.906  21.187  0.00  0.00    +0.000 C 
ENDBRANCH  27  28
ENDBRANCH  22  27
ENDBRANCH   2  22
TORSDOF 6
ENDMDL
MODEL 5
REMARK VINA RESULT:      -6.0      0.839      1.241
REMARK  Name = 
REMARK  10 active torsions:
REMARK  status: ('A' for Active; 'I' for Inactive)
REMARK    1  A    between atoms: C_1  and  C_2
REMARK    2  A    between atoms: C_5  and  C_6
REMARK    3  A    between atoms: C_7  and  C_8
REMARK    4  A    between atoms: C_8  and  C_9
REMARK    5  A    between atoms: C_8  and  C_13
REMARK    6  A    between atoms: C_9  and  C_10
REMARK    7  A    between atoms: C_10  and  C_11
REMARK    8  A    between atoms: C_10  and  C_12
REMARK    9  A    between atoms: C_13  and  O_15
REMARK   10  A    between atoms: C_16  and  C_17
REMARK                            x       y       z     vdW  Elec       q    Type
REMARK                         _______ _______ _______ _____ _____    ______ ____
ROOT
ATOM      1  C   UNL     1      -2.364  12.281  20.359  0.00  0.00    +0.000 A 
ATOM      2  C   UNL     1      -1.351  11.403  19.722  0.00  0.00    +0.000 A 
ATOM      3  C   UNL     1      -1.673  10.839  18.467  0.00  0.00    +0.000 A 
ATOM      4  C   UNL     1      -0.854   9.890  17.643  0.00  0.00    +0.000 C 
ATOM      5  N   UNL     1      -2.813  11.085  17.818  0.00  0.00    +0.000 NA
ATOM      6  C   UNL     1      -3.762  11.756  18.468  0.00  0.00    +0.000 A 
ATOM      7  S   UNL     1      -5.273  11.847  17.701  0.00  0.00    +0.000 S 
ATOM      8  C   UNL     1      -5.963  12.646  19.010  0.00  0.00    +0.000 A 
ATOM      9  C   UNL     1      -5.032  12.974  19.995  0.00  0.00    +0.000 A 
ATOM     10  C   UNL     1      -3.678  12.384  19.710  0.00  0.00    +0.000 A 
ATOM     11  C   UNL     1      -5.539  13.746  21.192  0.00  0.00    +0.000 C 
ATOM     12  C   UNL     1      -6.934  14.369  21.011  0.00  0.00    +0.000 C 
ATOM     13  C   UNL     1      -7.907  13.356  20.408  0.00  0.00    +0.000 C 
ATOM     14  C   UNL     1      -7.433  12.957  19.011  0.00  0.00    +0.000 C 
ENDROOT
BRANCH   1  19
ATOM     15  C   UNL     1      -2.116  15.385  25.333  0.00  0.00    +0.000 C 
ATOM     16  C   UNL     1      -2.016  14.532  24.104  0.00  0.00    +0.000 A 
ATOM     17  C   UNL     1      -1.363  14.977  22.960  0.00  0.00    +0.000 A 
ATOM     18  C   UNL     1      -1.477  14.267  21.747  0.00  0.00    +0.000 A 
ATOM     19  C   UNL     1      -2.117  13.016  21.653  0.00  0.00    +0.000 A 
ATOM     20  C   UNL     1      -2.555  12.505  22.883  0.00  0.00    +0.000 A 
ATOM     21  C   UNL     1      -2.624  13.282  24.055  0.00  0.00    +0.000 A 
ENDBRANCH   1  19
BRANCH   2  22
ATOM     22  C   UNL     1      -0.065  10.993  20.484  0.00  0.00    +0.000 C 
BRANCH  22  23
ATOM     23  C   UNL     1      -0.120  10.024  21.666  0.00  0.00    +0.000 C 
ATOM     24  O   UNL     1      -0.545   8.877  21.601  0.00  0.00    +0.000 OA
BRANCH  23  25
ATOM     25  O   UNL     1       0.246  10.549  22.858  0.00  0.00    +0.000 OA
ATOM     26  H   UNL     1       0.918  10.036  23.345  0.00  0.00    +0.000 HD
ENDBRANCH  23  25
ENDBRANCH  22  23
BRANCH  22  27
ATOM     27  C   UNL     1       0.915  12.169  20.752  0.00  0.00    +0.000 C 
BRANCH  27  28
ATOM     28  C   UNL     1       1.669  12.856  19.587  0.00  0.00    +0.000 C 
ATOM     29  C   UNL     1       2.095  11.914  18.468  0.00  0.00    +0.000 C 
ATOM     30  C   UNL     1       0.967  14.083  19.021  0.00  0.00    +0.000 C 
ENDBRANCH  27  28
ENDBRANCH  22  27
ENDBRANCH   2  22
TORSDOF 6
ENDMDL
MODEL 6
REMARK VINA RESULT:      -6.0      2.407      3.213
REMARK  Name = 
REMARK  10 active torsions:
REMARK  status: ('A' for Active; 'I' for Inactive)
REMARK    1  A    between atoms: C_1  and  C_2
REMARK    2  A    between atoms: C_5  and  C_6
REMARK    3  A    between atoms: C_7  and  C_8
REMARK    4  A    between atoms: C_8  and  C_9
REMARK    5  A    between atoms: C_8  and  C_13
REMARK    6  A    between atoms: C_9  and  C_10
REMARK    7  A    between atoms: C_10  and  C_11
REMARK    8  A    between atoms: C_10  and  C_12
REMARK    9  A    between atoms: C_13  and  O_15
REMARK   10  A    between atoms: C_16  and  C_17
REMARK                            x       y       z     vdW  Elec       q    Type
REMARK                         _______ _______ _______ _____ _____    ______ ____
ROOT
ATOM      1  C   UNL     1      -2.877  12.779  20.325  0.00  0.00    +0.000 A 
ATOM      2  C   UNL     1      -2.125  12.234  19.167  0.00  0.00    +0.000 A 
ATOM      3  C   UNL     1      -2.867  11.585  18.155  0.00  0.00    +0.000 A 
ATOM      4  C   UNL     1      -2.350  10.913  16.917  0.00  0.00    +0.000 C 
ATOM      5  N   UNL     1      -4.197  11.474  18.170  0.00  0.00    +0.000 NA
ATOM      6  C   UNL     1      -4.835  11.841  19.280  0.00  0.00    +0.000 A 
ATOM      7  S   UNL     1      -6.490  11.470  19.349  0.00  0.00    +0.000 S 
ATOM      8  C   UNL     1      -6.619  12.044  20.924  0.00  0.00    +0.000 A 
ATOM      9  C   UNL     1      -5.446  12.645  21.379  0.00  0.00    +0.000 A 
ATOM     10  C   UNL     1      -4.313  12.480  20.403  0.00  0.00    +0.000 A 
ATOM     11  C   UNL     1      -5.473  13.245  22.766  0.00  0.00    +0.000 C 
ATOM     12  C   UNL     1      -6.881  13.424  23.362  0.00  0.00    +0.000 C 
ATOM     13  C   UNL     1      -7.718  12.162  23.163  0.00  0.00    +0.000 C 
ATOM     14  C   UNL     1      -7.916  11.905  21.670  0.00  0.00    +0.000 C 
ENDROOT
BRANCH   1  19
ATOM     15  C   UNL     1      -1.006  15.842  24.968  0.00  0.00    +0.000 C 
ATOM     16  C   UNL     1      -1.314  15.058  23.727  0.00  0.00    +0.000 A 
ATOM     17  C   UNL     1      -1.515  15.684  22.501  0.00  0.00    +0.000 A 
ATOM     18  C   UNL     1      -2.027  14.963  21.404  0.00  0.00    +0.000 A 
ATOM     19  C   UNL     1      -2.223  13.569  21.431  0.00  0.00    +0.000 A 
ATOM     20  C   UNL     1      -1.785  12.955  22.613  0.00  0.00    +0.000 A 
ATOM     21  C   UNL     1      -1.460  13.676  23.776  0.00  0.00    +0.000 A 
ENDBRANCH   1  19
BRANCH   2  22
ATOM     22  C   UNL     1      -0.575  12.232  19.156  0.00  0.00    +0.000 C 
BRANCH  22  23
ATOM     23  C   UNL     1       0.214  13.344  18.461  0.00  0.00    +0.000 C 
ATOM     24  O   UNL     1       1.393  13.259  18.142  0.00  0.00    +0.000 OA
BRANCH  23  25
ATOM     25  O   UNL     1      -0.454  14.509  18.300  0.00  0.00    +0.000 OA
ATOM     26  H   UNL     1      -1.006  14.775  19.060  0.00  0.00    +0.000 HD
ENDBRANCH  23  25
ENDBRANCH  22  23
BRANCH  22  27
ATOM     27  C   UNL     1       0.054  10.835  18.898  0.00  0.00    +0.000 C 
BRANCH  27  28
ATOM     28  C   UNL     1       0.249   9.826  20.056  0.00  0.00    +0.000 C 
ATOM     29  C   UNL     1       1.349   8.799  19.821  0.00  0.00    +0.000 C 
ATOM     30  C   UNL     1       0.395  10.467  21.430  0.00  0.00    +0.000 C 
ENDBRANCH  27  28
ENDBRANCH  22  27
ENDBRANCH   2  22
TORSDOF 6
ENDMDL
MODEL 7
REMARK VINA RESULT:      -5.9      2.622      5.074
REMARK  Name = 
REMARK  10 active torsions:
REMARK  status: ('A' for Active; 'I' for Inactive)
REMARK    1  A    between atoms: C_1  and  C_2
REMARK    2  A    between atoms: C_5  and  C_6
REMARK    3  A    between atoms: C_7  and  C_8
REMARK    4  A    between atoms: C_8  and  C_9
REMARK    5  A    between atoms: C_8  and  C_13
REMARK    6  A    between atoms: C_9  and  C_10
REMARK    7  A    between atoms: C_10  and  C_11
REMARK    8  A    between atoms: C_10  and  C_12
REMARK    9  A    between atoms: C_13  and  O_15
REMARK   10  A    between atoms: C_16  and  C_17
REMARK                            x       y       z     vdW  Elec       q    Type
REMARK                         _______ _______ _______ _____ _____    ______ ____
ROOT
ATOM      1  C   UNL     1      -2.314  13.063  19.933  0.00  0.00    +0.000 A 
ATOM      2  C   UNL     1      -2.829  12.050  18.979  0.00  0.00    +0.000 A 
ATOM      3  C   UNL     1      -4.221  11.806  18.976  0.00  0.00    +0.000 A 
ATOM      4  C   UNL     1      -4.983  10.809  18.153  0.00  0.00    +0.000 C 
ATOM      5  N   UNL     1      -5.088  12.461  19.751  0.00  0.00    +0.000 NA
ATOM      6  C   UNL     1      -4.591  13.259  20.695  0.00  0.00    +0.000 A 
ATOM      7  S   UNL     1      -5.709  13.891  21.805  0.00  0.00    +0.000 S 
ATOM      8  C   UNL     1      -4.497  14.632  22.703  0.00  0.00    +0.000 A 
ATOM      9  C   UNL     1      -3.240  14.525  22.109  0.00  0.00    +0.000 A 
ATOM     10  C   UNL     1      -3.263  13.632  20.898  0.00  0.00    +0.000 A 
ATOM     11  C   UNL     1      -2.087  15.207  22.809  0.00  0.00    +0.000 C 
ATOM     12  C   UNL     1      -2.500  16.218  23.893  0.00  0.00    +0.000 C 
ATOM     13  C   UNL     1      -3.578  15.628  24.802  0.00  0.00    +0.000 C 
ATOM     14  C   UNL     1      -4.837  15.339  23.985  0.00  0.00    +0.000 C 
ENDROOT
BRANCH   1  19
ATOM     15  C   UNL     1       3.439  14.173  19.596  0.00  0.00    +0.000 C 
ATOM     16  C   UNL     1       1.959  14.030  19.792  0.00  0.00    +0.000 A 
ATOM     17  C   UNL     1       1.431  13.361  20.891  0.00  0.00    +0.000 A 
ATOM     18  C   UNL     1       0.061  13.036  20.942  0.00  0.00    +0.000 A 
ATOM     19  C   UNL     1      -0.866  13.484  19.981  0.00  0.00    +0.000 A 
ATOM     20  C   UNL     1      -0.320  14.349  19.022  0.00  0.00    +0.000 A 
ATOM     21  C   UNL     1       1.065  14.521  18.846  0.00  0.00    +0.000 A 
ENDBRANCH   1  19
BRANCH   2  22
ATOM     22  C   UNL     1      -1.857  11.179  18.143  0.00  0.00    +0.000 C 
BRANCH  22  23
ATOM     23  C   UNL     1      -2.224  10.715  16.732  0.00  0.00    +0.000 C 
ATOM     24  O   UNL     1      -2.254   9.543  16.375  0.00  0.00    +0.000 OA
BRANCH  23  25
ATOM     25  O   UNL     1      -2.422  11.707  15.833  0.00  0.00    +0.000 OA
ATOM     26  H   UNL     1      -2.384  11.429  14.899  0.00  0.00    +0.000 HD
ENDBRANCH  23  25
ENDBRANCH  22  23
BRANCH  22  27
ATOM     27  C   UNL     1      -1.160  10.052  18.954  0.00  0.00    +0.000 C 
BRANCH  27  28
ATOM     28  C   UNL     1       0.376  10.046  19.146  0.00  0.00    +0.000 C 
ATOM     29  C   UNL     1       0.849   9.402  20.442  0.00  0.00    +0.000 C 
ATOM     30  C   UNL     1       1.155   9.499  17.957  0.00  0.00    +0.000 C 
ENDBRANCH  27  28
ENDBRANCH  22  27
ENDBRANCH   2  22
TORSDOF 6
ENDMDL
MODEL 8
REMARK VINA RESULT:      -5.9      2.447      5.106
REMARK  Name = 
REMARK  10 active torsions:
REMARK  status: ('A' for Active; 'I' for Inactive)
REMARK    1  A    between atoms: C_1  and  C_2
REMARK    2  A    between atoms: C_5  and  C_6
REMARK    3  A    between atoms: C_7  and  C_8
REMARK    4  A    between atoms: C_8  and  C_9
REMARK    5  A    between atoms: C_8  and  C_13
REMARK    6  A    between atoms: C_9  and  C_10
REMARK    7  A    between atoms: C_10  and  C_11
REMARK    8  A    between atoms: C_10  and  C_12
REMARK    9  A    between atoms: C_13  and  O_15
REMARK   10  A    between atoms: C_16  and  C_17
REMARK                            x       y       z     vdW  Elec       q    Type
REMARK                         _______ _______ _______ _____ _____    ______ ____
ROOT
ATOM      1  C   UNL     1      -3.001  11.904  19.710  0.00  0.00    +0.000 A 
ATOM      2  C   UNL     1      -1.903  11.953  20.708  0.00  0.00    +0.000 A 
ATOM      3  C   UNL     1      -2.190  12.533  21.964  0.00  0.00    +0.000 A 
ATOM      4  C   UNL     1      -1.254  12.747  23.118  0.00  0.00    +0.000 C 
ATOM      5  N   UNL     1      -3.393  12.999  22.306  0.00  0.00    +0.000 NA
ATOM      6  C   UNL     1      -4.319  13.075  21.352  0.00  0.00    +0.000 A 
ATOM      7  S   UNL     1      -5.754  13.883  21.765  0.00  0.00    +0.000 S 
ATOM      8  C   UNL     1      -6.364  13.733  20.206  0.00  0.00    +0.000 A 
ATOM      9  C   UNL     1      -5.553  12.956  19.379  0.00  0.00    +0.000 A 
ATOM     10  C   UNL     1      -4.256  12.588  20.047  0.00  0.00    +0.000 A 
ATOM     11  C   UNL     1      -6.040  12.712  17.969  0.00  0.00    +0.000 C 
ATOM     12  C   UNL     1      -7.521  13.056  17.732  0.00  0.00    +0.000 C 
ATOM     13  C   UNL     1      -7.864  14.420  18.330  0.00  0.00    +0.000 C 
ATOM     14  C   UNL     1      -7.673  14.379  19.846  0.00  0.00    +0.000 C 
ENDROOT
BRANCH   1  19
ATOM     15  C   UNL     1      -3.067   9.689  14.276  0.00  0.00    +0.000 C 
ATOM     16  C   UNL     1      -2.895  10.169  15.686  0.00  0.00    +0.000 A 
ATOM     17  C   UNL     1      -3.270   9.387  16.773  0.00  0.00    +0.000 A 
ATOM     18  C   UNL     1      -3.318   9.937  18.070  0.00  0.00    +0.000 A 
ATOM     19  C   UNL     1      -2.859  11.235  18.365  0.00  0.00    +0.000 A 
ATOM     20  C   UNL     1      -2.276  11.896  17.274  0.00  0.00    +0.000 A 
ATOM     21  C   UNL     1      -2.399  11.442  15.949  0.00  0.00    +0.000 A 
ENDBRANCH   1  19
BRANCH   2  22
ATOM     22  C   UNL     1      -0.461  11.535  20.323  0.00  0.00    +0.000 C 
BRANCH  22  23
ATOM     23  C   UNL     1       0.387  12.393  19.382  0.00  0.00    +0.000 C 
ATOM     24  O   UNL     1       0.430  13.617  19.411  0.00  0.00    +0.000 OA
BRANCH  23  25
ATOM     25  O   UNL     1       1.037  11.711  18.411  0.00  0.00    +0.000 OA
ATOM     26  H   UNL     1       1.124  10.752  18.570  0.00  0.00    +0.000 HD
ENDBRANCH  23  25
ENDBRANCH  22  23
BRANCH  22  27
ATOM     27  C   UNL     1      -0.301  10.020  20.019  0.00  0.00    +0.000 C 
BRANCH  27  28
ATOM     28  C   UNL     1       0.109   9.025  21.132  0.00  0.00    +0.000 C 
ATOM     29  C   UNL     1       1.360   8.213  20.825  0.00  0.00    +0.000 C 
ATOM     30  C   UNL     1       0.194   9.640  22.523  0.00  0.00    +0.000 C 
ENDBRANCH  27  28
ENDBRANCH  22  27
ENDBRANCH   2  22
TORSDOF 6
ENDMDL
MODEL 9
REMARK VINA RESULT:      -5.8      1.969      2.649
REMARK  Name = 
REMARK  10 active torsions:
REMARK  status: ('A' for Active; 'I' for Inactive)
REMARK    1  A    between atoms: C_1  and  C_2
REMARK    2  A    between atoms: C_5  and  C_6
REMARK    3  A    between atoms: C_7  and  C_8
REMARK    4  A    between atoms: C_8  and  C_9
REMARK    5  A    between atoms: C_8  and  C_13
REMARK    6  A    between atoms: C_9  and  C_10
REMARK    7  A    between atoms: C_10  and  C_11
REMARK    8  A    between atoms: C_10  and  C_12
REMARK    9  A    between atoms: C_13  and  O_15
REMARK   10  A    between atoms: C_16  and  C_17
REMARK                            x       y       z     vdW  Elec       q    Type
REMARK                         _______ _______ _______ _____ _____    ______ ____
ROOT
ATOM      1  C   UNL     1      -3.042  12.616  19.843  0.00  0.00    +0.000 A 
ATOM      2  C   UNL     1      -2.423  12.045  18.621  0.00  0.00    +0.000 A 
ATOM      3  C   UNL     1      -3.276  11.388  17.705  0.00  0.00    +0.000 A 
ATOM      4  C   UNL     1      -2.900  10.690  16.430  0.00  0.00    +0.000 C 
ATOM      5  N   UNL     1      -4.597  11.291  17.864  0.00  0.00    +0.000 NA
ATOM      6  C   UNL     1      -5.109  11.682  19.030  0.00  0.00    +0.000 A 
ATOM      7  S   UNL     1      -6.750  11.330  19.282  0.00  0.00    +0.000 S 
ATOM      8  C   UNL     1      -6.705  11.930  20.851  0.00  0.00    +0.000 A 
ATOM      9  C   UNL     1      -5.484  12.526  21.169  0.00  0.00    +0.000 A 
ATOM     10  C   UNL     1      -4.464  12.333  20.080  0.00  0.00    +0.000 A 
ATOM     11  C   UNL     1      -5.358  13.148  22.540  0.00  0.00    +0.000 C 
ATOM     12  C   UNL     1      -6.691  13.352  23.280  0.00  0.00    +0.000 C 
ATOM     13  C   UNL     1      -7.557  12.095  23.193  0.00  0.00    +0.000 C 
ATOM     14  C   UNL     1      -7.916  11.817  21.734  0.00  0.00    +0.000 C 
ENDROOT
BRANCH   1  19
ATOM     15  C   UNL     1      -0.629  15.659  24.242  0.00  0.00    +0.000 C 
ATOM     16  C   UNL     1      -1.087  14.895  23.036  0.00  0.00    +0.000 A 
ATOM     17  C   UNL     1      -1.531  15.542  21.888  0.00  0.00    +0.000 A 
ATOM     18  C   UNL     1      -2.171  14.821  20.860  0.00  0.00    +0.000 A 
ATOM     19  C   UNL     1      -2.266  13.416  20.859  0.00  0.00    +0.000 A 
ATOM     20  C   UNL     1      -1.597  12.799  21.925  0.00  0.00    +0.000 A 
ATOM     21  C   UNL     1      -1.131  13.504  23.049  0.00  0.00    +0.000 A 
ENDBRANCH   1  19
BRANCH   2  22
ATOM     22  C   UNL     1      -0.884  12.026  18.444  0.00  0.00    +0.000 C 
BRANCH  22  23
ATOM     23  C   UNL     1      -0.038  10.872  18.987  0.00  0.00    +0.000 C 
ATOM     24  O   UNL     1      -0.003  10.535  20.164  0.00  0.00    +0.000 OA
BRANCH  23  25
ATOM     25  O   UNL     1       0.779  10.284  18.084  0.00  0.00    +0.000 OA
ATOM     26  H   UNL     1       0.504   9.392  17.800  0.00  0.00    +0.000 HD
ENDBRANCH  23  25
ENDBRANCH  22  23
BRANCH  22  27
ATOM     27  C   UNL     1      -0.202  13.401  18.689  0.00  0.00    +0.000 C 
BRANCH  27  28
ATOM     28  C   UNL     1       1.261  13.485  19.186  0.00  0.00    +0.000 C 
ATOM     29  C   UNL     1       2.304  13.540  18.077  0.00  0.00    +0.000 C 
ATOM     30  C   UNL     1       1.513  14.577  20.218  0.00  0.00    +0.000 C 
ENDBRANCH  27  28
ENDBRANCH  22  27
ENDBRANCH   2  22
TORSDOF 6
ENDMDL
