MODEL 1
REMARK VINA RESULT:      -8.4      0.000      0.000
REMARK  Name = 
REMARK  5 active torsions:
REMARK  status: ('A' for Active; 'I' for Inactive)
REMARK    1  A    between atoms: N_8  and  C_9
REMARK    2  A    between atoms: C_9  and  C_10
REMARK    3  A    between atoms: C_20  and  C_21
REMARK    4  A    between atoms: C_24  and  O_25
REMARK    5  A    between atoms: C_27  and  O_28
REMARK                            x       y       z     vdW  Elec       q    Type
REMARK                         _______ _______ _______ _____ _____    ______ ____
ROOT
ATOM      1  O   UNL     1       2.790   3.410  20.630  0.00  0.00    +0.000 OA
ATOM      2  C   UNL     1       2.813   4.498  20.072  0.00  0.00    +0.000 C 
ATOM      3  N   UNL     1       2.130   5.619  20.502  0.00  0.00    +0.000 NA
ATOM      4  C   UNL     1       2.263   6.639  19.714  0.00  0.00    +0.000 C 
ATOM      5  N   UNL     1       1.674   7.871  19.902  0.00  0.00    +0.000 N 
ATOM      6  C   UNL     1       1.806   8.998  18.965  0.00  0.00    +0.000 C 
ATOM      7  C   UNL     1       0.534   9.881  18.956  0.00  0.00    +0.000 C 
ATOM      8  N   UNL     1       0.058  10.322  20.286  0.00  0.00    +0.000 NA
ATOM      9  C   UNL     1      -0.082   9.114  21.135  0.00  0.00    +0.000 C 
ATOM     10  C   UNL     1       1.187   8.247  21.240  0.00  0.00    +0.000 C 
ATOM     11  S   UNL     1       3.287   6.374  18.312  0.00  0.00    +0.000 S 
ATOM     12  C   UNL     1       3.590   4.768  18.833  0.00  0.00    +0.000 C 
ATOM     13  C   UNL     1       4.421   3.885  18.267  0.00  0.00    +0.000 C 
ENDROOT
BRANCH  13  14
ATOM     14  C   UNL     1       5.292   4.212  17.131  0.00  0.00    +0.000 A 
ATOM     15  C   UNL     1       4.759   4.349  15.842  0.00  0.00    +0.000 A 
ATOM     16  C   UNL     1       5.582   4.719  14.775  0.00  0.00    +0.000 A 
ATOM     17  C   UNL     1       6.937   4.951  15.002  0.00  0.00    +0.000 A 
ATOM     18  C   UNL     1       7.483   4.826  16.274  0.00  0.00    +0.000 A 
ATOM     19  C   UNL     1       6.657   4.461  17.334  0.00  0.00    +0.000 A 
BRANCH  17  20
ATOM     20  O   UNL     1       7.776   5.315  13.990  0.00  0.00    +0.000 OA
ATOM     21  H   UNL     1       7.320   5.179  13.142  0.00  0.00    +0.000 HD
ENDBRANCH  17  20
BRANCH  19  22
ATOM     22  O   UNL     1       7.170   4.362  18.600  0.00  0.00    +0.000 OA
ATOM     23  H   UNL     1       6.647   3.713  19.100  0.00  0.00    +0.000 HD
ENDBRANCH  19  22
ENDBRANCH  13  14
BRANCH   8  24
ATOM     24  C   UNL     1       0.979  11.327  20.845  0.00  0.00    +0.000 C 
BRANCH  24  25
ATOM     25  C   UNL     1       0.936  12.675  20.160  0.00  0.00    +0.000 A 
ATOM     26  C   UNL     1       2.124  13.278  19.719  0.00  0.00    +0.000 A 
ATOM     27  C   UNL     1       2.091  14.502  19.050  0.00  0.00    +0.000 A 
ATOM     28  C   UNL     1       0.875  15.135  18.817  0.00  0.00    +0.000 A 
ATOM     29  C   UNL     1      -0.311  14.549  19.256  0.00  0.00    +0.000 A 
ATOM     30  C   UNL     1      -0.283  13.326  19.925  0.00  0.00    +0.000 A 
ENDBRANCH  24  25
ENDBRANCH   8  24
TORSDOF 5
ENDMDL
MODEL 2
REMARK VINA RESULT:      -8.4      0.487      1.033
REMARK  Name = 
REMARK  5 active torsions:
REMARK  status: ('A' for Active; 'I' for Inactive)
REMARK    1  A    between atoms: N_8  and  C_9
REMARK    2  A    between atoms: C_9  and  C_10
REMARK    3  A    between atoms: C_20  and  C_21
REMARK    4  A    between atoms: C_24  and  O_25
REMARK    5  A    between atoms: C_27  and  O_28
REMARK                            x       y       z     vdW  Elec       q    Type
REMARK                         _______ _______ _______ _____ _____    ______ ____
ROOT
ATOM      1  O   UNL     1       2.413   3.643  21.058  0.00  0.00    +0.000 OA
ATOM      2  C   UNL     1       2.493   4.709  20.462  0.00  0.00    +0.000 C 
ATOM      3  N   UNL     1       1.818   5.861  20.814  0.00  0.00    +0.000 NA
ATOM      4  C   UNL     1       2.018   6.847  19.997  0.00  0.00    +0.000 C 
ATOM      5  N   UNL     1       1.451   8.099  20.108  0.00  0.00    +0.000 N 
ATOM      6  C   UNL     1       1.662   9.186  19.139  0.00  0.00    +0.000 C 
ATOM      7  C   UNL     1       0.415  10.097  19.028  0.00  0.00    +0.000 C 
ATOM      8  N   UNL     1      -0.120  10.599  20.313  0.00  0.00    +0.000 NA
ATOM      9  C   UNL     1      -0.336   9.429  21.196  0.00  0.00    +0.000 C 
ATOM     10  C   UNL     1       0.902   8.537  21.403  0.00  0.00    +0.000 C 
ATOM     11  S   UNL     1       3.110   6.506  18.664  0.00  0.00    +0.000 S 
ATOM     12  C   UNL     1       3.343   4.914  19.259  0.00  0.00    +0.000 C 
ATOM     13  C   UNL     1       4.181   3.991  18.772  0.00  0.00    +0.000 C 
ENDROOT
BRANCH  13  14
ATOM     14  C   UNL     1       5.120   4.254  17.674  0.00  0.00    +0.000 A 
ATOM     15  C   UNL     1       4.706   4.134  16.341  0.00  0.00    +0.000 A 
ATOM     16  C   UNL     1       5.587   4.444  15.300  0.00  0.00    +0.000 A 
ATOM     17  C   UNL     1       6.877   4.874  15.598  0.00  0.00    +0.000 A 
ATOM     18  C   UNL     1       7.304   5.005  16.915  0.00  0.00    +0.000 A 
ATOM     19  C   UNL     1       6.422   4.699  17.948  0.00  0.00    +0.000 A 
BRANCH  17  20
ATOM     20  O   UNL     1       7.768   5.188  14.614  0.00  0.00    +0.000 OA
ATOM     21  H   UNL     1       7.307   5.173  13.759  0.00  0.00    +0.000 HD
ENDBRANCH  17  20
BRANCH  19  22
ATOM     22  O   UNL     1       6.813   4.851  19.251  0.00  0.00    +0.000 OA
ATOM     23  H   UNL     1       6.058   5.180  19.767  0.00  0.00    +0.000 HD
ENDBRANCH  19  22
ENDBRANCH  13  14
BRANCH   8  24
ATOM     24  C   UNL     1       0.794  11.604  20.884  0.00  0.00    +0.000 C 
BRANCH  24  25
ATOM     25  C   UNL     1       0.858  12.909  20.122  0.00  0.00    +0.000 A 
ATOM     26  C   UNL     1      -0.311  13.656  19.908  0.00  0.00    +0.000 A 
ATOM     27  C   UNL     1      -0.256  14.880  19.241  0.00  0.00    +0.000 A 
ATOM     28  C   UNL     1       0.962  15.368  18.782  0.00  0.00    +0.000 A 
ATOM     29  C   UNL     1       2.128  14.633  18.983  0.00  0.00    +0.000 A 
ATOM     30  C   UNL     1       2.078  13.408  19.649  0.00  0.00    +0.000 A 
ENDBRANCH  24  25
ENDBRANCH   8  24
TORSDOF 5
ENDMDL
MODEL 3
REMARK VINA RESULT:      -8.4      1.229      1.746
REMARK  Name = 
REMARK  5 active torsions:
REMARK  status: ('A' for Active; 'I' for Inactive)
REMARK    1  A    between atoms: N_8  and  C_9
REMARK    2  A    between atoms: C_9  and  C_10
REMARK    3  A    between atoms: C_20  and  C_21
REMARK    4  A    between atoms: C_24  and  O_25
REMARK    5  A    between atoms: C_27  and  O_28
REMARK                            x       y       z     vdW  Elec       q    Type
REMARK                         _______ _______ _______ _____ _____    ______ ____
ROOT
ATOM      1  O   UNL     1       2.882   3.400  20.689  0.00  0.00    +0.000 OA
ATOM      2  C   UNL     1       2.883   4.483  20.121  0.00  0.00    +0.000 C 
ATOM      3  N   UNL     1       2.183   5.596  20.542  0.00  0.00    +0.000 NA
ATOM      4  C   UNL     1       2.295   6.610  19.744  0.00  0.00    +0.000 C 
ATOM      5  N   UNL     1       1.684   7.834  19.922  0.00  0.00    +0.000 N 
ATOM      6  C   UNL     1       1.793   8.954  18.973  0.00  0.00    +0.000 C 
ATOM      7  C   UNL     1       0.505   9.813  18.960  0.00  0.00    +0.000 C 
ATOM      8  N   UNL     1       0.025  10.259  20.287  0.00  0.00    +0.000 NA
ATOM      9  C   UNL     1      -0.090   9.057  21.148  0.00  0.00    +0.000 C 
ATOM     10  C   UNL     1       1.194   8.214  21.258  0.00  0.00    +0.000 C 
ATOM     11  S   UNL     1       3.319   6.350  18.342  0.00  0.00    +0.000 S 
ATOM     12  C   UNL     1       3.652   4.755  18.877  0.00  0.00    +0.000 C 
ATOM     13  C   UNL     1       4.497   3.882  18.317  0.00  0.00    +0.000 C 
ENDROOT
BRANCH  13  14
ATOM     14  C   UNL     1       5.359   4.213  17.175  0.00  0.00    +0.000 A 
ATOM     15  C   UNL     1       4.846   4.202  15.870  0.00  0.00    +0.000 A 
ATOM     16  C   UNL     1       5.654   4.576  14.793  0.00  0.00    +0.000 A 
ATOM     17  C   UNL     1       6.972   4.961  15.026  0.00  0.00    +0.000 A 
ATOM     18  C   UNL     1       7.498   4.984  16.312  0.00  0.00    +0.000 A 
ATOM     19  C   UNL     1       6.687   4.614  17.383  0.00  0.00    +0.000 A 
BRANCH  17  20
ATOM     20  O   UNL     1       7.795   5.335  14.004  0.00  0.00    +0.000 OA
ATOM     21  H   UNL     1       7.518   4.873  13.195  0.00  0.00    +0.000 HD
ENDBRANCH  17  20
BRANCH  19  22
ATOM     22  O   UNL     1       7.176   4.659  18.661  0.00  0.00    +0.000 OA
ATOM     23  H   UNL     1       8.130   4.840  18.624  0.00  0.00    +0.000 HD
ENDBRANCH  19  22
ENDBRANCH  13  14
BRANCH   8  24
ATOM     24  C   UNL     1       0.930  11.286  20.833  0.00  0.00    +0.000 C 
BRANCH  24  25
ATOM     25  C   UNL     1       0.239  12.408  21.576  0.00  0.00    +0.000 A 
ATOM     26  C   UNL     1      -0.845  12.129  22.423  0.00  0.00    +0.000 A 
ATOM     27  C   UNL     1      -1.462  13.152  23.143  0.00  0.00    +0.000 A 
ATOM     28  C   UNL     1      -1.007  14.460  23.023  0.00  0.00    +0.000 A 
ATOM     29  C   UNL     1       0.064  14.751  22.180  0.00  0.00    +0.000 A 
ATOM     30  C   UNL     1       0.684  13.731  21.457  0.00  0.00    +0.000 A 
ENDBRANCH  24  25
ENDBRANCH   8  24
TORSDOF 5
ENDMDL
MODEL 4
REMARK VINA RESULT:      -8.1      0.941      1.140
REMARK  Name = 
REMARK  5 active torsions:
REMARK  status: ('A' for Active; 'I' for Inactive)
REMARK    1  A    between atoms: N_8  and  C_9
REMARK    2  A    between atoms: C_9  and  C_10
REMARK    3  A    between atoms: C_20  and  C_21
REMARK    4  A    between atoms: C_24  and  O_25
REMARK    5  A    between atoms: C_27  and  O_28
REMARK                            x       y       z     vdW  Elec       q    Type
REMARK                         _______ _______ _______ _____ _____    ______ ____
ROOT
ATOM      1  O   UNL     1       2.308   4.070  21.341  0.00  0.00    +0.000 OA
ATOM      2  C   UNL     1       2.401   5.055  20.623  0.00  0.00    +0.000 C 
ATOM      3  N   UNL     1       1.731   6.246  20.827  0.00  0.00    +0.000 NA
ATOM      4  C   UNL     1       1.946   7.125  19.900  0.00  0.00    +0.000 C 
ATOM      5  N   UNL     1       1.388   8.385  19.855  0.00  0.00    +0.000 N 
ATOM      6  C   UNL     1       1.615   9.347  18.765  0.00  0.00    +0.000 C 
ATOM      7  C   UNL     1       0.376  10.246  18.534  0.00  0.00    +0.000 C 
ATOM      8  N   UNL     1      -0.167  10.902  19.744  0.00  0.00    +0.000 NA
ATOM      9  C   UNL     1      -0.399   9.847  20.759  0.00  0.00    +0.000 C 
ATOM     10  C   UNL     1       0.831   8.979  21.083  0.00  0.00    +0.000 C 
ATOM     11  S   UNL     1       3.047   6.620  18.629  0.00  0.00    +0.000 S 
ATOM     12  C   UNL     1       3.263   5.109  19.412  0.00  0.00    +0.000 C 
ATOM     13  C   UNL     1       4.098   4.129  19.047  0.00  0.00    +0.000 C 
ENDROOT
BRANCH  13  14
ATOM     14  C   UNL     1       5.048   4.253  17.934  0.00  0.00    +0.000 A 
ATOM     15  C   UNL     1       4.638   4.005  16.617  0.00  0.00    +0.000 A 
ATOM     16  C   UNL     1       5.531   4.182  15.556  0.00  0.00    +0.000 A 
ATOM     17  C   UNL     1       6.831   4.609  15.818  0.00  0.00    +0.000 A 
ATOM     18  C   UNL     1       7.255   4.866  17.116  0.00  0.00    +0.000 A 
ATOM     19  C   UNL     1       6.360   4.692  18.169  0.00  0.00    +0.000 A 
BRANCH  17  20
ATOM     20  O   UNL     1       7.734   4.796  14.812  0.00  0.00    +0.000 OA
ATOM     21  H   UNL     1       8.332   5.521  15.060  0.00  0.00    +0.000 HD
ENDBRANCH  17  20
BRANCH  19  22
ATOM     22  O   UNL     1       6.749   4.970  19.452  0.00  0.00    +0.000 OA
ATOM     23  H   UNL     1       6.009   4.776  20.052  0.00  0.00    +0.000 HD
ENDBRANCH  19  22
ENDBRANCH  13  14
BRANCH   8  24
ATOM     24  C   UNL     1       0.750  11.962  20.200  0.00  0.00    +0.000 C 
BRANCH  24  25
ATOM     25  C   UNL     1       0.207  13.368  20.070  0.00  0.00    +0.000 A 
ATOM     26  C   UNL     1       0.455  14.113  18.908  0.00  0.00    +0.000 A 
ATOM     27  C   UNL     1      -0.075  15.396  18.762  0.00  0.00    +0.000 A 
ATOM     28  C   UNL     1      -0.854  15.945  19.775  0.00  0.00    +0.000 A 
ATOM     29  C   UNL     1      -1.102  15.217  20.937  0.00  0.00    +0.000 A 
ATOM     30  C   UNL     1      -0.573  13.935  21.087  0.00  0.00    +0.000 A 
ENDBRANCH  24  25
ENDBRANCH   8  24
TORSDOF 5
ENDMDL
MODEL 5
REMARK VINA RESULT:      -7.7      0.738      1.054
REMARK  Name = 
REMARK  5 active torsions:
REMARK  status: ('A' for Active; 'I' for Inactive)
REMARK    1  A    between atoms: N_8  and  C_9
REMARK    2  A    between atoms: C_9  and  C_10
REMARK    3  A    between atoms: C_20  and  C_21
REMARK    4  A    between atoms: C_24  and  O_25
REMARK    5  A    between atoms: C_27  and  O_28
REMARK                            x       y       z     vdW  Elec       q    Type
REMARK                         _______ _______ _______ _____ _____    ______ ____
ROOT
ATOM      1  O   UNL     1       2.950   3.760  20.508  0.00  0.00    +0.000 OA
ATOM      2  C   UNL     1       2.942   4.820  19.898  0.00  0.00    +0.000 C 
ATOM      3  N   UNL     1       2.244   5.947  20.284  0.00  0.00    +0.000 NA
ATOM      4  C   UNL     1       2.344   6.930  19.445  0.00  0.00    +0.000 C 
ATOM      5  N   UNL     1       1.732   8.158  19.582  0.00  0.00    +0.000 N 
ATOM      6  C   UNL     1       1.827   9.240  18.589  0.00  0.00    +0.000 C 
ATOM      7  C   UNL     1       0.537  10.096  18.558  0.00  0.00    +0.000 C 
ATOM      8  N   UNL     1       0.073  10.592  19.873  0.00  0.00    +0.000 NA
ATOM      9  C   UNL     1      -0.029   9.425  20.781  0.00  0.00    +0.000 C 
ATOM     10  C   UNL     1       1.258   8.590  20.908  0.00  0.00    +0.000 C 
ATOM     11  S   UNL     1       3.352   6.617  18.041  0.00  0.00    +0.000 S 
ATOM     12  C   UNL     1       3.695   5.044  18.635  0.00  0.00    +0.000 C 
ATOM     13  C   UNL     1       4.536   4.151  18.099  0.00  0.00    +0.000 C 
ENDROOT
BRANCH  13  14
ATOM     14  C   UNL     1       5.382   4.439  16.934  0.00  0.00    +0.000 A 
ATOM     15  C   UNL     1       4.868   4.323  15.636  0.00  0.00    +0.000 A 
ATOM     16  C   UNL     1       5.661   4.656  14.533  0.00  0.00    +0.000 A 
ATOM     17  C   UNL     1       6.963   5.105  14.735  0.00  0.00    +0.000 A 
ATOM     18  C   UNL     1       7.489   5.232  16.015  0.00  0.00    +0.000 A 
ATOM     19  C   UNL     1       6.694   4.903  17.110  0.00  0.00    +0.000 A 
BRANCH  17  20
ATOM     20  O   UNL     1       7.770   5.441  13.687  0.00  0.00    +0.000 OA
ATOM     21  H   UNL     1       8.381   4.705  13.514  0.00  0.00    +0.000 HD
ENDBRANCH  17  20
BRANCH  19  22
ATOM     22  O   UNL     1       7.183   5.051  18.381  0.00  0.00    +0.000 OA
ATOM     23  H   UNL     1       6.485   5.427  18.942  0.00  0.00    +0.000 HD
ENDBRANCH  19  22
ENDBRANCH  13  14
BRANCH   8  24
ATOM     24  C   UNL     1       0.981  11.642  20.367  0.00  0.00    +0.000 C 
BRANCH  24  25
ATOM     25  C   UNL     1       0.435  13.049  20.271  0.00  0.00    +0.000 A 
ATOM     26  C   UNL     1      -0.125  13.665  21.400  0.00  0.00    +0.000 A 
ATOM     27  C   UNL     1      -0.595  14.977  21.331  0.00  0.00    +0.000 A 
ATOM     28  C   UNL     1      -0.513  15.684  20.137  0.00  0.00    +0.000 A 
ATOM     29  C   UNL     1       0.035  15.080  19.006  0.00  0.00    +0.000 A 
ATOM     30  C   UNL     1       0.505  13.769  19.070  0.00  0.00    +0.000 A 
ENDBRANCH  24  25
ENDBRANCH   8  24
TORSDOF 5
ENDMDL
MODEL 6
REMARK VINA RESULT:      -7.6      1.048      1.430
REMARK  Name = 
REMARK  5 active torsions:
REMARK  status: ('A' for Active; 'I' for Inactive)
REMARK    1  A    between atoms: N_8  and  C_9
REMARK    2  A    between atoms: C_9  and  C_10
REMARK    3  A    between atoms: C_20  and  C_21
REMARK    4  A    between atoms: C_24  and  O_25
REMARK    5  A    between atoms: C_27  and  O_28
REMARK                            x       y       z     vdW  Elec       q    Type
REMARK                         _______ _______ _______ _____ _____    ______ ____
ROOT
ATOM      1  O   UNL     1       2.289   3.740  21.409  0.00  0.00    +0.000 OA
ATOM      2  C   UNL     1       2.380   4.788  20.786  0.00  0.00    +0.000 C 
ATOM      3  N   UNL     1       1.706   5.952  21.100  0.00  0.00    +0.000 NA
ATOM      4  C   UNL     1       1.918   6.915  20.259  0.00  0.00    +0.000 C 
ATOM      5  N   UNL     1       1.356   8.172  20.332  0.00  0.00    +0.000 N 
ATOM      6  C   UNL     1       1.580   9.232  19.335  0.00  0.00    +0.000 C 
ATOM      7  C   UNL     1       0.338  10.145  19.189  0.00  0.00    +0.000 C 
ATOM      8  N   UNL     1      -0.207  10.683  20.455  0.00  0.00    +0.000 NA
ATOM      9  C   UNL     1      -0.435   9.538  21.368  0.00  0.00    +0.000 C 
ATOM     10  C   UNL     1       0.797   8.647  21.609  0.00  0.00    +0.000 C 
ATOM     11  S   UNL     1       3.020   6.533  18.946  0.00  0.00    +0.000 S 
ATOM     12  C   UNL     1       3.241   4.957  19.586  0.00  0.00    +0.000 C 
ATOM     13  C   UNL     1       4.079   4.018  19.131  0.00  0.00    +0.000 C 
ENDROOT
BRANCH  13  14
ATOM     14  C   UNL     1       5.028   4.248  18.035  0.00  0.00    +0.000 A 
ATOM     15  C   UNL     1       6.337   4.672  18.304  0.00  0.00    +0.000 A 
ATOM     16  C   UNL     1       7.254   4.832  17.261  0.00  0.00    +0.000 A 
ATOM     17  C   UNL     1       6.858   4.565  15.953  0.00  0.00    +0.000 A 
ATOM     18  C   UNL     1       5.566   4.138  15.666  0.00  0.00    +0.000 A 
ATOM     19  C   UNL     1       4.658   3.977  16.709  0.00  0.00    +0.000 A 
BRANCH  17  20
ATOM     20  O   UNL     1       7.721   4.707  14.905  0.00  0.00    +0.000 OA
ATOM     21  H   UNL     1       8.147   5.578  14.967  0.00  0.00    +0.000 HD
ENDBRANCH  17  20
BRANCH  19  22
ATOM     22  O   UNL     1       3.391   3.527  16.451  0.00  0.00    +0.000 OA
ATOM     23  H   UNL     1       3.399   3.031  15.615  0.00  0.00    +0.000 HD
ENDBRANCH  19  22
ENDBRANCH  13  14
BRANCH   8  24
ATOM     24  C   UNL     1       0.707  11.699  21.008  0.00  0.00    +0.000 C 
BRANCH  24  25
ATOM     25  C   UNL     1       0.741  13.004  20.243  0.00  0.00    +0.000 A 
ATOM     26  C   UNL     1       1.952  13.480  19.718  0.00  0.00    +0.000 A 
ATOM     27  C   UNL     1       1.986  14.662  18.977  0.00  0.00    +0.000 A 
ATOM     28  C   UNL     1       0.814  15.378  18.754  0.00  0.00    +0.000 A 
ATOM     29  C   UNL     1      -0.393  14.918  19.276  0.00  0.00    +0.000 A 
ATOM     30  C   UNL     1      -0.432  13.737  20.019  0.00  0.00    +0.000 A 
ENDBRANCH  24  25
ENDBRANCH   8  24
TORSDOF 5
ENDMDL
MODEL 7
REMARK VINA RESULT:      -7.5      1.186      1.811
REMARK  Name = 
REMARK  5 active torsions:
REMARK  status: ('A' for Active; 'I' for Inactive)
REMARK    1  A    between atoms: N_8  and  C_9
REMARK    2  A    between atoms: C_9  and  C_10
REMARK    3  A    between atoms: C_20  and  C_21
REMARK    4  A    between atoms: C_24  and  O_25
REMARK    5  A    between atoms: C_27  and  O_28
REMARK                            x       y       z     vdW  Elec       q    Type
REMARK                         _______ _______ _______ _____ _____    ______ ____
ROOT
ATOM      1  O   UNL     1       2.198   4.143  21.453  0.00  0.00    +0.000 OA
ATOM      2  C   UNL     1       2.299   5.151  20.768  0.00  0.00    +0.000 C 
ATOM      3  N   UNL     1       1.633   6.337  21.010  0.00  0.00    +0.000 NA
ATOM      4  C   UNL     1       1.855   7.246  20.113  0.00  0.00    +0.000 C 
ATOM      5  N   UNL     1       1.301   8.509  20.107  0.00  0.00    +0.000 N 
ATOM      6  C   UNL     1       1.536   9.505  19.050  0.00  0.00    +0.000 C 
ATOM      7  C   UNL     1       0.302  10.417  18.845  0.00  0.00    +0.000 C 
ATOM      8  N   UNL     1      -0.242  11.035  20.074  0.00  0.00    +0.000 NA
ATOM      9  C   UNL     1      -0.482   9.948  21.053  0.00  0.00    +0.000 C 
ATOM     10  C   UNL     1       0.743   9.064  21.352  0.00  0.00    +0.000 C 
ATOM     11  S   UNL     1       2.957   6.778  18.829  0.00  0.00    +0.000 S 
ATOM     12  C   UNL     1       3.164   5.241  19.563  0.00  0.00    +0.000 C 
ATOM     13  C   UNL     1       3.997   4.270  19.168  0.00  0.00    +0.000 C 
ENDROOT
BRANCH  13  14
ATOM     14  C   UNL     1       4.951   4.427  18.063  0.00  0.00    +0.000 A 
ATOM     15  C   UNL     1       6.258   4.868  18.310  0.00  0.00    +0.000 A 
ATOM     16  C   UNL     1       7.180   4.958  17.262  0.00  0.00    +0.000 A 
ATOM     17  C   UNL     1       6.790   4.604  15.973  0.00  0.00    +0.000 A 
ATOM     18  C   UNL     1       5.500   4.159  15.710  0.00  0.00    +0.000 A 
ATOM     19  C   UNL     1       4.586   4.068  16.757  0.00  0.00    +0.000 A 
BRANCH  17  20
ATOM     20  O   UNL     1       7.657   4.676  14.922  0.00  0.00    +0.000 OA
ATOM     21  H   UNL     1       8.521   4.334  15.207  0.00  0.00    +0.000 HD
ENDBRANCH  17  20
BRANCH  19  22
ATOM     22  O   UNL     1       3.320   3.602  16.524  0.00  0.00    +0.000 OA
ATOM     23  H   UNL     1       2.957   3.254  17.356  0.00  0.00    +0.000 HD
ENDBRANCH  19  22
ENDBRANCH  13  14
BRANCH   8  24
ATOM     24  C   UNL     1       0.678  12.075  20.567  0.00  0.00    +0.000 C 
BRANCH  24  25
ATOM     25  C   UNL     1       0.409  13.464  20.031  0.00  0.00    +0.000 A 
ATOM     26  C   UNL     1      -0.774  14.135  20.375  0.00  0.00    +0.000 A 
ATOM     27  C   UNL     1      -1.012  15.431  19.918  0.00  0.00    +0.000 A 
ATOM     28  C   UNL     1      -0.073  16.068  19.113  0.00  0.00    +0.000 A 
ATOM     29  C   UNL     1       1.103  15.409  18.759  0.00  0.00    +0.000 A 
ATOM     30  C   UNL     1       1.344  14.113  19.213  0.00  0.00    +0.000 A 
ENDBRANCH  24  25
ENDBRANCH   8  24
TORSDOF 5
ENDMDL
MODEL 8
REMARK VINA RESULT:      -7.5      1.744      2.242
REMARK  Name = 
REMARK  5 active torsions:
REMARK  status: ('A' for Active; 'I' for Inactive)
REMARK    1  A    between atoms: N_8  and  C_9
REMARK    2  A    between atoms: C_9  and  C_10
REMARK    3  A    between atoms: C_20  and  C_21
REMARK    4  A    between atoms: C_24  and  O_25
REMARK    5  A    between atoms: C_27  and  O_28
REMARK                            x       y       z     vdW  Elec       q    Type
REMARK                         _______ _______ _______ _____ _____    ______ ____
ROOT
ATOM      1  O   UNL     1       2.365   3.682  21.407  0.00  0.00    +0.000 OA
ATOM      2  C   UNL     1       2.429   4.732  20.782  0.00  0.00    +0.000 C 
ATOM      3  N   UNL     1       1.733   5.882  21.101  0.00  0.00    +0.000 NA
ATOM      4  C   UNL     1       1.919   6.848  20.257  0.00  0.00    +0.000 C 
ATOM      5  N   UNL     1       1.330   8.093  20.332  0.00  0.00    +0.000 N 
ATOM      6  C   UNL     1       1.524   9.156  19.334  0.00  0.00    +0.000 C 
ATOM      7  C   UNL     1       0.262  10.042  19.196  0.00  0.00    +0.000 C 
ATOM      8  N   UNL     1      -0.284  10.571  20.466  0.00  0.00    +0.000 NA
ATOM      9  C   UNL     1      -0.482   9.422  21.381  0.00  0.00    +0.000 C 
ATOM     10  C   UNL     1       0.771   8.557  21.614  0.00  0.00    +0.000 C 
ATOM     11  S   UNL     1       3.018   6.488  18.936  0.00  0.00    +0.000 S 
ATOM     12  C   UNL     1       3.277   4.918  19.575  0.00  0.00    +0.000 C 
ATOM     13  C   UNL     1       4.131   3.996  19.115  0.00  0.00    +0.000 C 
ENDROOT
BRANCH  13  14
ATOM     14  C   UNL     1       5.068   4.245  18.012  0.00  0.00    +0.000 A 
ATOM     15  C   UNL     1       6.375   4.676  18.272  0.00  0.00    +0.000 A 
ATOM     16  C   UNL     1       7.281   4.854  17.221  0.00  0.00    +0.000 A 
ATOM     17  C   UNL     1       6.873   4.598  15.914  0.00  0.00    +0.000 A 
ATOM     18  C   UNL     1       5.582   4.164  15.636  0.00  0.00    +0.000 A 
ATOM     19  C   UNL     1       4.685   3.985  16.688  0.00  0.00    +0.000 A 
BRANCH  17  20
ATOM     20  O   UNL     1       7.724   4.757  14.860  0.00  0.00    +0.000 OA
ATOM     21  H   UNL     1       8.534   4.249  15.032  0.00  0.00    +0.000 HD
ENDBRANCH  17  20
BRANCH  19  22
ATOM     22  O   UNL     1       3.419   3.528  16.438  0.00  0.00    +0.000 OA
ATOM     23  H   UNL     1       3.460   2.867  15.727  0.00  0.00    +0.000 HD
ENDBRANCH  19  22
ENDBRANCH  13  14
BRANCH   8  24
ATOM     24  C   UNL     1       0.612  11.606  21.010  0.00  0.00    +0.000 C 
BRANCH  24  25
ATOM     25  C   UNL     1      -0.075  12.664  21.845  0.00  0.00    +0.000 A 
ATOM     26  C   UNL     1       0.358  13.997  21.787  0.00  0.00    +0.000 A 
ATOM     27  C   UNL     1      -0.296  14.986  22.522  0.00  0.00    +0.000 A 
ATOM     28  C   UNL     1      -1.384  14.654  23.322  0.00  0.00    +0.000 A 
ATOM     29  C   UNL     1      -1.819  13.332  23.393  0.00  0.00    +0.000 A 
ATOM     30  C   UNL     1      -1.168  12.340  22.660  0.00  0.00    +0.000 A 
ENDBRANCH  24  25
ENDBRANCH   8  24
TORSDOF 5
ENDMDL
MODEL 9
REMARK VINA RESULT:      -7.3      1.505      2.060
REMARK  Name = 
REMARK  5 active torsions:
REMARK  status: ('A' for Active; 'I' for Inactive)
REMARK    1  A    between atoms: N_8  and  C_9
REMARK    2  A    between atoms: C_9  and  C_10
REMARK    3  A    between atoms: C_20  and  C_21
REMARK    4  A    between atoms: C_24  and  O_25
REMARK    5  A    between atoms: C_27  and  O_28
REMARK                            x       y       z     vdW  Elec       q    Type
REMARK                         _______ _______ _______ _____ _____    ______ ____
ROOT
ATOM      1  O   UNL     1       2.213   4.238  21.495  0.00  0.00    +0.000 OA
ATOM      2  C   UNL     1       2.302   5.226  20.781  0.00  0.00    +0.000 C 
ATOM      3  N   UNL     1       1.613   6.407  20.979  0.00  0.00    +0.000 NA
ATOM      4  C   UNL     1       1.827   7.291  20.057  0.00  0.00    +0.000 C 
ATOM      5  N   UNL     1       1.251   8.543  20.007  0.00  0.00    +0.000 N 
ATOM      6  C   UNL     1       1.478   9.511  18.922  0.00  0.00    +0.000 C 
ATOM      7  C   UNL     1       0.230  10.393  18.678  0.00  0.00    +0.000 C 
ATOM      8  N   UNL     1      -0.337  11.038  19.883  0.00  0.00    +0.000 NA
ATOM      9  C   UNL     1      -0.567   9.978  20.893  0.00  0.00    +0.000 C 
ATOM     10  C   UNL     1       0.671   9.126  21.230  0.00  0.00    +0.000 C 
ATOM     11  S   UNL     1       2.949   6.804  18.798  0.00  0.00    +0.000 S 
ATOM     12  C   UNL     1       3.177   5.295  19.581  0.00  0.00    +0.000 C 
ATOM     13  C   UNL     1       4.030   4.327  19.224  0.00  0.00    +0.000 C 
ENDROOT
BRANCH  13  14
ATOM     14  C   UNL     1       4.992   4.467  18.123  0.00  0.00    +0.000 A 
ATOM     15  C   UNL     1       6.289   4.938  18.367  0.00  0.00    +0.000 A 
ATOM     16  C   UNL     1       7.219   5.012  17.326  0.00  0.00    +0.000 A 
ATOM     17  C   UNL     1       6.847   4.614  16.044  0.00  0.00    +0.000 A 
ATOM     18  C   UNL     1       5.567   4.139  15.783  0.00  0.00    +0.000 A 
ATOM     19  C   UNL     1       4.646   4.064  16.825  0.00  0.00    +0.000 A 
BRANCH  17  20
ATOM     20  O   UNL     1       7.723   4.669  15.000  0.00  0.00    +0.000 OA
ATOM     21  H   UNL     1       7.227   4.567  14.170  0.00  0.00    +0.000 HD
ENDBRANCH  17  20
BRANCH  19  22
ATOM     22  O   UNL     1       3.390   3.569  16.595  0.00  0.00    +0.000 OA
ATOM     23  H   UNL     1       3.432   2.599  16.591  0.00  0.00    +0.000 HD
ENDBRANCH  19  22
ENDBRANCH  13  14
BRANCH   8  24
ATOM     24  C   UNL     1       0.560  12.110  20.352  0.00  0.00    +0.000 C 
BRANCH  24  25
ATOM     25  C   UNL     1      -0.145  13.346  20.866  0.00  0.00    +0.000 A 
ATOM     26  C   UNL     1      -0.287  13.552  22.247  0.00  0.00    +0.000 A 
ATOM     27  C   UNL     1      -0.900  14.708  22.731  0.00  0.00    +0.000 A 
ATOM     28  C   UNL     1      -1.377  15.666  21.843  0.00  0.00    +0.000 A 
ATOM     29  C   UNL     1      -1.248  15.470  20.470  0.00  0.00    +0.000 A 
ATOM     30  C   UNL     1      -0.637  14.315  19.981  0.00  0.00    +0.000 A 
ENDBRANCH  24  25
ENDBRANCH   8  24
TORSDOF 5
ENDMDL
