MODEL 1
REMARK VINA RESULT:      -8.2      0.000      0.000
REMARK  Name = 
REMARK  3 active torsions:
REMARK  status: ('A' for Active; 'I' for Inactive)
REMARK    1  A    between atoms: C_1  and  C_2
REMARK    2  A    between atoms: N_4  and  C_5
REMARK    3  A    between atoms: C_19  and  C_20
REMARK                            x       y       z     vdW  Elec       q    Type
REMARK                         _______ _______ _______ _____ _____    ______ ____
ROOT
ATOM      1  C   UNL     1       2.351   2.888  21.687  0.00  0.00    +0.000 C 
ATOM      2  C   UNL     1       2.488   4.089  20.820  0.00  0.00    +0.000 C 
ATOM      3  N   UNL     1       1.921   5.273  21.026  0.00  0.00    +0.000 NA
ATOM      4  N   UNL     1       2.638   6.128  20.179  0.00  0.00    +0.000 N 
ATOM      5  C   UNL     1       3.726   5.438  19.700  0.00  0.00    +0.000 C 
ATOM      6  O   UNL     1       4.882   5.808  19.896  0.00  0.00    +0.000 OA
ATOM      7  C   UNL     1       3.207   4.040  19.441  0.00  0.00    +0.000 C 
ATOM      8  C   UNL     1       1.998   3.840  18.479  0.00  0.00    +0.000 C 
ATOM      9  O   UNL     1       1.082   4.642  18.289  0.00  0.00    +0.000 OA
ATOM     10  C   UNL     1       1.790   2.514  17.860  0.00  0.00    +0.000 C 
ATOM     11  C   UNL     1       2.770   1.616  17.821  0.00  0.00    +0.000 C 
ATOM     12  C   UNL     1       4.140   1.836  18.371  0.00  0.00    +0.000 C 
ATOM     13  C   UNL     1       4.431   3.252  18.901  0.00  0.00    +0.000 C 
ENDROOT
BRANCH   4  14
ATOM     14  C   UNL     1       2.174   7.170  19.340  0.00  0.00    +0.000 A 
ATOM     15  C   UNL     1       2.870   7.343  18.108  0.00  0.00    +0.000 A 
ATOM     16  C   UNL     1       2.909   8.543  17.425  0.00  0.00    +0.000 A 
ATOM     17  C   UNL     1       2.183   9.593  17.927  0.00  0.00    +0.000 A 
ATOM     18  C   UNL     1       1.351   9.389  19.039  0.00  0.00    +0.000 A 
ATOM     19  C   UNL     1       1.328   8.179  19.763  0.00  0.00    +0.000 A 
ENDBRANCH   4  14
BRANCH  13  20
ATOM     20  C   UNL     1       5.173   4.052  17.770  0.00  0.00    +0.000 A 
ATOM     21  C   UNL     1       6.538   4.390  17.833  0.00  0.00    +0.000 A 
ATOM     22  C   UNL     1       7.214   4.862  16.699  0.00  0.00    +0.000 A 
ATOM     23  C   UNL     1       6.546   5.008  15.486  0.00  0.00    +0.000 A 
ATOM     24  C   UNL     1       5.187   4.726  15.416  0.00  0.00    +0.000 A 
ATOM     25  C   UNL     1       4.502   4.289  16.553  0.00  0.00    +0.000 A 
ENDBRANCH  13  20
TORSDOF 2
ENDMDL
MODEL 2
REMARK VINA RESULT:      -8.1      2.807      5.878
REMARK  Name = 
REMARK  3 active torsions:
REMARK  status: ('A' for Active; 'I' for Inactive)
REMARK    1  A    between atoms: C_1  and  C_2
REMARK    2  A    between atoms: N_4  and  C_5
REMARK    3  A    between atoms: C_19  and  C_20
REMARK                            x       y       z     vdW  Elec       q    Type
REMARK                         _______ _______ _______ _____ _____    ______ ____
ROOT
ATOM      1  C   UNL     1       7.293   8.171  18.174  0.00  0.00    +0.000 C 
ATOM      2  C   UNL     1       7.074   6.973  17.320  0.00  0.00    +0.000 C 
ATOM      3  N   UNL     1       7.788   6.631  16.253  0.00  0.00    +0.000 NA
ATOM      4  N   UNL     1       7.438   5.290  16.046  0.00  0.00    +0.000 N 
ATOM      5  C   UNL     1       6.715   4.866  17.134  0.00  0.00    +0.000 C 
ATOM      6  O   UNL     1       7.078   3.930  17.845  0.00  0.00    +0.000 OA
ATOM      7  C   UNL     1       5.837   6.046  17.492  0.00  0.00    +0.000 C 
ATOM      8  C   UNL     1       4.869   6.631  16.421  0.00  0.00    +0.000 C 
ATOM      9  O   UNL     1       5.052   6.631  15.202  0.00  0.00    +0.000 OA
ATOM     10  C   UNL     1       3.709   7.430  16.868  0.00  0.00    +0.000 C 
ATOM     11  C   UNL     1       3.281   7.371  18.125  0.00  0.00    +0.000 C 
ATOM     12  C   UNL     1       3.893   6.521  19.187  0.00  0.00    +0.000 C 
ATOM     13  C   UNL     1       5.017   5.575  18.725  0.00  0.00    +0.000 C 
ENDROOT
BRANCH   4  14
ATOM     14  C   UNL     1       7.161   4.603  14.838  0.00  0.00    +0.000 A 
ATOM     15  C   UNL     1       7.836   5.078  13.676  0.00  0.00    +0.000 A 
ATOM     16  C   UNL     1       7.353   4.896  12.395  0.00  0.00    +0.000 A 
ATOM     17  C   UNL     1       6.204   4.162  12.239  0.00  0.00    +0.000 A 
ATOM     18  C   UNL     1       5.626   3.538  13.356  0.00  0.00    +0.000 A 
ATOM     19  C   UNL     1       6.092   3.743  14.670  0.00  0.00    +0.000 A 
ENDBRANCH   4  14
BRANCH  13  20
ATOM     20  C   UNL     1       4.390   4.154  18.487  0.00  0.00    +0.000 A 
ATOM     21  C   UNL     1       4.454   3.114  19.432  0.00  0.00    +0.000 A 
ATOM     22  C   UNL     1       3.661   1.966  19.293  0.00  0.00    +0.000 A 
ATOM     23  C   UNL     1       2.794   1.832  18.212  0.00  0.00    +0.000 A 
ATOM     24  C   UNL     1       2.752   2.826  17.242  0.00  0.00    +0.000 A 
ATOM     25  C   UNL     1       3.567   3.955  17.359  0.00  0.00    +0.000 A 
ENDBRANCH  13  20
TORSDOF 2
ENDMDL
MODEL 3
REMARK VINA RESULT:      -8.0      0.439      1.051
REMARK  Name = 
REMARK  3 active torsions:
REMARK  status: ('A' for Active; 'I' for Inactive)
REMARK    1  A    between atoms: C_1  and  C_2
REMARK    2  A    between atoms: N_4  and  C_5
REMARK    3  A    between atoms: C_19  and  C_20
REMARK                            x       y       z     vdW  Elec       q    Type
REMARK                         _______ _______ _______ _____ _____    ______ ____
ROOT
ATOM      1  C   UNL     1       2.147   2.951  21.419  0.00  0.00    +0.000 C 
ATOM      2  C   UNL     1       2.468   4.194  20.667  0.00  0.00    +0.000 C 
ATOM      3  N   UNL     1       2.071   5.423  20.979  0.00  0.00    +0.000 NA
ATOM      4  N   UNL     1       2.917   6.240  20.218  0.00  0.00    +0.000 N 
ATOM      5  C   UNL     1       3.903   5.449  19.680  0.00  0.00    +0.000 C 
ATOM      6  O   UNL     1       5.096   5.630  19.914  0.00  0.00    +0.000 OA
ATOM      7  C   UNL     1       3.195   4.168  19.291  0.00  0.00    +0.000 C 
ATOM      8  C   UNL     1       1.986   4.232  18.311  0.00  0.00    +0.000 C 
ATOM      9  O   UNL     1       1.196   5.170  18.193  0.00  0.00    +0.000 OA
ATOM     10  C   UNL     1       1.602   3.011  17.571  0.00  0.00    +0.000 C 
ATOM     11  C   UNL     1       2.445   1.989  17.453  0.00  0.00    +0.000 C 
ATOM     12  C   UNL     1       3.823   1.960  18.025  0.00  0.00    +0.000 C 
ATOM     13  C   UNL     1       4.304   3.266  18.685  0.00  0.00    +0.000 C 
ENDROOT
BRANCH   4  14
ATOM     14  C   UNL     1       2.619   7.410  19.477  0.00  0.00    +0.000 A 
ATOM     15  C   UNL     1       1.661   8.293  20.057  0.00  0.00    +0.000 A 
ATOM     16  C   UNL     1       0.897   9.172  19.313  0.00  0.00    +0.000 A 
ATOM     17  C   UNL     1       1.127   9.239  17.962  0.00  0.00    +0.000 A 
ATOM     18  C   UNL     1       2.187   8.508  17.404  0.00  0.00    +0.000 A 
ATOM     19  C   UNL     1       2.951   7.585  18.148  0.00  0.00    +0.000 A 
ENDBRANCH   4  14
BRANCH  13  20
ATOM     20  C   UNL     1       5.170   4.051  17.636  0.00  0.00    +0.000 A 
ATOM     21  C   UNL     1       6.546   4.297  17.801  0.00  0.00    +0.000 A 
ATOM     22  C   UNL     1       7.327   4.760  16.732  0.00  0.00    +0.000 A 
ATOM     23  C   UNL     1       6.754   4.987  15.484  0.00  0.00    +0.000 A 
ATOM     24  C   UNL     1       5.388   4.797  15.314  0.00  0.00    +0.000 A 
ATOM     25  C   UNL     1       4.600   4.370  16.386  0.00  0.00    +0.000 A 
ENDBRANCH  13  20
TORSDOF 2
ENDMDL
MODEL 4
REMARK VINA RESULT:      -7.9      0.321      1.011
REMARK  Name = 
REMARK  3 active torsions:
REMARK  status: ('A' for Active; 'I' for Inactive)
REMARK    1  A    between atoms: C_1  and  C_2
REMARK    2  A    between atoms: N_4  and  C_5
REMARK    3  A    between atoms: C_19  and  C_20
REMARK                            x       y       z     vdW  Elec       q    Type
REMARK                         _______ _______ _______ _____ _____    ______ ____
ROOT
ATOM      1  C   UNL     1       2.318   2.889  21.673  0.00  0.00    +0.000 C 
ATOM      2  C   UNL     1       2.463   4.092  20.810  0.00  0.00    +0.000 C 
ATOM      3  N   UNL     1       1.900   5.277  21.018  0.00  0.00    +0.000 NA
ATOM      4  N   UNL     1       2.624   6.132  20.176  0.00  0.00    +0.000 N 
ATOM      5  C   UNL     1       3.710   5.440  19.698  0.00  0.00    +0.000 C 
ATOM      6  O   UNL     1       4.867   5.804  19.900  0.00  0.00    +0.000 OA
ATOM      7  C   UNL     1       3.186   4.044  19.433  0.00  0.00    +0.000 C 
ATOM      8  C   UNL     1       1.979   3.852  18.467  0.00  0.00    +0.000 C 
ATOM      9  O   UNL     1       1.067   4.658  18.276  0.00  0.00    +0.000 OA
ATOM     10  C   UNL     1       1.769   2.529  17.843  0.00  0.00    +0.000 C 
ATOM     11  C   UNL     1       2.745   1.627  17.804  0.00  0.00    +0.000 C 
ATOM     12  C   UNL     1       4.114   1.840  18.359  0.00  0.00    +0.000 C 
ATOM     13  C   UNL     1       4.409   3.253  18.895  0.00  0.00    +0.000 C 
ENDROOT
BRANCH   4  14
ATOM     14  C   UNL     1       2.166   7.179  19.339  0.00  0.00    +0.000 A 
ATOM     15  C   UNL     1       2.874   7.359  18.115  0.00  0.00    +0.000 A 
ATOM     16  C   UNL     1       2.918   8.563  17.439  0.00  0.00    +0.000 A 
ATOM     17  C   UNL     1       2.186   9.610  17.941  0.00  0.00    +0.000 A 
ATOM     18  C   UNL     1       1.344   9.399  19.043  0.00  0.00    +0.000 A 
ATOM     19  C   UNL     1       1.316   8.184  19.759  0.00  0.00    +0.000 A 
ENDBRANCH   4  14
BRANCH  13  20
ATOM     20  C   UNL     1       5.158   4.053  17.770  0.00  0.00    +0.000 A 
ATOM     21  C   UNL     1       4.509   4.591  16.643  0.00  0.00    +0.000 A 
ATOM     22  C   UNL     1       5.158   5.515  15.812  0.00  0.00    +0.000 A 
ATOM     23  C   UNL     1       6.462   5.918  16.085  0.00  0.00    +0.000 A 
ATOM     24  C   UNL     1       7.138   5.361  17.164  0.00  0.00    +0.000 A 
ATOM     25  C   UNL     1       6.506   4.413  17.974  0.00  0.00    +0.000 A 
ENDBRANCH  13  20
TORSDOF 2
ENDMDL
MODEL 5
REMARK VINA RESULT:      -7.8      2.935      6.014
REMARK  Name = 
REMARK  3 active torsions:
REMARK  status: ('A' for Active; 'I' for Inactive)
REMARK    1  A    between atoms: C_1  and  C_2
REMARK    2  A    between atoms: N_4  and  C_5
REMARK    3  A    between atoms: C_19  and  C_20
REMARK                            x       y       z     vdW  Elec       q    Type
REMARK                         _______ _______ _______ _____ _____    ______ ____
ROOT
ATOM      1  C   UNL     1       7.669   7.662  18.208  0.00  0.00    +0.000 C 
ATOM      2  C   UNL     1       7.210   6.691  17.179  0.00  0.00    +0.000 C 
ATOM      3  N   UNL     1       7.754   6.502  15.982  0.00  0.00    +0.000 NA
ATOM      4  N   UNL     1       7.220   5.273  15.572  0.00  0.00    +0.000 N 
ATOM      5  C   UNL     1       6.573   4.712  16.647  0.00  0.00    +0.000 C 
ATOM      6  O   UNL     1       6.893   3.620  17.113  0.00  0.00    +0.000 OA
ATOM      7  C   UNL     1       5.893   5.876  17.334  0.00  0.00    +0.000 C 
ATOM      8  C   UNL     1       4.895   6.761  16.530  0.00  0.00    +0.000 C 
ATOM      9  O   UNL     1       4.941   6.990  15.320  0.00  0.00    +0.000 OA
ATOM     10  C   UNL     1       3.899   7.565  17.269  0.00  0.00    +0.000 C 
ATOM     11  C   UNL     1       3.607   7.295  18.538  0.00  0.00    +0.000 C 
ATOM     12  C   UNL     1       4.221   6.190  19.330  0.00  0.00    +0.000 C 
ATOM     13  C   UNL     1       5.162   5.250  18.553  0.00  0.00    +0.000 C 
ENDROOT
BRANCH   4  14
ATOM     14  C   UNL     1       6.729   4.877  14.304  0.00  0.00    +0.000 A 
ATOM     15  C   UNL     1       5.557   4.065  14.311  0.00  0.00    +0.000 A 
ATOM     16  C   UNL     1       5.232   3.202  13.281  0.00  0.00    +0.000 A 
ATOM     17  C   UNL     1       6.044   3.184  12.176  0.00  0.00    +0.000 A 
ATOM     18  C   UNL     1       7.099   4.105  12.078  0.00  0.00    +0.000 A 
ATOM     19  C   UNL     1       7.459   4.967  13.134  0.00  0.00    +0.000 A 
ENDBRANCH   4  14
BRANCH  13  20
ATOM     20  C   UNL     1       4.340   3.977  18.135  0.00  0.00    +0.000 A 
ATOM     21  C   UNL     1       4.459   2.735  18.784  0.00  0.00    +0.000 A 
ATOM     22  C   UNL     1       3.527   1.712  18.557  0.00  0.00    +0.000 A 
ATOM     23  C   UNL     1       2.463   1.908  17.681  0.00  0.00    +0.000 A 
ATOM     24  C   UNL     1       2.355   3.110  16.993  0.00  0.00    +0.000 A 
ATOM     25  C   UNL     1       3.303   4.118  17.190  0.00  0.00    +0.000 A 
ENDBRANCH  13  20
TORSDOF 2
ENDMDL
MODEL 6
REMARK VINA RESULT:      -7.8      0.555      1.453
REMARK  Name = 
REMARK  3 active torsions:
REMARK  status: ('A' for Active; 'I' for Inactive)
REMARK    1  A    between atoms: C_1  and  C_2
REMARK    2  A    between atoms: N_4  and  C_5
REMARK    3  A    between atoms: C_19  and  C_20
REMARK                            x       y       z     vdW  Elec       q    Type
REMARK                         _______ _______ _______ _____ _____    ______ ____
ROOT
ATOM      1  C   UNL     1       2.162   2.987  21.458  0.00  0.00    +0.000 C 
ATOM      2  C   UNL     1       2.468   4.229  20.698  0.00  0.00    +0.000 C 
ATOM      3  N   UNL     1       2.075   5.457  21.014  0.00  0.00    +0.000 NA
ATOM      4  N   UNL     1       2.906   6.274  20.236  0.00  0.00    +0.000 N 
ATOM      5  C   UNL     1       3.883   5.483  19.683  0.00  0.00    +0.000 C 
ATOM      6  O   UNL     1       5.081   5.666  19.895  0.00  0.00    +0.000 OA
ATOM      7  C   UNL     1       3.170   4.201  19.310  0.00  0.00    +0.000 C 
ATOM      8  C   UNL     1       1.944   4.260  18.351  0.00  0.00    +0.000 C 
ATOM      9  O   UNL     1       1.151   5.197  18.245  0.00  0.00    +0.000 OA
ATOM     10  C   UNL     1       1.549   3.037  17.621  0.00  0.00    +0.000 C 
ATOM     11  C   UNL     1       2.392   2.016  17.490  0.00  0.00    +0.000 C 
ATOM     12  C   UNL     1       3.780   1.990  18.037  0.00  0.00    +0.000 C 
ATOM     13  C   UNL     1       4.270   3.298  18.686  0.00  0.00    +0.000 C 
ENDROOT
BRANCH   4  14
ATOM     14  C   UNL     1       2.593   7.442  19.499  0.00  0.00    +0.000 A 
ATOM     15  C   UNL     1       1.620   8.309  20.077  0.00  0.00    +0.000 A 
ATOM     16  C   UNL     1       0.846   9.178  19.332  0.00  0.00    +0.000 A 
ATOM     17  C   UNL     1       1.081   9.253  17.983  0.00  0.00    +0.000 A 
ATOM     18  C   UNL     1       2.154   8.540  17.427  0.00  0.00    +0.000 A 
ATOM     19  C   UNL     1       2.929   7.627  18.171  0.00  0.00    +0.000 A 
ENDBRANCH   4  14
BRANCH  13  20
ATOM     20  C   UNL     1       5.117   4.082  17.620  0.00  0.00    +0.000 A 
ATOM     21  C   UNL     1       4.543   4.791  16.548  0.00  0.00    +0.000 A 
ATOM     22  C   UNL     1       5.307   5.686  15.786  0.00  0.00    +0.000 A 
ATOM     23  C   UNL     1       6.654   5.890  16.076  0.00  0.00    +0.000 A 
ATOM     24  C   UNL     1       7.251   5.164  17.098  0.00  0.00    +0.000 A 
ATOM     25  C   UNL     1       6.501   4.244  17.837  0.00  0.00    +0.000 A 
ENDBRANCH  13  20
TORSDOF 2
ENDMDL
MODEL 7
REMARK VINA RESULT:      -6.6      5.143      8.180
REMARK  Name = 
REMARK  3 active torsions:
REMARK  status: ('A' for Active; 'I' for Inactive)
REMARK    1  A    between atoms: C_1  and  C_2
REMARK    2  A    between atoms: N_4  and  C_5
REMARK    3  A    between atoms: C_19  and  C_20
REMARK                            x       y       z     vdW  Elec       q    Type
REMARK                         _______ _______ _______ _____ _____    ______ ____
ROOT
ATOM      1  C   UNL     1      -2.955  13.134  20.933  0.00  0.00    +0.000 C 
ATOM      2  C   UNL     1      -1.514  13.176  20.568  0.00  0.00    +0.000 C 
ATOM      3  N   UNL     1      -0.701  14.218  20.704  0.00  0.00    +0.000 NA
ATOM      4  N   UNL     1       0.575  13.652  20.584  0.00  0.00    +0.000 N 
ATOM      5  C   UNL     1       0.439  12.286  20.612  0.00  0.00    +0.000 C 
ATOM      6  O   UNL     1       0.976  11.585  21.468  0.00  0.00    +0.000 OA
ATOM      7  C   UNL     1      -0.815  12.011  19.809  0.00  0.00    +0.000 C 
ATOM      8  C   UNL     1      -0.905  12.513  18.338  0.00  0.00    +0.000 C 
ATOM      9  O   UNL     1      -0.356  13.516  17.879  0.00  0.00    +0.000 OA
ATOM     10  C   UNL     1      -1.871  11.869  17.422  0.00  0.00    +0.000 C 
ATOM     11  C   UNL     1      -2.396  10.681  17.706  0.00  0.00    +0.000 C 
ATOM     12  C   UNL     1      -2.079   9.888  18.930  0.00  0.00    +0.000 C 
ATOM     13  C   UNL     1      -0.978  10.466  19.838  0.00  0.00    +0.000 C 
ENDROOT
BRANCH   4  14
ATOM     14  C   UNL     1       1.714  14.126  19.888  0.00  0.00    +0.000 A 
ATOM     15  C   UNL     1       1.730  15.519  19.586  0.00  0.00    +0.000 A 
ATOM     16  C   UNL     1       2.451  16.056  18.536  0.00  0.00    +0.000 A 
ATOM     17  C   UNL     1       3.241  15.209  17.800  0.00  0.00    +0.000 A 
ATOM     18  C   UNL     1       3.374  13.869  18.195  0.00  0.00    +0.000 A 
ATOM     19  C   UNL     1       2.619  13.305  19.244  0.00  0.00    +0.000 A 
ENDBRANCH   4  14
BRANCH  13  20
ATOM     20  C   UNL     1       0.371   9.742  19.487  0.00  0.00    +0.000 A 
ATOM     21  C   UNL     1       0.930   8.724  20.282  0.00  0.00    +0.000 A 
ATOM     22  C   UNL     1       1.980   7.929  19.799  0.00  0.00    +0.000 A 
ATOM     23  C   UNL     1       2.493   8.135  18.521  0.00  0.00    +0.000 A 
ATOM     24  C   UNL     1       1.988   9.167  17.740  0.00  0.00    +0.000 A 
ATOM     25  C   UNL     1       0.966   9.984  18.231  0.00  0.00    +0.000 A 
ENDBRANCH  13  20
TORSDOF 2
ENDMDL
MODEL 8
REMARK VINA RESULT:      -6.5      9.919     12.802
REMARK  Name = 
REMARK  3 active torsions:
REMARK  status: ('A' for Active; 'I' for Inactive)
REMARK    1  A    between atoms: C_1  and  C_2
REMARK    2  A    between atoms: N_4  and  C_5
REMARK    3  A    between atoms: C_19  and  C_20
REMARK                            x       y       z     vdW  Elec       q    Type
REMARK                         _______ _______ _______ _____ _____    ______ ____
ROOT
ATOM      1  C   UNL     1      10.621  16.761  16.675  0.00  0.00    +0.000 C 
ATOM      2  C   UNL     1      10.619  15.594  17.598  0.00  0.00    +0.000 C 
ATOM      3  N   UNL     1      10.996  14.357  17.296  0.00  0.00    +0.000 NA
ATOM      4  N   UNL     1      11.163  13.754  18.550  0.00  0.00    +0.000 N 
ATOM      5  C   UNL     1      11.094  14.737  19.507  0.00  0.00    +0.000 C 
ATOM      6  O   UNL     1      12.021  14.975  20.279  0.00  0.00    +0.000 OA
ATOM      7  C   UNL     1       9.999  15.664  19.023  0.00  0.00    +0.000 C 
ATOM      8  C   UNL     1       8.574  15.091  18.760  0.00  0.00    +0.000 C 
ATOM      9  O   UNL     1       8.310  13.945  18.395  0.00  0.00    +0.000 OA
ATOM     10  C   UNL     1       7.423  16.018  18.754  0.00  0.00    +0.000 C 
ATOM     11  C   UNL     1       7.515  17.228  19.298  0.00  0.00    +0.000 C 
ATOM     12  C   UNL     1       8.741  17.767  19.956  0.00  0.00    +0.000 C 
ATOM     13  C   UNL     1       9.915  16.781  20.099  0.00  0.00    +0.000 C 
ENDROOT
BRANCH   4  14
ATOM     14  C   UNL     1      10.787  12.462  18.991  0.00  0.00    +0.000 A 
ATOM     15  C   UNL     1      10.375  11.548  17.977  0.00  0.00    +0.000 A 
ATOM     16  C   UNL     1       9.536  10.478  18.222  0.00  0.00    +0.000 A 
ATOM     17  C   UNL     1       9.142  10.252  19.516  0.00  0.00    +0.000 A 
ATOM     18  C   UNL     1       9.681  11.035  20.549  0.00  0.00    +0.000 A 
ATOM     19  C   UNL     1      10.512  12.148  20.308  0.00  0.00    +0.000 A 
ENDBRANCH   4  14
BRANCH  13  20
ATOM     20  C   UNL     1       9.869  16.177  21.549  0.00  0.00    +0.000 A 
ATOM     21  C   UNL     1      10.591  16.712  22.631  0.00  0.00    +0.000 A 
ATOM     22  C   UNL     1      10.317  16.312  23.947  0.00  0.00    +0.000 A 
ATOM     23  C   UNL     1       9.322  15.373  24.208  0.00  0.00    +0.000 A 
ATOM     24  C   UNL     1       8.632  14.796  23.149  0.00  0.00    +0.000 A 
ATOM     25  C   UNL     1       8.927  15.166  21.834  0.00  0.00    +0.000 A 
ENDBRANCH  13  20
TORSDOF 2
ENDMDL
MODEL 9
REMARK VINA RESULT:      -6.3      9.304     12.308
REMARK  Name = 
REMARK  3 active torsions:
REMARK  status: ('A' for Active; 'I' for Inactive)
REMARK    1  A    between atoms: C_1  and  C_2
REMARK    2  A    between atoms: N_4  and  C_5
REMARK    3  A    between atoms: C_19  and  C_20
REMARK                            x       y       z     vdW  Elec       q    Type
REMARK                         _______ _______ _______ _____ _____    ______ ____
ROOT
ATOM      1  C   UNL     1      10.402  16.823  17.055  0.00  0.00    +0.000 C 
ATOM      2  C   UNL     1      10.329  15.588  17.882  0.00  0.00    +0.000 C 
ATOM      3  N   UNL     1      10.914  14.427  17.609  0.00  0.00    +0.000 NA
ATOM      4  N   UNL     1      10.858  13.741  18.829  0.00  0.00    +0.000 N 
ATOM      5  C   UNL     1      10.449  14.625  19.796  0.00  0.00    +0.000 C 
ATOM      6  O   UNL     1      11.136  14.893  20.781  0.00  0.00    +0.000 OA
ATOM      7  C   UNL     1       9.391  15.470  19.118  0.00  0.00    +0.000 C 
ATOM      8  C   UNL     1       8.148  14.776  18.487  0.00  0.00    +0.000 C 
ATOM      9  O   UNL     1       8.117  13.643  18.004  0.00  0.00    +0.000 OA
ATOM     10  C   UNL     1       6.925  15.574  18.259  0.00  0.00    +0.000 C 
ATOM     11  C   UNL     1       6.740  16.736  18.878  0.00  0.00    +0.000 C 
ATOM     12  C   UNL     1       7.704  17.343  19.842  0.00  0.00    +0.000 C 
ATOM     13  C   UNL     1       8.925  16.476  20.205  0.00  0.00    +0.000 C 
ENDROOT
BRANCH   4  14
ATOM     14  C   UNL     1      10.551  12.383  19.090  0.00  0.00    +0.000 A 
ATOM     15  C   UNL     1      10.316  11.561  17.950  0.00  0.00    +0.000 A 
ATOM     16  C   UNL     1       9.549  10.412  17.992  0.00  0.00    +0.000 A 
ATOM     17  C   UNL     1       9.053  10.015  19.208  0.00  0.00    +0.000 A 
ATOM     18  C   UNL     1       9.424  10.713  20.368  0.00  0.00    +0.000 A 
ATOM     19  C   UNL     1      10.179  11.904  20.332  0.00  0.00    +0.000 A 
ENDBRANCH   4  14
BRANCH  13  20
ATOM     20  C   UNL     1       8.617  15.749  21.564  0.00  0.00    +0.000 A 
ATOM     21  C   UNL     1       7.888  14.549  21.648  0.00  0.00    +0.000 A 
ATOM     22  C   UNL     1       7.867  13.802  22.835  0.00  0.00    +0.000 A 
ATOM     23  C   UNL     1       8.568  14.237  23.956  0.00  0.00    +0.000 A 
ATOM     24  C   UNL     1       9.254  15.444  23.909  0.00  0.00    +0.000 A 
ATOM     25  C   UNL     1       9.248  16.208  22.738  0.00  0.00    +0.000 A 
ENDBRANCH  13  20
TORSDOF 2
ENDMDL
