MODEL 1
REMARK VINA RESULT:      -6.6      0.000      0.000
REMARK  Name = 
REMARK  10 active torsions:
REMARK  status: ('A' for Active; 'I' for Inactive)
REMARK    1  A    between atoms: C_1  and  C_2
REMARK    2  A    between atoms: C_2  and  N_3
REMARK    3  A    between atoms: N_6  and  C_7
REMARK    4  A    between atoms: C_7  and  C_8
REMARK    5  A    between atoms: C_7  and  C_13
REMARK    6  A    between atoms: C_13  and  C_14
REMARK    7  A    between atoms: C_13  and  N_15
REMARK    8  A    between atoms: N_15  and  S_16
REMARK    9  A    between atoms: S_16  and  C_19
REMARK   10  A    between atoms: C_22  and  C_23
REMARK                            x       y       z     vdW  Elec       q    Type
REMARK                         _______ _______ _______ _____ _____    ______ ____
ROOT
ATOM      1  C   UNL     1       3.076   6.028  18.672  0.00  0.00    +0.000 C 
ENDROOT
BRANCH   1   5
ATOM      2  N   UNL     1       5.113   4.817  15.987  0.00  0.00    +0.000 NA
ATOM      3  C   UNL     1       4.676   3.914  17.060  0.00  0.00    +0.000 C 
ATOM      4  C   UNL     1       4.936   4.382  18.509  0.00  0.00    +0.000 C 
ATOM      5  N   UNL     1       4.560   5.796  18.791  0.00  0.00    +0.000 NA
ATOM      6  C   UNL     1       5.384   6.582  17.854  0.00  0.00    +0.000 C 
ATOM      7  C   UNL     1       5.174   6.240  16.358  0.00  0.00    +0.000 C 
BRANCH   2   9
ATOM      8  C   UNL     1       5.893   3.971  13.786  0.00  0.00    +0.000 C 
ATOM      9  C   UNL     1       6.267   4.352  15.221  0.00  0.00    +0.000 C 
ENDBRANCH   2   9
ENDBRANCH   1   5
BRANCH   1  10
ATOM     10  C   UNL     1       2.327   4.962  19.498  0.00  0.00    +0.000 A 
ATOM     11  C   UNL     1       2.362   4.747  20.868  0.00  0.00    +0.000 A 
ATOM     12  C   UNL     1       1.628   3.597  21.266  0.00  0.00    +0.000 A 
ATOM     13  C   UNL     1       1.002   2.996  20.199  0.00  0.00    +0.000 A 
ATOM     14  S   UNL     1       1.312   3.811  18.726  0.00  0.00    +0.000 S 
ENDBRANCH   1  10
BRANCH   1  15
ATOM     15  C   UNL     1       2.490   7.466  19.078  0.00  0.00    +0.000 C 
ATOM     16  C   UNL     1       2.467   8.431  17.894  0.00  0.00    +0.000 C 
BRANCH  15  17
ATOM     17  N   UNL     1       1.151   7.367  19.737  0.00  0.00    +0.000 NA
ATOM     18  H   UNL     1       0.862   6.419  19.984  0.00  0.00    +0.000 HD
BRANCH  17  19
ATOM     19  S   UNL     1       0.765   8.369  21.047  0.00  0.00    +0.000 S 
ATOM     20  O   UNL     1      -0.483   7.849  21.572  0.00  0.00    +0.000 OA
ATOM     21  O   UNL     1       1.936   8.490  21.883  0.00  0.00    +0.000 OA
BRANCH  19  22
ATOM     22  C   UNL     1       0.389   9.947  20.318  0.00  0.00    +0.000 A 
ATOM     23  C   UNL     1       1.015  11.094  20.811  0.00  0.00    +0.000 A 
ATOM     24  C   UNL     1       0.787  12.328  20.191  0.00  0.00    +0.000 A 
ATOM     25  C   UNL     1      -0.053  12.419  19.074  0.00  0.00    +0.000 A 
ATOM     26  C   UNL     1      -0.261  13.732  18.373  0.00  0.00    +0.000 C 
ATOM     27  C   UNL     1      -0.689  11.265  18.601  0.00  0.00    +0.000 A 
ATOM     28  C   UNL     1      -0.469  10.029  19.213  0.00  0.00    +0.000 A 
ENDBRANCH  19  22
ENDBRANCH  17  19
ENDBRANCH  15  17
ENDBRANCH   1  15
TORSDOF 7
ENDMDL
MODEL 2
REMARK VINA RESULT:      -6.4      3.513      9.379
REMARK  Name = 
REMARK  10 active torsions:
REMARK  status: ('A' for Active; 'I' for Inactive)
REMARK    1  A    between atoms: C_1  and  C_2
REMARK    2  A    between atoms: C_2  and  N_3
REMARK    3  A    between atoms: N_6  and  C_7
REMARK    4  A    between atoms: C_7  and  C_8
REMARK    5  A    between atoms: C_7  and  C_13
REMARK    6  A    between atoms: C_13  and  C_14
REMARK    7  A    between atoms: C_13  and  N_15
REMARK    8  A    between atoms: N_15  and  S_16
REMARK    9  A    between atoms: S_16  and  C_19
REMARK   10  A    between atoms: C_22  and  C_23
REMARK                            x       y       z     vdW  Elec       q    Type
REMARK                         _______ _______ _______ _____ _____    ______ ____
ROOT
ATOM      1  C   UNL     1      -0.561  12.426  20.730  0.00  0.00    +0.000 C 
ENDROOT
BRANCH   1   5
ATOM      2  N   UNL     1      -3.070  13.569  23.016  0.00  0.00    +0.000 NA
ATOM      3  C   UNL     1      -1.994  14.467  22.576  0.00  0.00    +0.000 C 
ATOM      4  C   UNL     1      -0.550  13.936  22.708  0.00  0.00    +0.000 C 
ATOM      5  N   UNL     1      -0.342  12.546  22.216  0.00  0.00    +0.000 NA
ATOM      6  C   UNL     1      -1.254  11.731  23.041  0.00  0.00    +0.000 C 
ATOM      7  C   UNL     1      -2.746  12.134  22.951  0.00  0.00    +0.000 C 
BRANCH   2   9
ATOM      8  C   UNL     1      -3.602  15.470  24.521  0.00  0.00    +0.000 C 
ATOM      9  C   UNL     1      -3.746  13.971  24.246  0.00  0.00    +0.000 C 
ENDBRANCH   2   9
ENDBRANCH   1   5
BRANCH   1  10
ATOM     10  C   UNL     1       0.482  13.292  19.992  0.00  0.00    +0.000 A 
ATOM     11  C   UNL     1       1.864  13.172  19.996  0.00  0.00    +0.000 A 
ATOM     12  C   UNL     1       2.512  14.220  19.287  0.00  0.00    +0.000 A 
ATOM     13  C   UNL     1       1.608  15.080  18.710  0.00  0.00    +0.000 A 
ATOM     14  S   UNL     1      -0.010  14.630  19.035  0.00  0.00    +0.000 S 
ENDBRANCH   1  10
BRANCH   1  15
ATOM     15  C   UNL     1      -0.544  10.964  20.067  0.00  0.00    +0.000 C 
ATOM     16  C   UNL     1      -0.947  11.000  18.593  0.00  0.00    +0.000 C 
BRANCH  15  17
ATOM     17  N   UNL     1       0.762  10.266  20.267  0.00  0.00    +0.000 NA
ATOM     18  H   UNL     1       1.547  10.877  20.498  0.00  0.00    +0.000 HD
BRANCH  17  19
ATOM     19  S   UNL     1       0.862   8.913  21.282  0.00  0.00    +0.000 S 
ATOM     20  O   UNL     1       1.824   9.273  22.306  0.00  0.00    +0.000 OA
ATOM     21  O   UNL     1      -0.479   8.506  21.625  0.00  0.00    +0.000 OA
BRANCH  19  22
ATOM     22  C   UNL     1       1.631   7.654  20.287  0.00  0.00    +0.000 A 
ATOM     23  C   UNL     1       1.662   6.339  20.755  0.00  0.00    +0.000 A 
ATOM     24  C   UNL     1       2.191   5.327  19.944  0.00  0.00    +0.000 A 
ATOM     25  C   UNL     1       2.677   5.623  18.664  0.00  0.00    +0.000 A 
ATOM     26  C   UNL     1       3.199   4.533  17.769  0.00  0.00    +0.000 C 
ATOM     27  C   UNL     1       2.657   6.949  18.214  0.00  0.00    +0.000 A 
ATOM     28  C   UNL     1       2.131   7.964  19.016  0.00  0.00    +0.000 A 
ENDBRANCH  19  22
ENDBRANCH  17  19
ENDBRANCH  15  17
ENDBRANCH   1  15
TORSDOF 7
ENDMDL
MODEL 3
REMARK VINA RESULT:      -6.2      1.901      2.424
REMARK  Name = 
REMARK  10 active torsions:
REMARK  status: ('A' for Active; 'I' for Inactive)
REMARK    1  A    between atoms: C_1  and  C_2
REMARK    2  A    between atoms: C_2  and  N_3
REMARK    3  A    between atoms: N_6  and  C_7
REMARK    4  A    between atoms: C_7  and  C_8
REMARK    5  A    between atoms: C_7  and  C_13
REMARK    6  A    between atoms: C_13  and  C_14
REMARK    7  A    between atoms: C_13  and  N_15
REMARK    8  A    between atoms: N_15  and  S_16
REMARK    9  A    between atoms: S_16  and  C_19
REMARK   10  A    between atoms: C_22  and  C_23
REMARK                            x       y       z     vdW  Elec       q    Type
REMARK                         _______ _______ _______ _____ _____    ______ ____
ROOT
ATOM      1  C   UNL     1       2.998   5.708  18.177  0.00  0.00    +0.000 C 
ENDROOT
BRANCH   1   5
ATOM      2  N   UNL     1       5.274   5.133  15.471  0.00  0.00    +0.000 NA
ATOM      3  C   UNL     1       4.945   4.055  16.414  0.00  0.00    +0.000 C 
ATOM      4  C   UNL     1       5.087   4.381  17.917  0.00  0.00    +0.000 C 
ATOM      5  N   UNL     1       4.496   5.681  18.339  0.00  0.00    +0.000 NA
ATOM      6  C   UNL     1       5.221   6.684  17.537  0.00  0.00    +0.000 C 
ATOM      7  C   UNL     1       5.109   6.496  16.005  0.00  0.00    +0.000 C 
BRANCH   2   9
ATOM      8  C   UNL     1       6.328   3.937  13.569  0.00  0.00    +0.000 C 
ATOM      9  C   UNL     1       6.507   4.936  14.714  0.00  0.00    +0.000 C 
ENDBRANCH   2   9
ENDBRANCH   1   5
BRANCH   1  10
ATOM     10  C   UNL     1       2.420   4.330  18.562  0.00  0.00    +0.000 A 
ATOM     11  C   UNL     1       1.422   3.603  17.929  0.00  0.00    +0.000 A 
ATOM     12  C   UNL     1       1.069   2.420  18.633  0.00  0.00    +0.000 A 
ATOM     13  C   UNL     1       1.845   2.242  19.754  0.00  0.00    +0.000 A 
ATOM     14  S   UNL     1       2.982   3.504  19.959  0.00  0.00    +0.000 S 
ENDBRANCH   1  10
BRANCH   1  15
ATOM     15  C   UNL     1       2.160   6.829  18.963  0.00  0.00    +0.000 C 
ATOM     16  C   UNL     1       2.079   6.538  20.460  0.00  0.00    +0.000 C 
BRANCH  15  17
ATOM     17  N   UNL     1       2.670   8.208  18.694  0.00  0.00    +0.000 NA
ATOM     18  H   UNL     1       3.528   8.251  18.143  0.00  0.00    +0.000 HD
BRANCH  17  19
ATOM     19  S   UNL     1       1.628   9.404  18.096  0.00  0.00    +0.000 S 
ATOM     20  O   UNL     1       2.495  10.401  17.496  0.00  0.00    +0.000 OA
ATOM     21  O   UNL     1       0.589   8.756  17.332  0.00  0.00    +0.000 OA
BRANCH  19  22
ATOM     22  C   UNL     1       0.921  10.157  19.544  0.00  0.00    +0.000 A 
ATOM     23  C   UNL     1       0.914  11.549  19.656  0.00  0.00    +0.000 A 
ATOM     24  C   UNL     1       0.287  12.153  20.752  0.00  0.00    +0.000 A 
ATOM     25  C   UNL     1      -0.344  11.372  21.730  0.00  0.00    +0.000 A 
ATOM     26  C   UNL     1      -1.063  12.017  22.882  0.00  0.00    +0.000 C 
ATOM     27  C   UNL     1      -0.314   9.977  21.616  0.00  0.00    +0.000 A 
ATOM     28  C   UNL     1       0.309   9.365  20.526  0.00  0.00    +0.000 A 
ENDBRANCH  19  22
ENDBRANCH  17  19
ENDBRANCH  15  17
ENDBRANCH   1  15
TORSDOF 7
ENDMDL
MODEL 4
REMARK VINA RESULT:      -6.2      3.699      9.415
REMARK  Name = 
REMARK  10 active torsions:
REMARK  status: ('A' for Active; 'I' for Inactive)
REMARK    1  A    between atoms: C_1  and  C_2
REMARK    2  A    between atoms: C_2  and  N_3
REMARK    3  A    between atoms: N_6  and  C_7
REMARK    4  A    between atoms: C_7  and  C_8
REMARK    5  A    between atoms: C_7  and  C_13
REMARK    6  A    between atoms: C_13  and  C_14
REMARK    7  A    between atoms: C_13  and  N_15
REMARK    8  A    between atoms: N_15  and  S_16
REMARK    9  A    between atoms: S_16  and  C_19
REMARK   10  A    between atoms: C_22  and  C_23
REMARK                            x       y       z     vdW  Elec       q    Type
REMARK                         _______ _______ _______ _____ _____    ______ ____
ROOT
ATOM      1  C   UNL     1      -0.726  12.925  20.752  0.00  0.00    +0.000 C 
ENDROOT
BRANCH   1   5
ATOM      2  N   UNL     1      -3.307  13.604  23.142  0.00  0.00    +0.000 NA
ATOM      3  C   UNL     1      -2.237  14.581  22.897  0.00  0.00    +0.000 C 
ATOM      4  C   UNL     1      -0.788  14.055  22.969  0.00  0.00    +0.000 C 
ATOM      5  N   UNL     1      -0.543  12.779  22.241  0.00  0.00    +0.000 NA
ATOM      6  C   UNL     1      -1.459  11.817  22.883  0.00  0.00    +0.000 C 
ATOM      7  C   UNL     1      -2.956  12.209  22.829  0.00  0.00    +0.000 C 
BRANCH   2   9
ATOM      8  C   UNL     1      -4.562  12.443  24.942  0.00  0.00    +0.000 C 
ATOM      9  C   UNL     1      -4.017  13.769  24.407  0.00  0.00    +0.000 C 
ENDBRANCH   2   9
ENDBRANCH   1   5
BRANCH   1  10
ATOM     10  C   UNL     1       0.490  13.669  20.161  0.00  0.00    +0.000 A 
ATOM     11  C   UNL     1       1.839  13.437  20.389  0.00  0.00    +0.000 A 
ATOM     12  C   UNL     1       2.679  14.395  19.758  0.00  0.00    +0.000 A 
ATOM     13  C   UNL     1       1.954  15.299  19.017  0.00  0.00    +0.000 A 
ATOM     14  S   UNL     1       0.272  14.998  19.096  0.00  0.00    +0.000 S 
ENDBRANCH   1  10
BRANCH   1  15
ATOM     15  C   UNL     1      -0.969  11.603  19.875  0.00  0.00    +0.000 C 
ATOM     16  C   UNL     1      -1.645  11.918  18.541  0.00  0.00    +0.000 C 
BRANCH  15  17
ATOM     17  N   UNL     1       0.284  10.811  19.687  0.00  0.00    +0.000 NA
ATOM     18  H   UNL     1       1.135  11.366  19.584  0.00  0.00    +0.000 HD
BRANCH  17  19
ATOM     19  S   UNL     1       0.647   9.523  20.727  0.00  0.00    +0.000 S 
ATOM     20  O   UNL     1       1.566  10.071  21.708  0.00  0.00    +0.000 OA
ATOM     21  O   UNL     1      -0.594   8.904  21.128  0.00  0.00    +0.000 OA
BRANCH  19  22
ATOM     22  C   UNL     1       1.587   8.386  19.734  0.00  0.00    +0.000 A 
ATOM     23  C   UNL     1       1.997   8.772  18.457  0.00  0.00    +0.000 A 
ATOM     24  C   UNL     1       2.806   7.916  17.700  0.00  0.00    +0.000 A 
ATOM     25  C   UNL     1       3.217   6.682  18.219  0.00  0.00    +0.000 A 
ATOM     26  C   UNL     1       4.127   5.781  17.432  0.00  0.00    +0.000 C 
ATOM     27  C   UNL     1       2.784   6.298  19.495  0.00  0.00    +0.000 A 
ATOM     28  C   UNL     1       1.977   7.145  20.257  0.00  0.00    +0.000 A 
ENDBRANCH  19  22
ENDBRANCH  17  19
ENDBRANCH  15  17
ENDBRANCH   1  15
TORSDOF 7
ENDMDL
MODEL 5
REMARK VINA RESULT:      -6.0      3.466      9.149
REMARK  Name = 
REMARK  10 active torsions:
REMARK  status: ('A' for Active; 'I' for Inactive)
REMARK    1  A    between atoms: C_1  and  C_2
REMARK    2  A    between atoms: C_2  and  N_3
REMARK    3  A    between atoms: N_6  and  C_7
REMARK    4  A    between atoms: C_7  and  C_8
REMARK    5  A    between atoms: C_7  and  C_13
REMARK    6  A    between atoms: C_13  and  C_14
REMARK    7  A    between atoms: C_13  and  N_15
REMARK    8  A    between atoms: N_15  and  S_16
REMARK    9  A    between atoms: S_16  and  C_19
REMARK   10  A    between atoms: C_22  and  C_23
REMARK                            x       y       z     vdW  Elec       q    Type
REMARK                         _______ _______ _______ _____ _____    ______ ____
ROOT
ATOM      1  C   UNL     1      -0.466  12.846  20.352  0.00  0.00    +0.000 C 
ENDROOT
BRANCH   1   5
ATOM      2  N   UNL     1      -3.497  12.720  22.257  0.00  0.00    +0.000 NA
ATOM      3  C   UNL     1      -3.187  13.887  21.420  0.00  0.00    +0.000 C 
ATOM      4  C   UNL     1      -1.796  14.529  21.614  0.00  0.00    +0.000 C 
ATOM      5  N   UNL     1      -0.659  13.568  21.660  0.00  0.00    +0.000 NA
ATOM      6  C   UNL     1      -0.972  12.694  22.806  0.00  0.00    +0.000 C 
ATOM      7  C   UNL     1      -2.325  11.949  22.705  0.00  0.00    +0.000 C 
BRANCH   2   9
ATOM      8  C   UNL     1      -3.851  13.440  24.607  0.00  0.00    +0.000 C 
ATOM      9  C   UNL     1      -4.489  12.955  23.303  0.00  0.00    +0.000 C 
ENDBRANCH   2   9
ENDBRANCH   1   5
BRANCH   1  10
ATOM     10  C   UNL     1       0.895  13.248  19.745  0.00  0.00    +0.000 A 
ATOM     11  C   UNL     1       1.322  13.134  18.430  0.00  0.00    +0.000 A 
ATOM     12  C   UNL     1       2.684  13.503  18.258  0.00  0.00    +0.000 A 
ATOM     13  C   UNL     1       3.246  13.944  19.434  0.00  0.00    +0.000 A 
ATOM     14  S   UNL     1       2.137  13.899  20.736  0.00  0.00    +0.000 S 
ENDBRANCH   1  10
BRANCH   1  15
ATOM     15  C   UNL     1      -0.556  11.243  20.339  0.00  0.00    +0.000 C 
ATOM     16  C   UNL     1      -1.149  10.714  19.033  0.00  0.00    +0.000 C 
BRANCH  15  17
ATOM     17  N   UNL     1       0.755  10.600  20.652  0.00  0.00    +0.000 NA
ATOM     18  H   UNL     1       1.458  11.224  21.052  0.00  0.00    +0.000 HD
BRANCH  17  19
ATOM     19  S   UNL     1       0.810   9.152  21.532  0.00  0.00    +0.000 S 
ATOM     20  O   UNL     1       1.762   9.390  22.601  0.00  0.00    +0.000 OA
ATOM     21  O   UNL     1      -0.545   8.745  21.815  0.00  0.00    +0.000 OA
BRANCH  19  22
ATOM     22  C   UNL     1       1.568   7.979  20.432  0.00  0.00    +0.000 A 
ATOM     23  C   UNL     1       1.684   6.646  20.830  0.00  0.00    +0.000 A 
ATOM     24  C   UNL     1       2.204   5.699  19.940  0.00  0.00    +0.000 A 
ATOM     25  C   UNL     1       2.598   6.077  18.649  0.00  0.00    +0.000 A 
ATOM     26  C   UNL     1       3.109   5.056  17.672  0.00  0.00    +0.000 C 
ATOM     27  C   UNL     1       2.493   7.420  18.269  0.00  0.00    +0.000 A 
ATOM     28  C   UNL     1       1.976   8.372  19.150  0.00  0.00    +0.000 A 
ENDBRANCH  19  22
ENDBRANCH  17  19
ENDBRANCH  15  17
ENDBRANCH   1  15
TORSDOF 7
ENDMDL
MODEL 6
REMARK VINA RESULT:      -6.0      3.252      8.271
REMARK  Name = 
REMARK  10 active torsions:
REMARK  status: ('A' for Active; 'I' for Inactive)
REMARK    1  A    between atoms: C_1  and  C_2
REMARK    2  A    between atoms: C_2  and  N_3
REMARK    3  A    between atoms: N_6  and  C_7
REMARK    4  A    between atoms: C_7  and  C_8
REMARK    5  A    between atoms: C_7  and  C_13
REMARK    6  A    between atoms: C_13  and  C_14
REMARK    7  A    between atoms: C_13  and  N_15
REMARK    8  A    between atoms: N_15  and  S_16
REMARK    9  A    between atoms: S_16  and  C_19
REMARK   10  A    between atoms: C_22  and  C_23
REMARK                            x       y       z     vdW  Elec       q    Type
REMARK                         _______ _______ _______ _____ _____    ______ ____
ROOT
ATOM      1  C   UNL     1      -0.226  12.935  20.645  0.00  0.00    +0.000 C 
ENDROOT
BRANCH   1   5
ATOM      2  N   UNL     1       2.242  15.051  19.141  0.00  0.00    +0.000 NA
ATOM      3  C   UNL     1       0.810  15.300  18.925  0.00  0.00    +0.000 C 
ATOM      4  C   UNL     1      -0.039  14.100  18.454  0.00  0.00    +0.000 C 
ATOM      5  N   UNL     1       0.192  12.832  19.201  0.00  0.00    +0.000 NA
ATOM      6  C   UNL     1       1.624  12.546  18.992  0.00  0.00    +0.000 C 
ATOM      7  C   UNL     1       2.586  13.659  19.476  0.00  0.00    +0.000 C 
BRANCH   2   9
ATOM      8  C   UNL     1       4.469  14.927  18.050  0.00  0.00    +0.000 C 
ATOM      9  C   UNL     1       3.131  15.663  18.158  0.00  0.00    +0.000 C 
ENDBRANCH   2   9
ENDBRANCH   1   5
BRANCH   1  10
ATOM     10  C   UNL     1      -1.728  13.284  20.716  0.00  0.00    +0.000 A 
ATOM     11  C   UNL     1      -2.807  12.561  20.228  0.00  0.00    +0.000 A 
ATOM     12  C   UNL     1      -4.043  13.247  20.376  0.00  0.00    +0.000 A 
ATOM     13  C   UNL     1      -3.885  14.450  21.024  0.00  0.00    +0.000 A 
ATOM     14  S   UNL     1      -2.252  14.750  21.438  0.00  0.00    +0.000 S 
ENDBRANCH   1  10
BRANCH   1  15
ATOM     15  C   UNL     1       0.033  11.679  21.610  0.00  0.00    +0.000 C 
ATOM     16  C   UNL     1      -0.929  11.661  22.797  0.00  0.00    +0.000 C 
BRANCH  15  17
ATOM     17  N   UNL     1       0.020  10.381  20.868  0.00  0.00    +0.000 NA
ATOM     18  H   UNL     1       0.483  10.401  19.958  0.00  0.00    +0.000 HD
BRANCH  17  19
ATOM     19  S   UNL     1       0.488   8.948  21.641  0.00  0.00    +0.000 S 
ATOM     20  O   UNL     1       1.461   9.351  22.638  0.00  0.00    +0.000 OA
ATOM     21  O   UNL     1      -0.705   8.223  22.008  0.00  0.00    +0.000 OA
BRANCH  19  22
ATOM     22  C   UNL     1       1.382   8.035  20.404  0.00  0.00    +0.000 A 
ATOM     23  C   UNL     1       1.686   8.650  19.188  0.00  0.00    +0.000 A 
ATOM     24  C   UNL     1       2.460   7.968  18.241  0.00  0.00    +0.000 A 
ATOM     25  C   UNL     1       2.940   6.680  18.509  0.00  0.00    +0.000 A 
ATOM     26  C   UNL     1       3.814   5.964  17.517  0.00  0.00    +0.000 C 
ATOM     27  C   UNL     1       2.613   6.067  19.724  0.00  0.00    +0.000 A 
ATOM     28  C   UNL     1       1.842   6.739  20.675  0.00  0.00    +0.000 A 
ENDBRANCH  19  22
ENDBRANCH  17  19
ENDBRANCH  15  17
ENDBRANCH   1  15
TORSDOF 7
ENDMDL
MODEL 7
REMARK VINA RESULT:      -6.0      3.219      7.980
REMARK  Name = 
REMARK  10 active torsions:
REMARK  status: ('A' for Active; 'I' for Inactive)
REMARK    1  A    between atoms: C_1  and  C_2
REMARK    2  A    between atoms: C_2  and  N_3
REMARK    3  A    between atoms: N_6  and  C_7
REMARK    4  A    between atoms: C_7  and  C_8
REMARK    5  A    between atoms: C_7  and  C_13
REMARK    6  A    between atoms: C_13  and  C_14
REMARK    7  A    between atoms: C_13  and  N_15
REMARK    8  A    between atoms: N_15  and  S_16
REMARK    9  A    between atoms: S_16  and  C_19
REMARK   10  A    between atoms: C_22  and  C_23
REMARK                            x       y       z     vdW  Elec       q    Type
REMARK                         _______ _______ _______ _____ _____    ______ ____
ROOT
ATOM      1  C   UNL     1      -0.975  12.447  19.409  0.00  0.00    +0.000 C 
ENDROOT
BRANCH   1   5
ATOM      2  N   UNL     1       1.620  14.535  20.725  0.00  0.00    +0.000 NA
ATOM      3  C   UNL     1       0.502  15.117  19.970  0.00  0.00    +0.000 C 
ATOM      4  C   UNL     1       0.193  14.488  18.594  0.00  0.00    +0.000 C 
ATOM      5  N   UNL     1       0.153  12.999  18.577  0.00  0.00    +0.000 NA
ATOM      6  C   UNL     1       1.501  12.597  19.021  0.00  0.00    +0.000 C 
ATOM      7  C   UNL     1       1.909  13.124  20.418  0.00  0.00    +0.000 C 
BRANCH   2   9
ATOM      8  C   UNL     1       3.521  15.227  22.164  0.00  0.00    +0.000 C 
ATOM      9  C   UNL     1       2.808  15.379  20.819  0.00  0.00    +0.000 C 
ENDBRANCH   2   9
ENDBRANCH   1   5
BRANCH   1  10
ATOM     10  C   UNL     1      -1.893  11.586  18.515  0.00  0.00    +0.000 A 
ATOM     11  C   UNL     1      -1.534  10.692  17.516  0.00  0.00    +0.000 A 
ATOM     12  C   UNL     1      -2.655  10.160  16.823  0.00  0.00    +0.000 A 
ATOM     13  C   UNL     1      -3.843  10.616  17.346  0.00  0.00    +0.000 A 
ATOM     14  S   UNL     1      -3.601  11.688  18.657  0.00  0.00    +0.000 S 
ENDBRANCH   1  10
BRANCH   1  15
ATOM     15  C   UNL     1      -0.616  11.587  20.716  0.00  0.00    +0.000 C 
ATOM     16  C   UNL     1      -1.519  11.937  21.898  0.00  0.00    +0.000 C 
BRANCH  15  17
ATOM     17  N   UNL     1      -0.608  10.117  20.443  0.00  0.00    +0.000 NA
ATOM     18  H   UNL     1      -0.414   9.860  19.473  0.00  0.00    +0.000 HD
BRANCH  17  19
ATOM     19  S   UNL     1       0.285   9.068  21.429  0.00  0.00    +0.000 S 
ATOM     20  O   UNL     1       1.132   9.928  22.234  0.00  0.00    +0.000 OA
ATOM     21  O   UNL     1      -0.632   8.136  22.041  0.00  0.00    +0.000 OA
BRANCH  19  22
ATOM     22  C   UNL     1       1.362   8.199  20.313  0.00  0.00    +0.000 A 
ATOM     23  C   UNL     1       1.770   6.901  20.629  0.00  0.00    +0.000 A 
ATOM     24  C   UNL     1       2.550   6.179  19.718  0.00  0.00    +0.000 A 
ATOM     25  C   UNL     1       2.915   6.744  18.489  0.00  0.00    +0.000 A 
ATOM     26  C   UNL     1       3.709   5.954  17.486  0.00  0.00    +0.000 C 
ATOM     27  C   UNL     1       2.515   8.052  18.192  0.00  0.00    +0.000 A 
ATOM     28  C   UNL     1       1.737   8.781  19.094  0.00  0.00    +0.000 A 
ENDBRANCH  19  22
ENDBRANCH  17  19
ENDBRANCH  15  17
ENDBRANCH   1  15
TORSDOF 7
ENDMDL
MODEL 8
REMARK VINA RESULT:      -5.9      3.214      7.906
REMARK  Name = 
REMARK  10 active torsions:
REMARK  status: ('A' for Active; 'I' for Inactive)
REMARK    1  A    between atoms: C_1  and  C_2
REMARK    2  A    between atoms: C_2  and  N_3
REMARK    3  A    between atoms: N_6  and  C_7
REMARK    4  A    between atoms: C_7  and  C_8
REMARK    5  A    between atoms: C_7  and  C_13
REMARK    6  A    between atoms: C_13  and  C_14
REMARK    7  A    between atoms: C_13  and  N_15
REMARK    8  A    between atoms: N_15  and  S_16
REMARK    9  A    between atoms: S_16  and  C_19
REMARK   10  A    between atoms: C_22  and  C_23
REMARK                            x       y       z     vdW  Elec       q    Type
REMARK                         _______ _______ _______ _____ _____    ______ ____
ROOT
ATOM      1  C   UNL     1       3.846   5.003  18.993  0.00  0.00    +0.000 C 
ENDROOT
BRANCH   1   5
ATOM      2  N   UNL     1       1.721   7.267  20.780  0.00  0.00    +0.000 NA
ATOM      3  C   UNL     1       1.427   5.828  20.753  0.00  0.00    +0.000 C 
ATOM      4  C   UNL     1       1.390   5.153  19.364  0.00  0.00    +0.000 C 
ATOM      5  N   UNL     1       2.525   5.499  18.465  0.00  0.00    +0.000 NA
ATOM      6  C   UNL     1       2.433   6.964  18.314  0.00  0.00    +0.000 C 
ATOM      7  C   UNL     1       2.512   7.760  19.640  0.00  0.00    +0.000 C 
BRANCH   2   9
ATOM      8  C   UNL     1       0.579   9.426  20.334  0.00  0.00    +0.000 C 
ATOM      9  C   UNL     1       0.591   8.122  21.134  0.00  0.00    +0.000 C 
ENDBRANCH   2   9
ENDBRANCH   1   5
BRANCH   1  10
ATOM     10  C   UNL     1       3.903   3.467  18.858  0.00  0.00    +0.000 A 
ATOM     11  C   UNL     1       3.613   2.686  17.748  0.00  0.00    +0.000 A 
ATOM     12  C   UNL     1       3.667   1.293  18.024  0.00  0.00    +0.000 A 
ATOM     13  C   UNL     1       4.053   1.044  19.320  0.00  0.00    +0.000 A 
ATOM     14  S   UNL     1       4.335   2.485  20.198  0.00  0.00    +0.000 S 
ENDBRANCH   1  10
BRANCH   1  15
ATOM     15  C   UNL     1       5.197   5.603  18.368  0.00  0.00    +0.000 C 
ATOM     16  C   UNL     1       6.385   5.449  19.318  0.00  0.00    +0.000 C 
BRANCH  15  17
ATOM     17  N   UNL     1       5.494   5.039  17.016  0.00  0.00    +0.000 NA
ATOM     18  H   UNL     1       4.723   4.528  16.583  0.00  0.00    +0.000 HD
BRANCH  17  19
ATOM     19  S   UNL     1       6.187   6.014  15.815  0.00  0.00    +0.000 S 
ATOM     20  O   UNL     1       5.149   6.956  15.440  0.00  0.00    +0.000 OA
ATOM     21  O   UNL     1       7.473   6.468  16.289  0.00  0.00    +0.000 OA
BRANCH  19  22
ATOM     22  C   UNL     1       6.414   4.931  14.423  0.00  0.00    +0.000 A 
ATOM     23  C   UNL     1       5.482   3.919  14.187  0.00  0.00    +0.000 A 
ATOM     24  C   UNL     1       5.606   3.114  13.048  0.00  0.00    +0.000 A 
ATOM     25  C   UNL     1       6.651   3.324  12.139  0.00  0.00    +0.000 A 
ATOM     26  C   UNL     1       6.760   2.497  10.889  0.00  0.00    +0.000 C 
ATOM     27  C   UNL     1       7.589   4.331  12.397  0.00  0.00    +0.000 A 
ATOM     28  C   UNL     1       7.474   5.139  13.530  0.00  0.00    +0.000 A 
ENDBRANCH  19  22
ENDBRANCH  17  19
ENDBRANCH  15  17
ENDBRANCH   1  15
TORSDOF 7
ENDMDL
MODEL 9
REMARK VINA RESULT:      -5.9      3.277      8.680
REMARK  Name = 
REMARK  10 active torsions:
REMARK  status: ('A' for Active; 'I' for Inactive)
REMARK    1  A    between atoms: C_1  and  C_2
REMARK    2  A    between atoms: C_2  and  N_3
REMARK    3  A    between atoms: N_6  and  C_7
REMARK    4  A    between atoms: C_7  and  C_8
REMARK    5  A    between atoms: C_7  and  C_13
REMARK    6  A    between atoms: C_13  and  C_14
REMARK    7  A    between atoms: C_13  and  N_15
REMARK    8  A    between atoms: N_15  and  S_16
REMARK    9  A    between atoms: S_16  and  C_19
REMARK   10  A    between atoms: C_22  and  C_23
REMARK                            x       y       z     vdW  Elec       q    Type
REMARK                         _______ _______ _______ _____ _____    ______ ____
ROOT
ATOM      1  C   UNL     1      -0.708  12.818  20.349  0.00  0.00    +0.000 C 
ENDROOT
BRANCH   1   5
ATOM      2  N   UNL     1       0.681  16.063  20.960  0.00  0.00    +0.000 NA
ATOM      3  C   UNL     1      -0.304  15.860  19.889  0.00  0.00    +0.000 C 
ATOM      4  C   UNL     1      -0.018  14.715  18.893  0.00  0.00    +0.000 C 
ATOM      5  N   UNL     1       0.391  13.425  19.515  0.00  0.00    +0.000 NA
ATOM      6  C   UNL     1       1.619  13.759  20.262  0.00  0.00    +0.000 C 
ATOM      7  C   UNL     1       1.448  14.863  21.333  0.00  0.00    +0.000 C 
BRANCH   2   9
ATOM      8  C   UNL     1       0.898  18.262  19.829  0.00  0.00    +0.000 C 
ATOM      9  C   UNL     1       1.491  17.272  20.833  0.00  0.00    +0.000 C 
ENDBRANCH   2   9
ENDBRANCH   1   5
BRANCH   1  10
ATOM     10  C   UNL     1      -1.815  12.281  19.418  0.00  0.00    +0.000 A 
ATOM     11  C   UNL     1      -1.682  11.678  18.176  0.00  0.00    +0.000 A 
ATOM     12  C   UNL     1      -2.933  11.411  17.555  0.00  0.00    +0.000 A 
ATOM     13  C   UNL     1      -3.989  11.764  18.362  0.00  0.00    +0.000 A 
ATOM     14  S   UNL     1      -3.470  12.424  19.853  0.00  0.00    +0.000 S 
ENDBRANCH   1  10
BRANCH   1  15
ATOM     15  C   UNL     1      -0.330  11.653  21.387  0.00  0.00    +0.000 C 
ATOM     16  C   UNL     1      -1.211  11.689  22.634  0.00  0.00    +0.000 C 
BRANCH  15  17
ATOM     17  N   UNL     1      -0.331  10.302  20.746  0.00  0.00    +0.000 NA
ATOM     18  H   UNL     1      -0.036  10.288  19.769  0.00  0.00    +0.000 HD
BRANCH  17  19
ATOM     19  S   UNL     1       0.416   8.990  21.516  0.00  0.00    +0.000 S 
ATOM     20  O   UNL     1       1.364   9.578  22.442  0.00  0.00    +0.000 OA
ATOM     21  O   UNL     1      -0.615   8.089  21.972  0.00  0.00    +0.000 OA
BRANCH  19  22
ATOM     22  C   UNL     1       1.375   8.202  20.243  0.00  0.00    +0.000 A 
ATOM     23  C   UNL     1       1.619   8.884  19.049  0.00  0.00    +0.000 A 
ATOM     24  C   UNL     1       2.441   8.306  18.075  0.00  0.00    +0.000 A 
ATOM     25  C   UNL     1       3.030   7.054  18.293  0.00  0.00    +0.000 A 
ATOM     26  C   UNL     1       3.954   6.451  17.272  0.00  0.00    +0.000 C 
ATOM     27  C   UNL     1       2.763   6.371  19.486  0.00  0.00    +0.000 A 
ATOM     28  C   UNL     1       1.944   6.940  20.464  0.00  0.00    +0.000 A 
ENDBRANCH  19  22
ENDBRANCH  17  19
ENDBRANCH  15  17
ENDBRANCH   1  15
TORSDOF 7
ENDMDL
