MODEL 1
REMARK VINA RESULT:      -8.2      0.000      0.000
REMARK  Name = 
REMARK  9 active torsions:
REMARK  status: ('A' for Active; 'I' for Inactive)
REMARK    1  A    between atoms: C_1  and  C_2
REMARK    2  A    between atoms: C_2  and  C_3
REMARK    3  A    between atoms: C_3  and  C_4
REMARK    4  A    between atoms: C_3  and  N_7
REMARK    5  A    between atoms: C_4  and  O_6
REMARK    6  A    between atoms: C_11  and  C_12
REMARK    7  A    between atoms: C_15  and  C_16
REMARK    8  A    between atoms: N_20  and  C_21
REMARK    9  A    between atoms: N_20  and  C_22
REMARK                            x       y       z     vdW  Elec       q    Type
REMARK                         _______ _______ _______ _____ _____    ______ ____
ROOT
ATOM      1  N   UNL     1       5.137   4.637  17.257  0.00  0.00    +0.000 NA
ATOM      2  C   UNL     1       4.759   6.000  16.677  0.00  0.00    +0.000 C 
ATOM      3  C   UNL     1       3.776   6.557  17.642  0.00  0.00    +0.000 A 
ATOM      4  S   UNL     1       3.153   8.102  17.735  0.00  0.00    +0.000 S 
ATOM      5  C   UNL     1       2.186   7.665  19.112  0.00  0.00    +0.000 A 
ATOM      6  C   UNL     1       2.389   6.342  19.488  0.00  0.00    +0.000 A 
ATOM      7  C   UNL     1       3.306   5.741  18.623  0.00  0.00    +0.000 A 
ATOM      8  S   UNL     1       3.997   4.199  18.473  0.00  0.00    +0.000 S 
ATOM      9  O   UNL     1       2.958   3.381  17.905  0.00  0.00    +0.000 OA
ATOM     10  O   UNL     1       4.690   3.923  19.712  0.00  0.00    +0.000 OA
ENDROOT
BRANCH   5  11
ATOM     11  C   UNL     1       1.324   8.671  19.735  0.00  0.00    +0.000 A 
ATOM     12  C   UNL     1       0.980   8.604  21.089  0.00  0.00    +0.000 A 
ATOM     13  C   UNL     1       0.152   9.569  21.659  0.00  0.00    +0.000 A 
ATOM     14  C   UNL     1      -0.333  10.649  20.907  0.00  0.00    +0.000 A 
ATOM     15  C   UNL     1       0.027  10.714  19.551  0.00  0.00    +0.000 A 
ATOM     16  C   UNL     1       0.837   9.736  18.971  0.00  0.00    +0.000 A 
BRANCH  14  17
ATOM     17  C   UNL     1      -1.175  11.682  21.525  0.00  0.00    +0.000 A 
ATOM     18  C   UNL     1      -1.299  11.809  22.906  0.00  0.00    +0.000 A 
ATOM     19  C   UNL     1      -2.112  12.798  23.461  0.00  0.00    +0.000 A 
ATOM     20  C   UNL     1      -2.802  13.689  22.645  0.00  0.00    +0.000 A 
ATOM     21  N   UNL     1      -3.622  14.680  23.138  0.00  0.00    +0.000 N 
ATOM     22  C   UNL     1      -4.262  15.594  22.201  0.00  0.00    +0.000 C 
ATOM     23  C   UNL     1      -3.806  14.984  24.545  0.00  0.00    +0.000 C 
ATOM     24  N   UNL     1      -2.684  13.574  21.307  0.00  0.00    +0.000 NA
ATOM     25  C   UNL     1      -1.903  12.598  20.783  0.00  0.00    +0.000 A 
ENDBRANCH  14  17
ENDBRANCH   5  11
BRANCH   1  26
ATOM     26  C   UNL     1       6.577   4.521  17.633  0.00  0.00    +0.000 C 
BRANCH  26  28
ATOM     27  C   UNL     1       6.626   4.027  15.121  0.00  0.00    +0.000 C 
ATOM     28  C   UNL     1       7.430   4.431  16.351  0.00  0.00    +0.000 C 
ENDBRANCH  26  28
BRANCH  26  29
ATOM     29  C   UNL     1       7.091   5.653  18.530  0.00  0.00    +0.000 C 
ATOM     30  O   UNL     1       7.534   6.712  18.100  0.00  0.00    +0.000 OA
BRANCH  29  31
ATOM     31  O   UNL     1       6.985   5.428  19.856  0.00  0.00    +0.000 OA
ATOM     32  H   UNL     1       7.611   5.945  20.422  0.00  0.00    +0.000 HD
ENDBRANCH  29  31
ENDBRANCH  26  29
ENDBRANCH   1  26
TORSDOF 6
ENDMDL
MODEL 2
REMARK VINA RESULT:      -8.0      0.579      1.072
REMARK  Name = 
REMARK  9 active torsions:
REMARK  status: ('A' for Active; 'I' for Inactive)
REMARK    1  A    between atoms: C_1  and  C_2
REMARK    2  A    between atoms: C_2  and  C_3
REMARK    3  A    between atoms: C_3  and  C_4
REMARK    4  A    between atoms: C_3  and  N_7
REMARK    5  A    between atoms: C_4  and  O_6
REMARK    6  A    between atoms: C_11  and  C_12
REMARK    7  A    between atoms: C_15  and  C_16
REMARK    8  A    between atoms: N_20  and  C_21
REMARK    9  A    between atoms: N_20  and  C_22
REMARK                            x       y       z     vdW  Elec       q    Type
REMARK                         _______ _______ _______ _____ _____    ______ ____
ROOT
ATOM      1  N   UNL     1       5.017   4.788  17.130  0.00  0.00    +0.000 NA
ATOM      2  C   UNL     1       4.702   6.192  16.613  0.00  0.00    +0.000 C 
ATOM      3  C   UNL     1       3.707   6.728  17.576  0.00  0.00    +0.000 A 
ATOM      4  S   UNL     1       3.130   8.286  17.733  0.00  0.00    +0.000 S 
ATOM      5  C   UNL     1       2.105   7.809  19.055  0.00  0.00    +0.000 A 
ATOM      6  C   UNL     1       2.254   6.462  19.364  0.00  0.00    +0.000 A 
ATOM      7  C   UNL     1       3.179   5.877  18.497  0.00  0.00    +0.000 A 
ATOM      8  S   UNL     1       3.825   4.323  18.283  0.00  0.00    +0.000 S 
ATOM      9  O   UNL     1       2.779   3.572  17.640  0.00  0.00    +0.000 OA
ATOM     10  O   UNL     1       4.468   3.959  19.527  0.00  0.00    +0.000 OA
ENDROOT
BRANCH   5  11
ATOM     11  C   UNL     1       1.256   8.809  19.704  0.00  0.00    +0.000 A 
ATOM     12  C   UNL     1       1.128   8.867  21.097  0.00  0.00    +0.000 A 
ATOM     13  C   UNL     1       0.308   9.823  21.693  0.00  0.00    +0.000 A 
ATOM     14  C   UNL     1      -0.385  10.770  20.925  0.00  0.00    +0.000 A 
ATOM     15  C   UNL     1      -0.241  10.710  19.529  0.00  0.00    +0.000 A 
ATOM     16  C   UNL     1       0.560   9.740  18.927  0.00  0.00    +0.000 A 
BRANCH  14  17
ATOM     17  C   UNL     1      -1.218  11.798  21.564  0.00  0.00    +0.000 A 
ATOM     18  C   UNL     1      -2.179  12.518  20.858  0.00  0.00    +0.000 A 
ATOM     19  C   UNL     1      -2.950  13.491  21.494  0.00  0.00    +0.000 A 
ATOM     20  C   UNL     1      -2.786  13.751  22.851  0.00  0.00    +0.000 A 
ATOM     21  N   UNL     1      -3.516  14.704  23.528  0.00  0.00    +0.000 N 
ATOM     22  C   UNL     1      -3.303  14.866  24.961  0.00  0.00    +0.000 C 
ATOM     23  C   UNL     1      -4.594  15.489  22.955  0.00  0.00    +0.000 C 
ATOM     24  N   UNL     1      -1.860  13.056  23.541  0.00  0.00    +0.000 NA
ATOM     25  C   UNL     1      -1.108  12.125  22.906  0.00  0.00    +0.000 A 
ENDBRANCH  14  17
ENDBRANCH   5  11
BRANCH   1  26
ATOM     26  C   UNL     1       6.440   4.603  17.543  0.00  0.00    +0.000 C 
BRANCH  26  28
ATOM     27  C   UNL     1       6.552   4.126  15.029  0.00  0.00    +0.000 C 
ATOM     28  C   UNL     1       7.326   4.514  16.283  0.00  0.00    +0.000 C 
ENDBRANCH  26  28
BRANCH  26  29
ATOM     29  C   UNL     1       6.972   5.689  18.485  0.00  0.00    +0.000 C 
ATOM     30  O   UNL     1       7.503   6.723  18.098  0.00  0.00    +0.000 OA
BRANCH  29  31
ATOM     31  O   UNL     1       6.777   5.454  19.800  0.00  0.00    +0.000 OA
ATOM     32  H   UNL     1       5.914   5.776  20.162  0.00  0.00    +0.000 HD
ENDBRANCH  29  31
ENDBRANCH  26  29
ENDBRANCH   1  26
TORSDOF 6
ENDMDL
MODEL 3
REMARK VINA RESULT:      -8.0      0.577      1.037
REMARK  Name = 
REMARK  9 active torsions:
REMARK  status: ('A' for Active; 'I' for Inactive)
REMARK    1  A    between atoms: C_1  and  C_2
REMARK    2  A    between atoms: C_2  and  C_3
REMARK    3  A    between atoms: C_3  and  C_4
REMARK    4  A    between atoms: C_3  and  N_7
REMARK    5  A    between atoms: C_4  and  O_6
REMARK    6  A    between atoms: C_11  and  C_12
REMARK    7  A    between atoms: C_15  and  C_16
REMARK    8  A    between atoms: N_20  and  C_21
REMARK    9  A    between atoms: N_20  and  C_22
REMARK                            x       y       z     vdW  Elec       q    Type
REMARK                         _______ _______ _______ _____ _____    ______ ____
ROOT
ATOM      1  N   UNL     1       5.368   4.419  17.079  0.00  0.00    +0.000 NA
ATOM      2  C   UNL     1       4.700   5.616  16.401  0.00  0.00    +0.000 C 
ATOM      3  C   UNL     1       3.865   6.229  17.465  0.00  0.00    +0.000 A 
ATOM      4  S   UNL     1       3.070   7.696  17.462  0.00  0.00    +0.000 S 
ATOM      5  C   UNL     1       2.466   7.410  19.068  0.00  0.00    +0.000 A 
ATOM      6  C   UNL     1       2.918   6.199  19.581  0.00  0.00    +0.000 A 
ATOM      7  C   UNL     1       3.716   5.553  18.636  0.00  0.00    +0.000 A 
ATOM      8  S   UNL     1       4.565   4.085  18.567  0.00  0.00    +0.000 S 
ATOM      9  O   UNL     1       3.553   3.080  18.369  0.00  0.00    +0.000 OA
ATOM     10  O   UNL     1       5.523   4.100  19.650  0.00  0.00    +0.000 OA
ENDROOT
BRANCH   5  11
ATOM     11  C   UNL     1       1.619   8.416  19.709  0.00  0.00    +0.000 A 
ATOM     12  C   UNL     1       1.161   9.539  19.010  0.00  0.00    +0.000 A 
ATOM     13  C   UNL     1       0.361  10.489  19.643  0.00  0.00    +0.000 A 
ATOM     14  C   UNL     1      -0.034  10.335  20.980  0.00  0.00    +0.000 A 
ATOM     15  C   UNL     1       0.422   9.200  21.668  0.00  0.00    +0.000 A 
ATOM     16  C   UNL     1       1.242   8.259  21.046  0.00  0.00    +0.000 A 
BRANCH  14  17
ATOM     17  C   UNL     1      -0.908  11.323  21.628  0.00  0.00    +0.000 A 
ATOM     18  C   UNL     1      -1.321  11.192  22.952  0.00  0.00    +0.000 A 
ATOM     19  C   UNL     1      -2.155  12.145  23.535  0.00  0.00    +0.000 A 
ATOM     20  C   UNL     1      -2.579  13.256  22.812  0.00  0.00    +0.000 A 
ATOM     21  N   UNL     1      -3.408  14.223  23.336  0.00  0.00    +0.000 N 
ATOM     22  C   UNL     1      -3.755  15.373  22.511  0.00  0.00    +0.000 C 
ATOM     23  C   UNL     1      -3.871  14.267  24.711  0.00  0.00    +0.000 C 
ATOM     24  N   UNL     1      -2.181  13.390  21.531  0.00  0.00    +0.000 NA
ATOM     25  C   UNL     1      -1.383  12.448  20.973  0.00  0.00    +0.000 A 
ENDBRANCH  14  17
ENDBRANCH   5  11
BRANCH   1  26
ATOM     26  C   UNL     1       6.856   4.515  17.142  0.00  0.00    +0.000 C 
BRANCH  26  28
ATOM     27  C   UNL     1       6.599   3.971  14.653  0.00  0.00    +0.000 C 
ATOM     28  C   UNL     1       7.413   4.700  15.715  0.00  0.00    +0.000 C 
ENDBRANCH  26  28
BRANCH  26  29
ATOM     29  C   UNL     1       7.381   5.626  18.060  0.00  0.00    +0.000 C 
ATOM     30  O   UNL     1       7.266   6.821  17.814  0.00  0.00    +0.000 OA
BRANCH  29  31
ATOM     31  O   UNL     1       7.954   5.201  19.205  0.00  0.00    +0.000 OA
ATOM     32  H   UNL     1       7.630   5.645  20.028  0.00  0.00    +0.000 HD
ENDBRANCH  29  31
ENDBRANCH  26  29
ENDBRANCH   1  26
TORSDOF 6
ENDMDL
MODEL 4
REMARK VINA RESULT:      -7.8      0.851      1.282
REMARK  Name = 
REMARK  9 active torsions:
REMARK  status: ('A' for Active; 'I' for Inactive)
REMARK    1  A    between atoms: C_1  and  C_2
REMARK    2  A    between atoms: C_2  and  C_3
REMARK    3  A    between atoms: C_3  and  C_4
REMARK    4  A    between atoms: C_3  and  N_7
REMARK    5  A    between atoms: C_4  and  O_6
REMARK    6  A    between atoms: C_11  and  C_12
REMARK    7  A    between atoms: C_15  and  C_16
REMARK    8  A    between atoms: N_20  and  C_21
REMARK    9  A    between atoms: N_20  and  C_22
REMARK                            x       y       z     vdW  Elec       q    Type
REMARK                         _______ _______ _______ _____ _____    ______ ____
ROOT
ATOM      1  N   UNL     1       4.820   4.693  17.296  0.00  0.00    +0.000 NA
ATOM      2  C   UNL     1       4.489   6.085  16.756  0.00  0.00    +0.000 C 
ATOM      3  C   UNL     1       3.593   6.678  17.782  0.00  0.00    +0.000 A 
ATOM      4  S   UNL     1       3.065   8.254  17.930  0.00  0.00    +0.000 S 
ATOM      5  C   UNL     1       2.150   7.849  19.353  0.00  0.00    +0.000 A 
ATOM      6  C   UNL     1       2.299   6.510  19.698  0.00  0.00    +0.000 A 
ATOM      7  C   UNL     1       3.132   5.874  18.776  0.00  0.00    +0.000 A 
ATOM      8  S   UNL     1       3.726   4.298  18.566  0.00  0.00    +0.000 S 
ATOM      9  O   UNL     1       2.612   3.549  18.046  0.00  0.00    +0.000 OA
ATOM     10  O   UNL     1       4.469   3.964  19.762  0.00  0.00    +0.000 OA
ENDROOT
BRANCH   5  11
ATOM     11  C   UNL     1       1.382   8.890  20.036  0.00  0.00    +0.000 A 
ATOM     12  C   UNL     1       0.954  10.042  19.366  0.00  0.00    +0.000 A 
ATOM     13  C   UNL     1       0.230  11.025  20.038  0.00  0.00    +0.000 A 
ATOM     14  C   UNL     1      -0.118  10.877  21.389  0.00  0.00    +0.000 A 
ATOM     15  C   UNL     1       0.307   9.713  22.049  0.00  0.00    +0.000 A 
ATOM     16  C   UNL     1       1.052   8.738  21.386  0.00  0.00    +0.000 A 
BRANCH  14  17
ATOM     17  C   UNL     1      -0.913  11.902  22.080  0.00  0.00    +0.000 A 
ATOM     18  C   UNL     1      -0.417  13.177  22.337  0.00  0.00    +0.000 A 
ATOM     19  C   UNL     1      -1.197  14.125  23.001  0.00  0.00    +0.000 A 
ATOM     20  C   UNL     1      -2.493  13.820  23.405  0.00  0.00    +0.000 A 
ATOM     21  N   UNL     1      -3.304  14.715  24.068  0.00  0.00    +0.000 N 
ATOM     22  C   UNL     1      -4.664  14.314  24.406  0.00  0.00    +0.000 C 
ATOM     23  C   UNL     1      -2.961  16.096  24.353  0.00  0.00    +0.000 C 
ATOM     24  N   UNL     1      -2.980  12.588  23.156  0.00  0.00    +0.000 NA
ATOM     25  C   UNL     1      -2.206  11.674  22.525  0.00  0.00    +0.000 A 
ENDBRANCH  14  17
ENDBRANCH   5  11
BRANCH   1  26
ATOM     26  C   UNL     1       6.270   4.490  17.590  0.00  0.00    +0.000 C 
BRANCH  26  28
ATOM     27  C   UNL     1       6.225   3.723  15.147  0.00  0.00    +0.000 C 
ATOM     28  C   UNL     1       7.044   4.363  16.261  0.00  0.00    +0.000 C 
ENDBRANCH  26  28
BRANCH  26  29
ATOM     29  C   UNL     1       6.898   5.584  18.463  0.00  0.00    +0.000 C 
ATOM     30  O   UNL     1       7.390   6.612  18.014  0.00  0.00    +0.000 OA
BRANCH  29  31
ATOM     31  O   UNL     1       6.838   5.361  19.792  0.00  0.00    +0.000 OA
ATOM     32  H   UNL     1       6.027   4.887  20.104  0.00  0.00    +0.000 HD
ENDBRANCH  29  31
ENDBRANCH  26  29
ENDBRANCH   1  26
TORSDOF 6
ENDMDL
MODEL 5
REMARK VINA RESULT:      -7.7      5.761     11.828
REMARK  Name = 
REMARK  9 active torsions:
REMARK  status: ('A' for Active; 'I' for Inactive)
REMARK    1  A    between atoms: C_1  and  C_2
REMARK    2  A    between atoms: C_2  and  C_3
REMARK    3  A    between atoms: C_3  and  C_4
REMARK    4  A    between atoms: C_3  and  N_7
REMARK    5  A    between atoms: C_4  and  O_6
REMARK    6  A    between atoms: C_11  and  C_12
REMARK    7  A    between atoms: C_15  and  C_16
REMARK    8  A    between atoms: N_20  and  C_21
REMARK    9  A    between atoms: N_20  and  C_22
REMARK                            x       y       z     vdW  Elec       q    Type
REMARK                         _______ _______ _______ _____ _____    ______ ____
ROOT
ATOM      1  N   UNL     1      -4.944  14.447  23.212  0.00  0.00    +0.000 NA
ATOM      2  C   UNL     1      -4.440  14.432  21.769  0.00  0.00    +0.000 C 
ATOM      3  C   UNL     1      -3.391  13.381  21.751  0.00  0.00    +0.000 A 
ATOM      4  S   UNL     1      -2.614  12.693  20.444  0.00  0.00    +0.000 S 
ATOM      5  C   UNL     1      -1.674  11.676  21.496  0.00  0.00    +0.000 A 
ATOM      6  C   UNL     1      -2.004  11.870  22.833  0.00  0.00    +0.000 A 
ATOM      7  C   UNL     1      -2.990  12.852  22.939  0.00  0.00    +0.000 A 
ATOM      8  S   UNL     1      -3.836  13.588  24.213  0.00  0.00    +0.000 S 
ATOM      9  O   UNL     1      -2.893  14.500  24.805  0.00  0.00    +0.000 OA
ATOM     10  O   UNL     1      -4.534  12.535  24.919  0.00  0.00    +0.000 OA
ENDROOT
BRANCH   5  11
ATOM     11  C   UNL     1      -0.705  10.743  20.918  0.00  0.00    +0.000 A 
ATOM     12  C   UNL     1      -0.118   9.730  21.685  0.00  0.00    +0.000 A 
ATOM     13  C   UNL     1       0.808   8.858  21.115  0.00  0.00    +0.000 A 
ATOM     14  C   UNL     1       1.153   8.946  19.759  0.00  0.00    +0.000 A 
ATOM     15  C   UNL     1       0.549   9.958  18.996  0.00  0.00    +0.000 A 
ATOM     16  C   UNL     1      -0.360  10.849  19.568  0.00  0.00    +0.000 A 
BRANCH  14  17
ATOM     17  C   UNL     1       2.102   7.998  19.157  0.00  0.00    +0.000 A 
ATOM     18  C   UNL     1       2.372   6.757  19.728  0.00  0.00    +0.000 A 
ATOM     19  C   UNL     1       3.283   5.883  19.134  0.00  0.00    +0.000 A 
ATOM     20  C   UNL     1       3.927   6.226  17.950  0.00  0.00    +0.000 A 
ATOM     21  N   UNL     1       4.839   5.405  17.325  0.00  0.00    +0.000 N 
ATOM     22  C   UNL     1       5.424   5.837  16.061  0.00  0.00    +0.000 C 
ATOM     23  C   UNL     1       5.181   4.061  17.754  0.00  0.00    +0.000 C 
ATOM     24  N   UNL     1       3.668   7.425  17.391  0.00  0.00    +0.000 NA
ATOM     25  C   UNL     1       2.793   8.269  17.988  0.00  0.00    +0.000 A 
ENDBRANCH  14  17
ENDBRANCH   5  11
BRANCH   1  26
ATOM     26  C   UNL     1      -6.383  14.072  23.351  0.00  0.00    +0.000 C 
BRANCH  26  28
ATOM     27  C   UNL     1      -7.822  16.186  23.208  0.00  0.00    +0.000 C 
ATOM     28  C   UNL     1      -7.236  14.996  22.457  0.00  0.00    +0.000 C 
ENDBRANCH  26  28
BRANCH  26  29
ATOM     29  C   UNL     1      -6.688  12.604  23.034  0.00  0.00    +0.000 C 
ATOM     30  O   UNL     1      -6.489  12.089  21.940  0.00  0.00    +0.000 OA
BRANCH  29  31
ATOM     31  O   UNL     1      -7.163  11.880  24.069  0.00  0.00    +0.000 OA
ATOM     32  H   UNL     1      -6.527  11.743  24.814  0.00  0.00    +0.000 HD
ENDBRANCH  29  31
ENDBRANCH  26  29
ENDBRANCH   1  26
TORSDOF 6
ENDMDL
MODEL 6
REMARK VINA RESULT:      -7.7      5.372     11.633
REMARK  Name = 
REMARK  9 active torsions:
REMARK  status: ('A' for Active; 'I' for Inactive)
REMARK    1  A    between atoms: C_1  and  C_2
REMARK    2  A    between atoms: C_2  and  C_3
REMARK    3  A    between atoms: C_3  and  C_4
REMARK    4  A    between atoms: C_3  and  N_7
REMARK    5  A    between atoms: C_4  and  O_6
REMARK    6  A    between atoms: C_11  and  C_12
REMARK    7  A    between atoms: C_15  and  C_16
REMARK    8  A    between atoms: N_20  and  C_21
REMARK    9  A    between atoms: N_20  and  C_22
REMARK                            x       y       z     vdW  Elec       q    Type
REMARK                         _______ _______ _______ _____ _____    ______ ____
ROOT
ATOM      1  N   UNL     1      -3.966  13.693  22.301  0.00  0.00    +0.000 NA
ATOM      2  C   UNL     1      -3.520  13.662  20.839  0.00  0.00    +0.000 C 
ATOM      3  C   UNL     1      -2.466  12.617  20.792  0.00  0.00    +0.000 A 
ATOM      4  S   UNL     1      -1.738  11.917  19.464  0.00  0.00    +0.000 S 
ATOM      5  C   UNL     1      -0.750  10.918  20.489  0.00  0.00    +0.000 A 
ATOM      6  C   UNL     1      -1.027  11.128  21.836  0.00  0.00    +0.000 A 
ATOM      7  C   UNL     1      -2.015  12.106  21.969  0.00  0.00    +0.000 A 
ATOM      8  S   UNL     1      -2.813  12.853  23.267  0.00  0.00    +0.000 S 
ATOM      9  O   UNL     1      -1.853  13.778  23.809  0.00  0.00    +0.000 OA
ATOM     10  O   UNL     1      -3.475  11.806  24.014  0.00  0.00    +0.000 OA
ENDROOT
BRANCH   5  11
ATOM     11  C   UNL     1       0.200   9.984  19.885  0.00  0.00    +0.000 A 
ATOM     12  C   UNL     1       0.838   8.995  20.643  0.00  0.00    +0.000 A 
ATOM     13  C   UNL     1       1.745   8.121  20.047  0.00  0.00    +0.000 A 
ATOM     14  C   UNL     1       2.020   8.182  18.673  0.00  0.00    +0.000 A 
ATOM     15  C   UNL     1       1.367   9.170  17.919  0.00  0.00    +0.000 A 
ATOM     16  C   UNL     1       0.476  10.062  18.517  0.00  0.00    +0.000 A 
BRANCH  14  17
ATOM     17  C   UNL     1       2.950   7.231  18.047  0.00  0.00    +0.000 A 
ATOM     18  C   UNL     1       2.747   5.854  18.095  0.00  0.00    +0.000 A 
ATOM     19  C   UNL     1       3.652   4.979  17.493  0.00  0.00    +0.000 A 
ATOM     20  C   UNL     1       4.767   5.465  16.819  0.00  0.00    +0.000 A 
ATOM     21  N   UNL     1       5.696   4.647  16.214  0.00  0.00    +0.000 N 
ATOM     22  C   UNL     1       6.805   5.257  15.490  0.00  0.00    +0.000 C 
ATOM     23  C   UNL     1       5.595   3.202  16.118  0.00  0.00    +0.000 C 
ATOM     24  N   UNL     1       4.969   6.797  16.767  0.00  0.00    +0.000 NA
ATOM     25  C   UNL     1       4.089   7.633  17.368  0.00  0.00    +0.000 A 
ENDBRANCH  14  17
ENDBRANCH   5  11
BRANCH   1  26
ATOM     26  C   UNL     1      -5.395  13.311  22.503  0.00  0.00    +0.000 C 
BRANCH  26  28
ATOM     27  C   UNL     1      -7.337  13.700  24.127  0.00  0.00    +0.000 C 
ATOM     28  C   UNL     1      -6.017  14.227  23.578  0.00  0.00    +0.000 C 
ENDBRANCH  26  28
BRANCH  26  29
ATOM     29  C   UNL     1      -6.246  13.344  21.228  0.00  0.00    +0.000 C 
ATOM     30  O   UNL     1      -6.660  14.377  20.714  0.00  0.00    +0.000 OA
BRANCH  29  31
ATOM     31  O   UNL     1      -6.483  12.141  20.665  0.00  0.00    +0.000 OA
ATOM     32  H   UNL     1      -7.041  11.527  21.204  0.00  0.00    +0.000 HD
ENDBRANCH  29  31
ENDBRANCH  26  29
ENDBRANCH   1  26
TORSDOF 6
ENDMDL
MODEL 7
REMARK VINA RESULT:      -7.6      2.074      2.818
REMARK  Name = 
REMARK  9 active torsions:
REMARK  status: ('A' for Active; 'I' for Inactive)
REMARK    1  A    between atoms: C_1  and  C_2
REMARK    2  A    between atoms: C_2  and  C_3
REMARK    3  A    between atoms: C_3  and  C_4
REMARK    4  A    between atoms: C_3  and  N_7
REMARK    5  A    between atoms: C_4  and  O_6
REMARK    6  A    between atoms: C_11  and  C_12
REMARK    7  A    between atoms: C_15  and  C_16
REMARK    8  A    between atoms: N_20  and  C_21
REMARK    9  A    between atoms: N_20  and  C_22
REMARK                            x       y       z     vdW  Elec       q    Type
REMARK                         _______ _______ _______ _____ _____    ______ ____
ROOT
ATOM      1  N   UNL     1       3.052   4.205  19.316  0.00  0.00    +0.000 NA
ATOM      2  C   UNL     1       3.104   5.562  18.613  0.00  0.00    +0.000 C 
ATOM      3  C   UNL     1       2.299   6.461  19.478  0.00  0.00    +0.000 A 
ATOM      4  S   UNL     1       2.151   8.122  19.419  0.00  0.00    +0.000 S 
ATOM      5  C   UNL     1       1.059   8.107  20.773  0.00  0.00    +0.000 A 
ATOM      6  C   UNL     1       0.858   6.820  21.259  0.00  0.00    +0.000 A 
ATOM      7  C   UNL     1       1.584   5.906  20.494  0.00  0.00    +0.000 A 
ATOM      8  S   UNL     1       1.801   4.223  20.499  0.00  0.00    +0.000 S 
ATOM      9  O   UNL     1       0.584   3.691  19.942  0.00  0.00    +0.000 OA
ATOM     10  O   UNL     1       2.348   3.872  21.792  0.00  0.00    +0.000 OA
ENDROOT
BRANCH   5  11
ATOM     11  C   UNL     1       0.511   9.369  21.269  0.00  0.00    +0.000 A 
ATOM     12  C   UNL     1       0.540  10.535  20.495  0.00  0.00    +0.000 A 
ATOM     13  C   UNL     1       0.019  11.728  20.991  0.00  0.00    +0.000 A 
ATOM     14  C   UNL     1      -0.577  11.791  22.259  0.00  0.00    +0.000 A 
ATOM     15  C   UNL     1      -0.611  10.614  23.024  0.00  0.00    +0.000 A 
ATOM     16  C   UNL     1      -0.069   9.423  22.540  0.00  0.00    +0.000 A 
BRANCH  14  17
ATOM     17  C   UNL     1      -1.158  13.045  22.760  0.00  0.00    +0.000 A 
ATOM     18  C   UNL     1      -0.455  14.247  22.740  0.00  0.00    +0.000 A 
ATOM     19  C   UNL     1      -1.034  15.419  23.228  0.00  0.00    +0.000 A 
ATOM     20  C   UNL     1      -2.332  15.414  23.729  0.00  0.00    +0.000 A 
ATOM     21  N   UNL     1      -2.949  16.540  24.229  0.00  0.00    +0.000 N 
ATOM     22  C   UNL     1      -4.330  16.439  24.686  0.00  0.00    +0.000 C 
ATOM     23  C   UNL     1      -2.380  17.875  24.220  0.00  0.00    +0.000 C 
ATOM     24  N   UNL     1      -3.019  14.254  23.748  0.00  0.00    +0.000 NA
ATOM     25  C   UNL     1      -2.437  13.122  23.286  0.00  0.00    +0.000 A 
ENDBRANCH  14  17
ENDBRANCH   5  11
BRANCH   1  26
ATOM     26  C   UNL     1       4.385   3.713  19.776  0.00  0.00    +0.000 C 
BRANCH  26  28
ATOM     27  C   UNL     1       3.500   1.724  18.426  0.00  0.00    +0.000 C 
ATOM     28  C   UNL     1       4.502   2.206  19.468  0.00  0.00    +0.000 C 
ENDBRANCH  26  28
BRANCH  26  29
ATOM     29  C   UNL     1       5.579   4.467  19.178  0.00  0.00    +0.000 C 
ATOM     30  O   UNL     1       6.036   5.501  19.652  0.00  0.00    +0.000 OA
BRANCH  29  31
ATOM     31  O   UNL     1       6.139   3.888  18.095  0.00  0.00    +0.000 OA
ATOM     32  H   UNL     1       6.880   4.397  17.681  0.00  0.00    +0.000 HD
ENDBRANCH  29  31
ENDBRANCH  26  29
ENDBRANCH   1  26
TORSDOF 6
ENDMDL
MODEL 8
REMARK VINA RESULT:      -7.5      5.168     11.373
REMARK  Name = 
REMARK  9 active torsions:
REMARK  status: ('A' for Active; 'I' for Inactive)
REMARK    1  A    between atoms: C_1  and  C_2
REMARK    2  A    between atoms: C_2  and  C_3
REMARK    3  A    between atoms: C_3  and  C_4
REMARK    4  A    between atoms: C_3  and  N_7
REMARK    5  A    between atoms: C_4  and  O_6
REMARK    6  A    between atoms: C_11  and  C_12
REMARK    7  A    between atoms: C_15  and  C_16
REMARK    8  A    between atoms: N_20  and  C_21
REMARK    9  A    between atoms: N_20  and  C_22
REMARK                            x       y       z     vdW  Elec       q    Type
REMARK                         _______ _______ _______ _____ _____    ______ ____
ROOT
ATOM      1  N   UNL     1      -3.111  13.907  22.933  0.00  0.00    +0.000 NA
ATOM      2  C   UNL     1      -2.526  12.633  23.543  0.00  0.00    +0.000 C 
ATOM      3  C   UNL     1      -1.794  11.986  22.425  0.00  0.00    +0.000 A 
ATOM      4  S   UNL     1      -0.737  10.696  22.467  0.00  0.00    +0.000 S 
ATOM      5  C   UNL     1      -0.506  10.784  20.745  0.00  0.00    +0.000 A 
ATOM      6  C   UNL     1      -1.230  11.829  20.181  0.00  0.00    +0.000 A 
ATOM      7  C   UNL     1      -1.953  12.494  21.173  0.00  0.00    +0.000 A 
ATOM      8  S   UNL     1      -3.025  13.809  21.216  0.00  0.00    +0.000 S 
ATOM      9  O   UNL     1      -4.262  13.296  20.687  0.00  0.00    +0.000 OA
ATOM     10  O   UNL     1      -2.309  14.954  20.698  0.00  0.00    +0.000 OA
ENDROOT
BRANCH   5  11
ATOM     11  C   UNL     1       0.394   9.836  20.090  0.00  0.00    +0.000 A 
ATOM     12  C   UNL     1       0.934   8.743  20.778  0.00  0.00    +0.000 A 
ATOM     13  C   UNL     1       1.796   7.857  20.136  0.00  0.00    +0.000 A 
ATOM     14  C   UNL     1       2.122   8.011  18.780  0.00  0.00    +0.000 A 
ATOM     15  C   UNL     1       1.567   9.104  18.096  0.00  0.00    +0.000 A 
ATOM     16  C   UNL     1       0.723  10.007  18.742  0.00  0.00    +0.000 A 
BRANCH  14  17
ATOM     17  C   UNL     1       3.002   7.050  18.101  0.00  0.00    +0.000 A 
ATOM     18  C   UNL     1       2.758   5.679  18.120  0.00  0.00    +0.000 A 
ATOM     19  C   UNL     1       3.617   4.793  17.468  0.00  0.00    +0.000 A 
ATOM     20  C   UNL     1       4.726   5.263  16.773  0.00  0.00    +0.000 A 
ATOM     21  N   UNL     1       5.610   4.433  16.118  0.00  0.00    +0.000 N 
ATOM     22  C   UNL     1       6.715   5.028  15.377  0.00  0.00    +0.000 C 
ATOM     23  C   UNL     1       5.462   2.995  15.989  0.00  0.00    +0.000 C 
ATOM     24  N   UNL     1       4.967   6.589  16.749  0.00  0.00    +0.000 NA
ATOM     25  C   UNL     1       4.133   7.435  17.399  0.00  0.00    +0.000 A 
ENDBRANCH  14  17
ENDBRANCH   5  11
BRANCH   1  26
ATOM     26  C   UNL     1      -2.588  15.164  23.547  0.00  0.00    +0.000 C 
BRANCH  26  28
ATOM     27  C   UNL     1      -3.474  17.098  24.973  0.00  0.00    +0.000 C 
ATOM     28  C   UNL     1      -3.532  15.602  24.686  0.00  0.00    +0.000 C 
ENDBRANCH  26  28
BRANCH  26  29
ATOM     29  C   UNL     1      -1.148  15.064  24.065  0.00  0.00    +0.000 C 
ATOM     30  O   UNL     1      -0.858  14.985  25.253  0.00  0.00    +0.000 OA
BRANCH  29  31
ATOM     31  O   UNL     1      -0.196  15.026  23.109  0.00  0.00    +0.000 OA
ATOM     32  H   UNL     1       0.366  14.211  23.108  0.00  0.00    +0.000 HD
ENDBRANCH  29  31
ENDBRANCH  26  29
ENDBRANCH   1  26
TORSDOF 6
ENDMDL
MODEL 9
REMARK VINA RESULT:      -7.5      1.182      1.575
REMARK  Name = 
REMARK  9 active torsions:
REMARK  status: ('A' for Active; 'I' for Inactive)
REMARK    1  A    between atoms: C_1  and  C_2
REMARK    2  A    between atoms: C_2  and  C_3
REMARK    3  A    between atoms: C_3  and  C_4
REMARK    4  A    between atoms: C_3  and  N_7
REMARK    5  A    between atoms: C_4  and  O_6
REMARK    6  A    between atoms: C_11  and  C_12
REMARK    7  A    between atoms: C_15  and  C_16
REMARK    8  A    between atoms: N_20  and  C_21
REMARK    9  A    between atoms: N_20  and  C_22
REMARK                            x       y       z     vdW  Elec       q    Type
REMARK                         _______ _______ _______ _____ _____    ______ ____
ROOT
ATOM      1  N   UNL     1       4.719   5.487  17.502  0.00  0.00    +0.000 NA
ATOM      2  C   UNL     1       4.145   6.765  16.889  0.00  0.00    +0.000 C 
ATOM      3  C   UNL     1       3.240   7.306  17.935  0.00  0.00    +0.000 A 
ATOM      4  S   UNL     1       2.490   8.795  18.008  0.00  0.00    +0.000 S 
ATOM      5  C   UNL     1       1.744   8.383  19.525  0.00  0.00    +0.000 A 
ATOM      6  C   UNL     1       2.117   7.114  19.955  0.00  0.00    +0.000 A 
ATOM      7  C   UNL     1       2.974   6.530  19.019  0.00  0.00    +0.000 A 
ATOM      8  S   UNL     1       3.784   5.046  18.880  0.00  0.00    +0.000 S 
ATOM      9  O   UNL     1       2.765   4.101  18.505  0.00  0.00    +0.000 OA
ATOM     10  O   UNL     1       4.647   4.925  20.035  0.00  0.00    +0.000 OA
ENDROOT
BRANCH   5  11
ATOM     11  C   UNL     1       0.875   9.355  20.187  0.00  0.00    +0.000 A 
ATOM     12  C   UNL     1       0.418   9.157  21.495  0.00  0.00    +0.000 A 
ATOM     13  C   UNL     1      -0.415  10.094  22.104  0.00  0.00    +0.000 A 
ATOM     14  C   UNL     1      -0.795  11.270  21.442  0.00  0.00    +0.000 A 
ATOM     15  C   UNL     1      -0.323  11.465  20.134  0.00  0.00    +0.000 A 
ATOM     16  C   UNL     1       0.493  10.518  19.512  0.00  0.00    +0.000 A 
BRANCH  14  17
ATOM     17  C   UNL     1      -1.644  12.270  22.104  0.00  0.00    +0.000 A 
ATOM     18  C   UNL     1      -2.990  12.427  21.785  0.00  0.00    +0.000 A 
ATOM     19  C   UNL     1      -3.768  13.389  22.430  0.00  0.00    +0.000 A 
ATOM     20  C   UNL     1      -3.218  14.201  23.417  0.00  0.00    +0.000 A 
ATOM     21  N   UNL     1      -3.937  15.171  24.080  0.00  0.00    +0.000 N 
ATOM     22  C   UNL     1      -3.280  15.936  25.133  0.00  0.00    +0.000 C 
ATOM     23  C   UNL     1      -5.358  15.415  23.912  0.00  0.00    +0.000 C 
ATOM     24  N   UNL     1      -1.915  14.052  23.732  0.00  0.00    +0.000 NA
ATOM     25  C   UNL     1      -1.170  13.124  23.087  0.00  0.00    +0.000 A 
ENDBRANCH  14  17
ENDBRANCH   5  11
BRANCH   1  26
ATOM     26  C   UNL     1       6.199   5.524  17.695  0.00  0.00    +0.000 C 
BRANCH  26  28
ATOM     27  C   UNL     1       5.993   3.716  15.892  0.00  0.00    +0.000 C 
ATOM     28  C   UNL     1       6.827   4.276  17.039  0.00  0.00    +0.000 C 
ENDBRANCH  26  28
BRANCH  26  29
ATOM     29  C   UNL     1       6.875   6.794  17.167  0.00  0.00    +0.000 C 
ATOM     30  O   UNL     1       6.806   7.883  17.725  0.00  0.00    +0.000 OA
BRANCH  29  31
ATOM     31  O   UNL     1       7.606   6.630  16.044  0.00  0.00    +0.000 OA
ATOM     32  H   UNL     1       7.327   5.877  15.466  0.00  0.00    +0.000 HD
ENDBRANCH  29  31
ENDBRANCH  26  29
ENDBRANCH   1  26
TORSDOF 6
ENDMDL
