MODEL 1
REMARK VINA RESULT:      -7.8      0.000      0.000
REMARK  Name = 
REMARK  13 active torsions:
REMARK  status: ('A' for Active; 'I' for Inactive)
REMARK    1  A    between atoms: C_1  and  C_2
REMARK    2  A    between atoms: C_2  and  C_3
REMARK    3  A    between atoms: C_2  and  N_4
REMARK    4  A    between atoms: N_4  and  C_5
REMARK    5  A    between atoms: C_7  and  N_8
REMARK    6  A    between atoms: N_8  and  C_9
REMARK    7  A    between atoms: C_19  and  C_20
REMARK    8  A    between atoms: N_22  and  C_23
REMARK    9  A    between atoms: C_23  and  C_24
REMARK   10  A    between atoms: C_24  and  C_26
REMARK   11  A    between atoms: C_26  and  C_27
REMARK   12  A    between atoms: C_26  and  C_28
REMARK   13  A    between atoms: C_26  and  O_29
REMARK                            x       y       z     vdW  Elec       q    Type
REMARK                         _______ _______ _______ _____ _____    ______ ____
ROOT
ATOM      1  C   UNL     1       2.374   6.553  19.891  0.00  0.00    +0.000 A 
ATOM      2  C   UNL     1       1.665   7.512  20.613  0.00  0.00    +0.000 A 
ATOM      3  C   UNL     1       1.189   8.701  20.049  0.00  0.00    +0.000 A 
ATOM      4  N   UNL     1       1.470   9.015  18.774  0.00  0.00    +0.000 NA
ATOM      5  C   UNL     1       2.205   8.112  18.068  0.00  0.00    +0.000 A 
ATOM      6  C   UNL     1       2.650   6.881  18.556  0.00  0.00    +0.000 A 
ENDROOT
BRANCH   6   7
ATOM      7  C   UNL     1       3.430   6.033  17.631  0.00  0.00    +0.000 C 
ATOM      8  O   UNL     1       3.130   4.854  17.468  0.00  0.00    +0.000 OA
ATOM      9  N   UNL     1       4.483   6.629  16.974  0.00  0.00    +0.000 N 
ATOM     10  H   UNL     1       4.690   7.603  17.183  0.00  0.00    +0.000 HD
BRANCH   9  11
ATOM     11  C   UNL     1       5.270   5.928  15.976  0.00  0.00    +0.000 C 
BRANCH  11  12
ATOM     12  C   UNL     1       6.027   4.722  16.552  0.00  0.00    +0.000 C 
ATOM     13  F   UNL     1       6.710   4.127  15.516  0.00  0.00    +0.000 F 
BRANCH  12  14
ATOM     14  C   UNL     1       7.065   5.074  17.646  0.00  0.00    +0.000 C 
ATOM     15  C   UNL     1       7.620   6.493  17.490  0.00  0.00    +0.000 C 
ATOM     16  C   UNL     1       6.503   4.878  19.054  0.00  0.00    +0.000 C 
BRANCH  14  17
ATOM     17  O   UNL     1       8.179   4.172  17.527  0.00  0.00    +0.000 OA
ATOM     18  H   UNL     1       8.614   4.367  16.675  0.00  0.00    +0.000 HD
ENDBRANCH  14  17
ENDBRANCH  12  14
ENDBRANCH  11  12
ENDBRANCH   9  11
ENDBRANCH   6   7
BRANCH   1  19
ATOM     19  N   UNL     1       2.680   5.297  20.449  0.00  0.00    +0.000 N 
ATOM     20  H   UNL     1       3.491   5.338  21.070  0.00  0.00    +0.000 HD
BRANCH  19  22
ATOM     21  C   UNL     1       0.930   3.748  19.740  0.00  0.00    +0.000 C 
ATOM     22  C   UNL     1       1.628   4.388  20.935  0.00  0.00    +0.000 C 
ATOM     23  C   UNL     1       2.231   3.318  21.844  0.00  0.00    +0.000 C 
ENDBRANCH  19  22
ENDBRANCH   1  19
BRANCH   3  24
ATOM     24  N   UNL     1       0.446   9.612  20.809  0.00  0.00    +0.000 N 
ATOM     25  H   UNL     1       0.418   9.354  21.786  0.00  0.00    +0.000 HD
BRANCH  24  26
ATOM     26  C   UNL     1       0.227  10.980  20.537  0.00  0.00    +0.000 A 
ATOM     27  N   UNL     1       1.067  11.915  21.055  0.00  0.00    +0.000 NA
ATOM     28  C   UNL     1       0.967  13.195  20.630  0.00  0.00    +0.000 A 
ATOM     29  C   UNL     1       0.035  13.618  19.705  0.00  0.00    +0.000 A 
ATOM     30 CL   UNL     1       0.009  15.248  19.175  0.00  0.00    +0.000 Cl
ATOM     31  C   UNL     1      -0.861  12.684  19.204  0.00  0.00    +0.000 A 
ATOM     32  C   UNL     1      -0.762  11.359  19.624  0.00  0.00    +0.000 A 
ATOM     33  F   UNL     1      -1.598  10.447  19.106  0.00  0.00    +0.000 F 
ENDBRANCH  24  26
ENDBRANCH   3  24
TORSDOF 9
ENDMDL
MODEL 2
REMARK VINA RESULT:      -7.8      1.222      1.433
REMARK  Name = 
REMARK  13 active torsions:
REMARK  status: ('A' for Active; 'I' for Inactive)
REMARK    1  A    between atoms: C_1  and  C_2
REMARK    2  A    between atoms: C_2  and  C_3
REMARK    3  A    between atoms: C_2  and  N_4
REMARK    4  A    between atoms: N_4  and  C_5
REMARK    5  A    between atoms: C_7  and  N_8
REMARK    6  A    between atoms: N_8  and  C_9
REMARK    7  A    between atoms: C_19  and  C_20
REMARK    8  A    between atoms: N_22  and  C_23
REMARK    9  A    between atoms: C_23  and  C_24
REMARK   10  A    between atoms: C_24  and  C_26
REMARK   11  A    between atoms: C_26  and  C_27
REMARK   12  A    between atoms: C_26  and  C_28
REMARK   13  A    between atoms: C_26  and  O_29
REMARK                            x       y       z     vdW  Elec       q    Type
REMARK                         _______ _______ _______ _____ _____    ______ ____
ROOT
ATOM      1  C   UNL     1       2.214   6.294  20.646  0.00  0.00    +0.000 A 
ATOM      2  C   UNL     1       1.296   7.233  21.113  0.00  0.00    +0.000 A 
ATOM      3  C   UNL     1       0.936   8.378  20.394  0.00  0.00    +0.000 A 
ATOM      4  N   UNL     1       1.534   8.671  19.229  0.00  0.00    +0.000 NA
ATOM      5  C   UNL     1       2.471   7.790  18.782  0.00  0.00    +0.000 A 
ATOM      6  C   UNL     1       2.824   6.599  19.421  0.00  0.00    +0.000 A 
ENDROOT
BRANCH   6   7
ATOM      7  C   UNL     1       3.860   5.768  18.773  0.00  0.00    +0.000 C 
ATOM      8  O   UNL     1       4.856   5.419  19.398  0.00  0.00    +0.000 OA
ATOM      9  N   UNL     1       3.644   5.413  17.460  0.00  0.00    +0.000 N 
ATOM     10  H   UNL     1       2.809   5.765  16.997  0.00  0.00    +0.000 HD
BRANCH   9  11
ATOM     11  C   UNL     1       4.541   4.529  16.739  0.00  0.00    +0.000 C 
BRANCH  11  12
ATOM     12  C   UNL     1       5.438   5.274  15.740  0.00  0.00    +0.000 C 
ATOM     13  F   UNL     1       4.834   6.477  15.456  0.00  0.00    +0.000 F 
BRANCH  12  14
ATOM     14  C   UNL     1       6.864   5.585  16.259  0.00  0.00    +0.000 C 
ATOM     15  C   UNL     1       6.934   6.916  17.012  0.00  0.00    +0.000 C 
ATOM     16  C   UNL     1       7.416   4.455  17.130  0.00  0.00    +0.000 C 
BRANCH  14  17
ATOM     17  O   UNL     1       7.748   5.694  15.130  0.00  0.00    +0.000 OA
ATOM     18  H   UNL     1       7.380   5.131  14.424  0.00  0.00    +0.000 HD
ENDBRANCH  14  17
ENDBRANCH  12  14
ENDBRANCH  11  12
ENDBRANCH   9  11
ENDBRANCH   6   7
BRANCH   1  19
ATOM     19  N   UNL     1       2.415   5.072  21.317  0.00  0.00    +0.000 N 
ATOM     20  H   UNL     1       2.174   5.131  22.309  0.00  0.00    +0.000 HD
BRANCH  19  22
ATOM     21  C   UNL     1       1.940   2.726  21.804  0.00  0.00    +0.000 C 
ATOM     22  C   UNL     1       2.040   3.783  20.709  0.00  0.00    +0.000 C 
ATOM     23  C   UNL     1       0.712   3.916  19.965  0.00  0.00    +0.000 C 
ENDBRANCH  19  22
ENDBRANCH   1  19
BRANCH   3  24
ATOM     24  N   UNL     1      -0.024   9.269  20.891  0.00  0.00    +0.000 N 
ATOM     25  H   UNL     1      -0.402   8.960  21.776  0.00  0.00    +0.000 HD
BRANCH  24  26
ATOM     26  C   UNL     1      -0.120  10.654  20.639  0.00  0.00    +0.000 A 
ATOM     27  N   UNL     1       0.671  11.523  21.322  0.00  0.00    +0.000 NA
ATOM     28  C   UNL     1       0.713  12.818  20.935  0.00  0.00    +0.000 A 
ATOM     29  C   UNL     1      -0.031  13.322  19.888  0.00  0.00    +0.000 A 
ATOM     30 CL   UNL     1       0.119  14.965  19.423  0.00  0.00    +0.000 Cl
ATOM     31  C   UNL     1      -0.881  12.458  19.212  0.00  0.00    +0.000 A 
ATOM     32  C   UNL     1      -0.924  11.117  19.592  0.00  0.00    +0.000 A 
ATOM     33  F   UNL     1      -1.711  10.272  18.910  0.00  0.00    +0.000 F 
ENDBRANCH  24  26
ENDBRANCH   3  24
TORSDOF 9
ENDMDL
MODEL 3
REMARK VINA RESULT:      -7.8      3.824      8.451
REMARK  Name = 
REMARK  13 active torsions:
REMARK  status: ('A' for Active; 'I' for Inactive)
REMARK    1  A    between atoms: C_1  and  C_2
REMARK    2  A    between atoms: C_2  and  C_3
REMARK    3  A    between atoms: C_2  and  N_4
REMARK    4  A    between atoms: N_4  and  C_5
REMARK    5  A    between atoms: C_7  and  N_8
REMARK    6  A    between atoms: N_8  and  C_9
REMARK    7  A    between atoms: C_19  and  C_20
REMARK    8  A    between atoms: N_22  and  C_23
REMARK    9  A    between atoms: C_23  and  C_24
REMARK   10  A    between atoms: C_24  and  C_26
REMARK   11  A    between atoms: C_26  and  C_27
REMARK   12  A    between atoms: C_26  and  C_28
REMARK   13  A    between atoms: C_26  and  O_29
REMARK                            x       y       z     vdW  Elec       q    Type
REMARK                         _______ _______ _______ _____ _____    ______ ____
ROOT
ATOM      1  C   UNL     1       3.307   5.891  19.499  0.00  0.00    +0.000 A 
ATOM      2  C   UNL     1       4.367   5.326  18.794  0.00  0.00    +0.000 A 
ATOM      3  C   UNL     1       5.064   5.999  17.785  0.00  0.00    +0.000 A 
ATOM      4  N   UNL     1       4.681   7.223  17.387  0.00  0.00    +0.000 NA
ATOM      5  C   UNL     1       3.614   7.771  18.032  0.00  0.00    +0.000 A 
ATOM      6  C   UNL     1       2.922   7.176  19.089  0.00  0.00    +0.000 A 
ENDROOT
BRANCH   6   7
ATOM      7  C   UNL     1       1.793   7.935  19.666  0.00  0.00    +0.000 C 
ATOM      8  O   UNL     1       1.320   7.615  20.751  0.00  0.00    +0.000 OA
ATOM      9  N   UNL     1       1.318   9.000  18.934  0.00  0.00    +0.000 N 
ATOM     10  H   UNL     1       1.740   9.187  18.027  0.00  0.00    +0.000 HD
BRANCH   9  11
ATOM     11  C   UNL     1       0.272   9.876  19.430  0.00  0.00    +0.000 C 
BRANCH  11  12
ATOM     12  C   UNL     1      -0.587  10.477  18.307  0.00  0.00    +0.000 C 
ATOM     13  F   UNL     1      -1.788   9.806  18.299  0.00  0.00    +0.000 F 
BRANCH  12  14
ATOM     14  C   UNL     1      -0.901  11.984  18.472  0.00  0.00    +0.000 C 
ATOM     15  C   UNL     1      -1.951  12.247  19.556  0.00  0.00    +0.000 C 
ATOM     16  C   UNL     1       0.358  12.806  18.745  0.00  0.00    +0.000 C 
BRANCH  14  17
ATOM     17  O   UNL     1      -1.445  12.476  17.234  0.00  0.00    +0.000 OA
ATOM     18  H   UNL     1      -2.389  12.231  17.220  0.00  0.00    +0.000 HD
ENDBRANCH  14  17
ENDBRANCH  12  14
ENDBRANCH  11  12
ENDBRANCH   9  11
ENDBRANCH   6   7
BRANCH   1  19
ATOM     19  N   UNL     1       2.749   5.248  20.622  0.00  0.00    +0.000 N 
ATOM     20  H   UNL     1       2.174   5.880  21.182  0.00  0.00    +0.000 HD
BRANCH  19  22
ATOM     21  C   UNL     1       2.261   3.235  21.916  0.00  0.00    +0.000 C 
ATOM     22  C   UNL     1       2.195   3.886  20.538  0.00  0.00    +0.000 C 
ATOM     23  C   UNL     1       0.755   3.930  20.030  0.00  0.00    +0.000 C 
ENDBRANCH  19  22
ENDBRANCH   1  19
BRANCH   3  24
ATOM     24  N   UNL     1       6.150   5.399  17.135  0.00  0.00    +0.000 N 
ATOM     25  H   UNL     1       6.692   4.822  17.763  0.00  0.00    +0.000 HD
BRANCH  24  26
ATOM     26  C   UNL     1       6.258   5.074  15.766  0.00  0.00    +0.000 A 
ATOM     27  N   UNL     1       7.352   5.469  15.061  0.00  0.00    +0.000 NA
ATOM     28  C   UNL     1       7.537   4.987  13.811  0.00  0.00    +0.000 A 
ATOM     29  C   UNL     1       6.657   4.124  13.192  0.00  0.00    +0.000 A 
ATOM     30 CL   UNL     1       6.992   3.513  11.625  0.00  0.00    +0.000 Cl
ATOM     31  C   UNL     1       5.511   3.751  13.880  0.00  0.00    +0.000 A 
ATOM     32  C   UNL     1       5.314   4.230  15.174  0.00  0.00    +0.000 A 
ATOM     33  F   UNL     1       4.230   3.834  15.857  0.00  0.00    +0.000 F 
ENDBRANCH  24  26
ENDBRANCH   3  24
TORSDOF 9
ENDMDL
MODEL 4
REMARK VINA RESULT:      -7.8      1.559      1.923
REMARK  Name = 
REMARK  13 active torsions:
REMARK  status: ('A' for Active; 'I' for Inactive)
REMARK    1  A    between atoms: C_1  and  C_2
REMARK    2  A    between atoms: C_2  and  C_3
REMARK    3  A    between atoms: C_2  and  N_4
REMARK    4  A    between atoms: N_4  and  C_5
REMARK    5  A    between atoms: C_7  and  N_8
REMARK    6  A    between atoms: N_8  and  C_9
REMARK    7  A    between atoms: C_19  and  C_20
REMARK    8  A    between atoms: N_22  and  C_23
REMARK    9  A    between atoms: C_23  and  C_24
REMARK   10  A    between atoms: C_24  and  C_26
REMARK   11  A    between atoms: C_26  and  C_27
REMARK   12  A    between atoms: C_26  and  C_28
REMARK   13  A    between atoms: C_26  and  O_29
REMARK                            x       y       z     vdW  Elec       q    Type
REMARK                         _______ _______ _______ _____ _____    ______ ____
ROOT
ATOM      1  C   UNL     1       2.261   6.565  20.237  0.00  0.00    +0.000 A 
ATOM      2  C   UNL     1       1.504   7.364  21.092  0.00  0.00    +0.000 A 
ATOM      3  C   UNL     1       0.930   8.578  20.700  0.00  0.00    +0.000 A 
ATOM      4  N   UNL     1       1.154   9.079  19.475  0.00  0.00    +0.000 NA
ATOM      5  C   UNL     1       1.934   8.335  18.642  0.00  0.00    +0.000 A 
ATOM      6  C   UNL     1       2.479   7.087  18.953  0.00  0.00    +0.000 A 
ENDROOT
BRANCH   6   7
ATOM      7  C   UNL     1       3.294   6.429  17.911  0.00  0.00    +0.000 C 
ATOM      8  O   UNL     1       3.065   5.269  17.584  0.00  0.00    +0.000 OA
ATOM      9  N   UNL     1       4.297   7.178  17.337  0.00  0.00    +0.000 N 
ATOM     10  H   UNL     1       4.447   8.124  17.681  0.00  0.00    +0.000 HD
BRANCH   9  11
ATOM     11  C   UNL     1       5.109   6.677  16.243  0.00  0.00    +0.000 C 
BRANCH  11  12
ATOM     12  C   UNL     1       6.439   6.073  16.716  0.00  0.00    +0.000 C 
ATOM     13  F   UNL     1       6.353   5.891  18.077  0.00  0.00    +0.000 F 
BRANCH  12  14
ATOM     14  C   UNL     1       6.783   4.699  16.088  0.00  0.00    +0.000 C 
ATOM     15  C   UNL     1       5.641   3.689  16.233  0.00  0.00    +0.000 C 
ATOM     16  C   UNL     1       7.194   4.826  14.621  0.00  0.00    +0.000 C 
BRANCH  14  17
ATOM     17  O   UNL     1       7.918   4.151  16.781  0.00  0.00    +0.000 OA
ATOM     18  H   UNL     1       8.171   3.333  16.312  0.00  0.00    +0.000 HD
ENDBRANCH  14  17
ENDBRANCH  12  14
ENDBRANCH  11  12
ENDBRANCH   9  11
ENDBRANCH   6   7
BRANCH   1  19
ATOM     19  N   UNL     1       2.671   5.272  20.616  0.00  0.00    +0.000 N 
ATOM     20  H   UNL     1       3.515   5.289  21.192  0.00  0.00    +0.000 HD
BRANCH  19  22
ATOM     21  C   UNL     1       0.840   3.849  19.849  0.00  0.00    +0.000 C 
ATOM     22  C   UNL     1       1.703   4.246  21.042  0.00  0.00    +0.000 C 
ATOM     23  C   UNL     1       2.435   3.030  21.607  0.00  0.00    +0.000 C 
ENDBRANCH  19  22
ENDBRANCH   1  19
BRANCH   3  24
ATOM     24  N   UNL     1       0.142   9.322  21.587  0.00  0.00    +0.000 N 
ATOM     25  H   UNL     1      -0.140   8.776  22.389  0.00  0.00    +0.000 HD
BRANCH  24  26
ATOM     26  C   UNL     1       0.153  10.721  21.778  0.00  0.00    +0.000 A 
ATOM     27  N   UNL     1       0.968  11.501  21.020  0.00  0.00    +0.000 NA
ATOM     28  C   UNL     1       0.827  12.845  21.073  0.00  0.00    +0.000 A 
ATOM     29  C   UNL     1      -0.093  13.481  21.880  0.00  0.00    +0.000 A 
ATOM     30 CL   UNL     1      -0.249  15.188  21.848  0.00  0.00    +0.000 Cl
ATOM     31  C   UNL     1      -0.899  12.700  22.696  0.00  0.00    +0.000 A 
ATOM     32  C   UNL     1      -0.773  11.313  22.643  0.00  0.00    +0.000 A 
ATOM     33  F   UNL     1      -1.583  10.556  23.398  0.00  0.00    +0.000 F 
ENDBRANCH  24  26
ENDBRANCH   3  24
TORSDOF 9
ENDMDL
MODEL 5
REMARK VINA RESULT:      -7.7      1.193      1.660
REMARK  Name = 
REMARK  13 active torsions:
REMARK  status: ('A' for Active; 'I' for Inactive)
REMARK    1  A    between atoms: C_1  and  C_2
REMARK    2  A    between atoms: C_2  and  C_3
REMARK    3  A    between atoms: C_2  and  N_4
REMARK    4  A    between atoms: N_4  and  C_5
REMARK    5  A    between atoms: C_7  and  N_8
REMARK    6  A    between atoms: N_8  and  C_9
REMARK    7  A    between atoms: C_19  and  C_20
REMARK    8  A    between atoms: N_22  and  C_23
REMARK    9  A    between atoms: C_23  and  C_24
REMARK   10  A    between atoms: C_24  and  C_26
REMARK   11  A    between atoms: C_26  and  C_27
REMARK   12  A    between atoms: C_26  and  C_28
REMARK   13  A    between atoms: C_26  and  O_29
REMARK                            x       y       z     vdW  Elec       q    Type
REMARK                         _______ _______ _______ _____ _____    ______ ____
ROOT
ATOM      1  C   UNL     1       2.277   5.872  20.341  0.00  0.00    +0.000 A 
ATOM      2  C   UNL     1       1.555   6.907  20.934  0.00  0.00    +0.000 A 
ATOM      3  C   UNL     1       1.331   8.140  20.312  0.00  0.00    +0.000 A 
ATOM      4  N   UNL     1       1.882   8.417  19.119  0.00  0.00    +0.000 NA
ATOM      5  C   UNL     1       2.632   7.434  18.548  0.00  0.00    +0.000 A 
ATOM      6  C   UNL     1       2.837   6.162  19.089  0.00  0.00    +0.000 A 
ENDROOT
BRANCH   6   7
ATOM      7  C   UNL     1       3.678   5.228  18.313  0.00  0.00    +0.000 C 
ATOM      8  O   UNL     1       3.207   4.610  17.364  0.00  0.00    +0.000 OA
ATOM      9  N   UNL     1       4.992   5.099  18.704  0.00  0.00    +0.000 N 
ATOM     10  H   UNL     1       5.305   5.621  19.520  0.00  0.00    +0.000 HD
BRANCH   9  11
ATOM     11  C   UNL     1       5.942   4.282  17.971  0.00  0.00    +0.000 C 
BRANCH  11  12
ATOM     12  C   UNL     1       6.743   5.082  16.934  0.00  0.00    +0.000 C 
ATOM     13  F   UNL     1       7.956   4.453  16.770  0.00  0.00    +0.000 F 
BRANCH  12  14
ATOM     14  C   UNL     1       6.079   5.176  15.538  0.00  0.00    +0.000 C 
ATOM     15  C   UNL     1       5.334   6.498  15.333  0.00  0.00    +0.000 C 
ATOM     16  C   UNL     1       7.086   4.955  14.408  0.00  0.00    +0.000 C 
BRANCH  14  17
ATOM     17  O   UNL     1       5.106   4.123  15.423  0.00  0.00    +0.000 OA
ATOM     18  H   UNL     1       5.441   3.366  15.940  0.00  0.00    +0.000 HD
ENDBRANCH  14  17
ENDBRANCH  12  14
ENDBRANCH  11  12
ENDBRANCH   9  11
ENDBRANCH   6   7
BRANCH   1  19
ATOM     19  N   UNL     1       2.330   4.591  20.924  0.00  0.00    +0.000 N 
ATOM     20  H   UNL     1       2.848   4.589  21.805  0.00  0.00    +0.000 HD
BRANCH  19  22
ATOM     21  C   UNL     1       0.867   3.226  19.523  0.00  0.00    +0.000 C 
ATOM     22  C   UNL     1       1.157   3.700  20.944  0.00  0.00    +0.000 C 
ATOM     23  C   UNL     1       1.410   2.510  21.868  0.00  0.00    +0.000 C 
ENDBRANCH  19  22
ENDBRANCH   1  19
BRANCH   3  24
ATOM     24  N   UNL     1       0.563   9.132  20.935  0.00  0.00    +0.000 N 
ATOM     25  H   UNL     1       0.458   8.961  21.925  0.00  0.00    +0.000 HD
BRANCH  24  26
ATOM     26  C   UNL     1       0.406  10.475  20.530  0.00  0.00    +0.000 A 
ATOM     27  N   UNL     1       1.232  11.433  21.029  0.00  0.00    +0.000 NA
ATOM     28  C   UNL     1       1.202  12.673  20.490  0.00  0.00    +0.000 A 
ATOM     29  C   UNL     1       0.354  13.034  19.464  0.00  0.00    +0.000 A 
ATOM     30 CL   UNL     1       0.415  14.612  18.796  0.00  0.00    +0.000 Cl
ATOM     31  C   UNL     1      -0.530  12.081  18.977  0.00  0.00    +0.000 A 
ATOM     32  C   UNL     1      -0.501  10.796  19.516  0.00  0.00    +0.000 A 
ATOM     33  F   UNL     1      -1.323   9.861  19.015  0.00  0.00    +0.000 F 
ENDBRANCH  24  26
ENDBRANCH   3  24
TORSDOF 9
ENDMDL
MODEL 6
REMARK VINA RESULT:      -7.7      2.098      2.713
REMARK  Name = 
REMARK  13 active torsions:
REMARK  status: ('A' for Active; 'I' for Inactive)
REMARK    1  A    between atoms: C_1  and  C_2
REMARK    2  A    between atoms: C_2  and  C_3
REMARK    3  A    between atoms: C_2  and  N_4
REMARK    4  A    between atoms: N_4  and  C_5
REMARK    5  A    between atoms: C_7  and  N_8
REMARK    6  A    between atoms: N_8  and  C_9
REMARK    7  A    between atoms: C_19  and  C_20
REMARK    8  A    between atoms: N_22  and  C_23
REMARK    9  A    between atoms: C_23  and  C_24
REMARK   10  A    between atoms: C_24  and  C_26
REMARK   11  A    between atoms: C_26  and  C_27
REMARK   12  A    between atoms: C_26  and  C_28
REMARK   13  A    between atoms: C_26  and  O_29
REMARK                            x       y       z     vdW  Elec       q    Type
REMARK                         _______ _______ _______ _____ _____    ______ ____
ROOT
ATOM      1  C   UNL     1       2.389   6.679  20.088  0.00  0.00    +0.000 A 
ATOM      2  C   UNL     1       1.602   7.817  20.258  0.00  0.00    +0.000 A 
ATOM      3  C   UNL     1       1.490   8.824  19.293  0.00  0.00    +0.000 A 
ATOM      4  N   UNL     1       2.215   8.776  18.165  0.00  0.00    +0.000 NA
ATOM      5  C   UNL     1       3.028   7.695  18.004  0.00  0.00    +0.000 A 
ATOM      6  C   UNL     1       3.133   6.628  18.900  0.00  0.00    +0.000 A 
ENDROOT
BRANCH   6   7
ATOM      7  C   UNL     1       4.067   5.540  18.544  0.00  0.00    +0.000 C 
ATOM      8  O   UNL     1       5.003   5.259  19.285  0.00  0.00    +0.000 OA
ATOM      9  N   UNL     1       3.827   4.872  17.364  0.00  0.00    +0.000 N 
ATOM     10  H   UNL     1       3.048   5.181  16.787  0.00  0.00    +0.000 HD
BRANCH   9  11
ATOM     11  C   UNL     1       4.618   3.728  16.947  0.00  0.00    +0.000 C 
BRANCH  11  12
ATOM     12  C   UNL     1       5.389   3.981  15.642  0.00  0.00    +0.000 C 
ATOM     13  F   UNL     1       4.513   4.548  14.745  0.00  0.00    +0.000 F 
BRANCH  12  14
ATOM     14  C   UNL     1       6.595   4.943  15.782  0.00  0.00    +0.000 C 
ATOM     15  C   UNL     1       7.467   4.613  16.996  0.00  0.00    +0.000 C 
ATOM     16  C   UNL     1       7.447   4.981  14.513  0.00  0.00    +0.000 C 
BRANCH  14  17
ATOM     17  O   UNL     1       6.095   6.278  15.974  0.00  0.00    +0.000 OA
ATOM     18  H   UNL     1       5.144   6.200  16.180  0.00  0.00    +0.000 HD
ENDBRANCH  14  17
ENDBRANCH  12  14
ENDBRANCH  11  12
ENDBRANCH   9  11
ENDBRANCH   6   7
BRANCH   1  19
ATOM     19  N   UNL     1       2.337   5.610  21.004  0.00  0.00    +0.000 N 
ATOM     20  H   UNL     1       1.824   5.855  21.853  0.00  0.00    +0.000 HD
BRANCH  19  22
ATOM     21  C   UNL     1       2.301   3.284  21.748  0.00  0.00    +0.000 C 
ATOM     22  C   UNL     1       2.097   4.225  20.565  0.00  0.00    +0.000 C 
ATOM     23  C   UNL     1       0.684   4.084  20.001  0.00  0.00    +0.000 C 
ENDBRANCH  19  22
ENDBRANCH   1  19
BRANCH   3  24
ATOM     24  N   UNL     1       0.652   9.927  19.497  0.00  0.00    +0.000 N 
ATOM     25  H   UNL     1       1.116  10.663  20.012  0.00  0.00    +0.000 HD
BRANCH  24  26
ATOM     26  C   UNL     1      -0.434  10.340  18.695  0.00  0.00    +0.000 A 
ATOM     27  N   UNL     1      -0.794   9.602  17.612  0.00  0.00    +0.000 NA
ATOM     28  C   UNL     1      -1.948   9.894  16.971  0.00  0.00    +0.000 A 
ATOM     29  C   UNL     1      -2.783  10.928  17.344  0.00  0.00    +0.000 A 
ATOM     30 CL   UNL     1      -4.258  11.200  16.515  0.00  0.00    +0.000 Cl
ATOM     31  C   UNL     1      -2.404  11.721  18.418  0.00  0.00    +0.000 A 
ATOM     32  C   UNL     1      -1.223  11.423  19.095  0.00  0.00    +0.000 A 
ATOM     33  F   UNL     1      -0.880  12.161  20.161  0.00  0.00    +0.000 F 
ENDBRANCH  24  26
ENDBRANCH   3  24
TORSDOF 9
ENDMDL
MODEL 7
REMARK VINA RESULT:      -7.6      3.638      8.352
REMARK  Name = 
REMARK  13 active torsions:
REMARK  status: ('A' for Active; 'I' for Inactive)
REMARK    1  A    between atoms: C_1  and  C_2
REMARK    2  A    between atoms: C_2  and  C_3
REMARK    3  A    between atoms: C_2  and  N_4
REMARK    4  A    between atoms: N_4  and  C_5
REMARK    5  A    between atoms: C_7  and  N_8
REMARK    6  A    between atoms: N_8  and  C_9
REMARK    7  A    between atoms: C_19  and  C_20
REMARK    8  A    between atoms: N_22  and  C_23
REMARK    9  A    between atoms: C_23  and  C_24
REMARK   10  A    between atoms: C_24  and  C_26
REMARK   11  A    between atoms: C_26  and  C_27
REMARK   12  A    between atoms: C_26  and  C_28
REMARK   13  A    between atoms: C_26  and  O_29
REMARK                            x       y       z     vdW  Elec       q    Type
REMARK                         _______ _______ _______ _____ _____    ______ ____
ROOT
ATOM      1  C   UNL     1       2.888   5.356  19.873  0.00  0.00    +0.000 A 
ATOM      2  C   UNL     1       3.716   4.478  19.176  0.00  0.00    +0.000 A 
ATOM      3  C   UNL     1       4.429   4.842  18.029  0.00  0.00    +0.000 A 
ATOM      4  N   UNL     1       4.282   6.063  17.489  0.00  0.00    +0.000 NA
ATOM      5  C   UNL     1       3.437   6.918  18.130  0.00  0.00    +0.000 A 
ATOM      6  C   UNL     1       2.751   6.634  19.312  0.00  0.00    +0.000 A 
ENDROOT
BRANCH   6   7
ATOM      7  C   UNL     1       1.884   7.698  19.860  0.00  0.00    +0.000 C 
ATOM      8  O   UNL     1       1.505   7.651  21.026  0.00  0.00    +0.000 OA
ATOM      9  N   UNL     1       1.541   8.724  19.008  0.00  0.00    +0.000 N 
ATOM     10  H   UNL     1       1.868   8.679  18.046  0.00  0.00    +0.000 HD
BRANCH   9  11
ATOM     11  C   UNL     1       0.769   9.871  19.449  0.00  0.00    +0.000 C 
BRANCH  11  12
ATOM     12  C   UNL     1       0.004  10.551  18.304  0.00  0.00    +0.000 C 
ATOM     13  F   UNL     1      -1.108   9.787  18.035  0.00  0.00    +0.000 F 
BRANCH  12  14
ATOM     14  C   UNL     1      -0.488  11.986  18.619  0.00  0.00    +0.000 C 
ATOM     15  C   UNL     1      -1.461  12.023  19.801  0.00  0.00    +0.000 C 
ATOM     16  C   UNL     1       0.673  12.951  18.858  0.00  0.00    +0.000 C 
BRANCH  14  17
ATOM     17  O   UNL     1      -1.201  12.487  17.474  0.00  0.00    +0.000 OA
ATOM     18  H   UNL     1      -1.687  11.733  17.088  0.00  0.00    +0.000 HD
ENDBRANCH  14  17
ENDBRANCH  12  14
ENDBRANCH  11  12
ENDBRANCH   9  11
ENDBRANCH   6   7
BRANCH   1  19
ATOM     19  N   UNL     1       2.329   5.002  21.117  0.00  0.00    +0.000 N 
ATOM     20  H   UNL     1       2.022   5.819  21.648  0.00  0.00    +0.000 HD
BRANCH  19  22
ATOM     21  C   UNL     1       0.800   3.533  19.903  0.00  0.00    +0.000 C 
ATOM     22  C   UNL     1       1.425   3.848  21.259  0.00  0.00    +0.000 C 
ATOM     23  C   UNL     1       2.189   2.638  21.794  0.00  0.00    +0.000 C 
ENDBRANCH  19  22
ENDBRANCH   1  19
BRANCH   3  24
ATOM     24  N   UNL     1       5.281   3.932  17.390  0.00  0.00    +0.000 N 
ATOM     25  H   UNL     1       5.062   2.976  17.634  0.00  0.00    +0.000 HD
BRANCH  24  26
ATOM     26  C   UNL     1       5.956   4.106  16.163  0.00  0.00    +0.000 A 
ATOM     27  N   UNL     1       5.370   3.705  15.004  0.00  0.00    +0.000 NA
ATOM     28  C   UNL     1       5.935   4.053  13.826  0.00  0.00    +0.000 A 
ATOM     29  C   UNL     1       7.102   4.782  13.730  0.00  0.00    +0.000 A 
ATOM     30 CL   UNL     1       7.726   5.233  12.198  0.00  0.00    +0.000 Cl
ATOM     31  C   UNL     1       7.739   5.157  14.904  0.00  0.00    +0.000 A 
ATOM     32  C   UNL     1       7.161   4.815  16.126  0.00  0.00    +0.000 A 
ATOM     33  F   UNL     1       7.752   5.216  17.261  0.00  0.00    +0.000 F 
ENDBRANCH  24  26
ENDBRANCH   3  24
TORSDOF 9
ENDMDL
MODEL 8
REMARK VINA RESULT:      -7.5      1.807      2.320
REMARK  Name = 
REMARK  13 active torsions:
REMARK  status: ('A' for Active; 'I' for Inactive)
REMARK    1  A    between atoms: C_1  and  C_2
REMARK    2  A    between atoms: C_2  and  C_3
REMARK    3  A    between atoms: C_2  and  N_4
REMARK    4  A    between atoms: N_4  and  C_5
REMARK    5  A    between atoms: C_7  and  N_8
REMARK    6  A    between atoms: N_8  and  C_9
REMARK    7  A    between atoms: C_19  and  C_20
REMARK    8  A    between atoms: N_22  and  C_23
REMARK    9  A    between atoms: C_23  and  C_24
REMARK   10  A    between atoms: C_24  and  C_26
REMARK   11  A    between atoms: C_26  and  C_27
REMARK   12  A    between atoms: C_26  and  C_28
REMARK   13  A    between atoms: C_26  and  O_29
REMARK                            x       y       z     vdW  Elec       q    Type
REMARK                         _______ _______ _______ _____ _____    ______ ____
ROOT
ATOM      1  C   UNL     1       2.946   6.318  19.586  0.00  0.00    +0.000 A 
ATOM      2  C   UNL     1       2.010   7.350  19.623  0.00  0.00    +0.000 A 
ATOM      3  C   UNL     1       1.916   8.337  18.636  0.00  0.00    +0.000 A 
ATOM      4  N   UNL     1       2.797   8.380  17.624  0.00  0.00    +0.000 NA
ATOM      5  C   UNL     1       3.751   7.407  17.600  0.00  0.00    +0.000 A 
ATOM      6  C   UNL     1       3.854   6.360  18.518  0.00  0.00    +0.000 A 
ENDROOT
BRANCH   6   7
ATOM      7  C   UNL     1       4.955   5.396  18.318  0.00  0.00    +0.000 C 
ATOM      8  O   UNL     1       5.041   4.396  19.024  0.00  0.00    +0.000 OA
ATOM      9  N   UNL     1       5.855   5.675  17.314  0.00  0.00    +0.000 N 
ATOM     10  H   UNL     1       5.738   6.539  16.789  0.00  0.00    +0.000 HD
BRANCH   9  11
ATOM     11  C   UNL     1       6.929   4.764  16.960  0.00  0.00    +0.000 C 
BRANCH  11  12
ATOM     12  C   UNL     1       6.594   3.891  15.742  0.00  0.00    +0.000 C 
ATOM     13  F   UNL     1       5.409   3.244  16.007  0.00  0.00    +0.000 F 
BRANCH  12  14
ATOM     14  C   UNL     1       6.404   4.675  14.419  0.00  0.00    +0.000 C 
ATOM     15  C   UNL     1       7.734   5.152  13.828  0.00  0.00    +0.000 C 
ATOM     16  C   UNL     1       5.622   3.869  13.382  0.00  0.00    +0.000 C 
BRANCH  14  17
ATOM     17  O   UNL     1       5.621   5.850  14.693  0.00  0.00    +0.000 OA
ATOM     18  H   UNL     1       5.781   6.089  15.625  0.00  0.00    +0.000 HD
ENDBRANCH  14  17
ENDBRANCH  12  14
ENDBRANCH  11  12
ENDBRANCH   9  11
ENDBRANCH   6   7
BRANCH   1  19
ATOM     19  N   UNL     1       2.893   5.250  20.503  0.00  0.00    +0.000 N 
ATOM     20  H   UNL     1       3.343   5.481  21.391  0.00  0.00    +0.000 HD
BRANCH  19  22
ATOM     21  C   UNL     1       1.297   3.829  19.319  0.00  0.00    +0.000 C 
ATOM     22  C   UNL     1       1.680   4.430  20.668  0.00  0.00    +0.000 C 
ATOM     23  C   UNL     1       1.921   3.329  21.699  0.00  0.00    +0.000 C 
ENDBRANCH  19  22
ENDBRANCH   1  19
BRANCH   3  24
ATOM     24  N   UNL     1       0.929   9.328  18.700  0.00  0.00    +0.000 N 
ATOM     25  H   UNL     1       0.059   9.020  18.289  0.00  0.00    +0.000 HD
BRANCH  24  26
ATOM     26  C   UNL     1       0.820  10.370  19.646  0.00  0.00    +0.000 A 
ATOM     27  N   UNL     1       1.379  11.581  19.387  0.00  0.00    +0.000 NA
ATOM     28  C   UNL     1       1.101  12.623  20.204  0.00  0.00    +0.000 A 
ATOM     29  C   UNL     1       0.289  12.520  21.314  0.00  0.00    +0.000 A 
ATOM     30 CL   UNL     1      -0.061  13.900  22.269  0.00  0.00    +0.000 Cl
ATOM     31  C   UNL     1      -0.250  11.278  21.620  0.00  0.00    +0.000 A 
ATOM     32  C   UNL     1       0.019  10.199  20.779  0.00  0.00    +0.000 A 
ATOM     33  F   UNL     1      -0.539   9.010  21.048  0.00  0.00    +0.000 F 
ENDBRANCH  24  26
ENDBRANCH   3  24
TORSDOF 9
ENDMDL
MODEL 9
REMARK VINA RESULT:      -7.4      4.572      8.917
REMARK  Name = 
REMARK  13 active torsions:
REMARK  status: ('A' for Active; 'I' for Inactive)
REMARK    1  A    between atoms: C_1  and  C_2
REMARK    2  A    between atoms: C_2  and  C_3
REMARK    3  A    between atoms: C_2  and  N_4
REMARK    4  A    between atoms: N_4  and  C_5
REMARK    5  A    between atoms: C_7  and  N_8
REMARK    6  A    between atoms: N_8  and  C_9
REMARK    7  A    between atoms: C_19  and  C_20
REMARK    8  A    between atoms: N_22  and  C_23
REMARK    9  A    between atoms: C_23  and  C_24
REMARK   10  A    between atoms: C_24  and  C_26
REMARK   11  A    between atoms: C_26  and  C_27
REMARK   12  A    between atoms: C_26  and  C_28
REMARK   13  A    between atoms: C_26  and  O_29
REMARK                            x       y       z     vdW  Elec       q    Type
REMARK                         _______ _______ _______ _____ _____    ______ ____
ROOT
ATOM      1  C   UNL     1       0.796   9.736  20.338  0.00  0.00    +0.000 A 
ATOM      2  C   UNL     1       1.607   8.646  20.649  0.00  0.00    +0.000 A 
ATOM      3  C   UNL     1       2.186   7.819  19.681  0.00  0.00    +0.000 A 
ATOM      4  N   UNL     1       1.915   7.995  18.378  0.00  0.00    +0.000 NA
ATOM      5  C   UNL     1       1.084   9.026  18.059  0.00  0.00    +0.000 A 
ATOM      6  C   UNL     1       0.529   9.924  18.974  0.00  0.00    +0.000 A 
ENDROOT
BRANCH   6   7
ATOM      7  C   UNL     1      -0.345  10.984  18.431  0.00  0.00    +0.000 C 
ATOM      8  O   UNL     1      -0.122  12.163  18.686  0.00  0.00    +0.000 OA
ATOM      9  N   UNL     1      -1.396  10.581  17.638  0.00  0.00    +0.000 N 
ATOM     10  H   UNL     1      -1.536   9.583  17.495  0.00  0.00    +0.000 HD
BRANCH   9  11
ATOM     11  C   UNL     1      -2.273  11.528  16.975  0.00  0.00    +0.000 C 
BRANCH  11  12
ATOM     12  C   UNL     1      -3.701  10.993  16.793  0.00  0.00    +0.000 C 
ATOM     13  F   UNL     1      -3.668   9.635  17.014  0.00  0.00    +0.000 F 
BRANCH  12  14
ATOM     14  C   UNL     1      -4.744  11.593  17.769  0.00  0.00    +0.000 C 
ATOM     15  C   UNL     1      -5.707  12.559  17.073  0.00  0.00    +0.000 C 
ATOM     16  C   UNL     1      -5.527  10.508  18.509  0.00  0.00    +0.000 C 
BRANCH  14  17
ATOM     17  O   UNL     1      -4.047  12.348  18.776  0.00  0.00    +0.000 OA
ATOM     18  H   UNL     1      -4.707  12.920  19.211  0.00  0.00    +0.000 HD
ENDBRANCH  14  17
ENDBRANCH  12  14
ENDBRANCH  11  12
ENDBRANCH   9  11
ENDBRANCH   6   7
BRANCH   1  19
ATOM     19  N   UNL     1       0.379  10.644  21.331  0.00  0.00    +0.000 N 
ATOM     20  H   UNL     1       0.335  11.604  20.982  0.00  0.00    +0.000 HD
BRANCH  19  22
ATOM     21  C   UNL     1      -0.149   9.505  23.426  0.00  0.00    +0.000 C 
ATOM     22  C   UNL     1      -0.712  10.321  22.267  0.00  0.00    +0.000 C 
ATOM     23  C   UNL     1      -1.368  11.602  22.778  0.00  0.00    +0.000 C 
ENDBRANCH  19  22
ENDBRANCH   1  19
BRANCH   3  24
ATOM     24  N   UNL     1       3.028   6.761  20.047  0.00  0.00    +0.000 N 
ATOM     25  H   UNL     1       3.320   6.828  21.012  0.00  0.00    +0.000 HD
BRANCH  24  26
ATOM     26  C   UNL     1       3.070   5.466  19.489  0.00  0.00    +0.000 A 
ATOM     27  N   UNL     1       4.138   5.086  18.738  0.00  0.00    +0.000 NA
ATOM     28  C   UNL     1       4.260   3.789  18.377  0.00  0.00    +0.000 A 
ATOM     29  C   UNL     1       3.338   2.818  18.710  0.00  0.00    +0.000 A 
ATOM     30 CL   UNL     1       3.592   1.183  18.261  0.00  0.00    +0.000 Cl
ATOM     31  C   UNL     1       2.217   3.199  19.434  0.00  0.00    +0.000 A 
ATOM     32  C   UNL     1       2.086   4.531  19.824  0.00  0.00    +0.000 A 
ATOM     33  F   UNL     1       1.026   4.891  20.563  0.00  0.00    +0.000 F 
ENDBRANCH  24  26
ENDBRANCH   3  24
TORSDOF 9
ENDMDL
