MODEL 1
REMARK VINA RESULT:      -9.8      0.000      0.000
REMARK  Name = 
REMARK  6 active torsions:
REMARK  status: ('A' for Active; 'I' for Inactive)
REMARK    1  A    between atoms: C_2  and  C_3
REMARK    2  A    between atoms: C_3  and  N_4
REMARK    3  A    between atoms: C_3  and  C_12
REMARK    4  A    between atoms: N_4  and  C_5
REMARK    5  A    between atoms: C_15  and  C_16
REMARK    6  A    between atoms: C_28  and  C_29
REMARK                            x       y       z     vdW  Elec       q    Type
REMARK                         _______ _______ _______ _____ _____    ______ ____
ROOT
ATOM      1  C   UNL     1       6.516   5.682  16.982  0.00  0.00    +0.000 C 
ENDROOT
BRANCH   1   3
ATOM      2  O   UNL     1       5.207   4.045  18.294  0.00  0.00    +0.000 OA
ATOM      3  C   UNL     1       5.232   5.142  17.728  0.00  0.00    +0.000 C 
ATOM      4  N   UNL     1       4.064   5.908  17.729  0.00  0.00    +0.000 N 
ATOM      5  C   UNL     1       3.834   7.108  16.941  0.00  0.00    +0.000 C 
ATOM      6  C   UNL     1       3.115   8.055  17.881  0.00  0.00    +0.000 C 
ATOM      7  C   UNL     1       2.264   7.111  18.710  0.00  0.00    +0.000 C 
ATOM      8  C   UNL     1       3.158   5.867  18.899  0.00  0.00    +0.000 C 
BRANCH   8   9
ATOM      9  C   UNL     1       2.303   4.639  19.170  0.00  0.00    +0.000 A 
ATOM     10  C   UNL     1       1.792   3.789  18.183  0.00  0.00    +0.000 A 
ATOM     11  C   UNL     1       1.036   2.661  18.531  0.00  0.00    +0.000 A 
ATOM     12  C   UNL     1       0.754   2.372  19.867  0.00  0.00    +0.000 A 
ATOM     13  C   UNL     1       1.250   3.206  20.863  0.00  0.00    +0.000 A 
ATOM     14  C   UNL     1       2.021   4.312  20.510  0.00  0.00    +0.000 A 
ATOM     15  F   UNL     1       2.503   5.080  21.500  0.00  0.00    +0.000 F 
ENDBRANCH   8   9
ENDBRANCH   1   3
BRANCH   1  16
ATOM     16  C   UNL     1       7.298   6.865  17.582  0.00  0.00    +0.000 A 
ATOM     17  C   UNL     1       8.121   6.778  18.706  0.00  0.00    +0.000 A 
ATOM     18  C   UNL     1       8.791   7.897  19.218  0.00  0.00    +0.000 A 
ATOM     19  C   UNL     1       8.662   9.167  18.638  0.00  0.00    +0.000 A 
ATOM     20  C   UNL     1       7.844   9.264  17.505  0.00  0.00    +0.000 A 
ATOM     21  C   UNL     1       7.184   8.138  16.981  0.00  0.00    +0.000 A 
BRANCH  19  22
ATOM     22  C   UNL     1       9.336  10.336  19.228  0.00  0.00    +0.000 A 
ATOM     23  C   UNL     1      10.153  11.191  18.502  0.00  0.00    +0.000 A 
ATOM     24  N   UNL     1      10.814  12.249  19.011  0.00  0.00    +0.000 NA
ATOM     25  C   UNL     1      10.647  12.458  20.323  0.00  0.00    +0.000 A 
ATOM     26  N   UNL     1       9.884  11.726  21.144  0.00  0.00    +0.000 NA
ATOM     27  C   UNL     1       9.248  10.675  20.569  0.00  0.00    +0.000 A 
ENDBRANCH  19  22
ENDBRANCH   1  16
BRANCH   1  28
ATOM     28  N   UNL     1       6.345   5.962  15.532  0.00  0.00    +0.000 N 
ATOM     29  H   UNL     1       6.415   6.946  15.301  0.00  0.00    +0.000 HD
BRANCH  28  30
ATOM     30  C   UNL     1       6.418   5.093  14.460  0.00  0.00    +0.000 A 
ATOM     31  C   UNL     1       5.377   4.162  14.294  0.00  0.00    +0.000 A 
ATOM     32  C   UNL     1       5.287   3.354  13.153  0.00  0.00    +0.000 A 
ATOM     33  C   UNL     1       6.236   3.466  12.145  0.00  0.00    +0.000 A 
ATOM     34  C   UNL     1       7.331   4.297  12.336  0.00  0.00    +0.000 A 
ATOM     35  C   UNL     1       7.445   5.039  13.512  0.00  0.00    +0.000 A 
ATOM     36  F   UNL     1       8.582   5.722  13.682  0.00  0.00    +0.000 F 
ENDBRANCH  28  30
ENDBRANCH   1  28
TORSDOF 6
ENDMDL
MODEL 2
REMARK VINA RESULT:      -9.8      0.126      1.139
REMARK  Name = 
REMARK  6 active torsions:
REMARK  status: ('A' for Active; 'I' for Inactive)
REMARK    1  A    between atoms: C_2  and  C_3
REMARK    2  A    between atoms: C_3  and  N_4
REMARK    3  A    between atoms: C_3  and  C_12
REMARK    4  A    between atoms: N_4  and  C_5
REMARK    5  A    between atoms: C_15  and  C_16
REMARK    6  A    between atoms: C_28  and  C_29
REMARK                            x       y       z     vdW  Elec       q    Type
REMARK                         _______ _______ _______ _____ _____    ______ ____
ROOT
ATOM      1  C   UNL     1       6.558   5.785  16.925  0.00  0.00    +0.000 C 
ENDROOT
BRANCH   1   3
ATOM      2  O   UNL     1       5.283   4.085  18.190  0.00  0.00    +0.000 OA
ATOM      3  C   UNL     1       5.286   5.198  17.655  0.00  0.00    +0.000 C 
ATOM      4  N   UNL     1       4.102   5.938  17.677  0.00  0.00    +0.000 N 
ATOM      5  C   UNL     1       3.847   7.155  16.923  0.00  0.00    +0.000 C 
ATOM      6  C   UNL     1       3.108   8.060  17.889  0.00  0.00    +0.000 C 
ATOM      7  C   UNL     1       2.277   7.076  18.691  0.00  0.00    +0.000 C 
ATOM      8  C   UNL     1       3.197   5.846  18.845  0.00  0.00    +0.000 C 
BRANCH   8   9
ATOM      9  C   UNL     1       2.368   4.594  19.081  0.00  0.00    +0.000 A 
ATOM     10  C   UNL     1       1.929   3.725  18.075  0.00  0.00    +0.000 A 
ATOM     11  C   UNL     1       1.193   2.576  18.392  0.00  0.00    +0.000 A 
ATOM     12  C   UNL     1       0.857   2.282  19.715  0.00  0.00    +0.000 A 
ATOM     13  C   UNL     1       1.281   3.134  20.729  0.00  0.00    +0.000 A 
ATOM     14  C   UNL     1       2.033   4.262  20.408  0.00  0.00    +0.000 A 
ATOM     15  F   UNL     1       2.445   5.047  21.417  0.00  0.00    +0.000 F 
ENDBRANCH   8   9
ENDBRANCH   1   3
BRANCH   1  16
ATOM     16  C   UNL     1       7.264   7.021  17.512  0.00  0.00    +0.000 A 
ATOM     17  C   UNL     1       7.157   8.312  16.991  0.00  0.00    +0.000 A 
ATOM     18  C   UNL     1       7.843   9.394  17.559  0.00  0.00    +0.000 A 
ATOM     19  C   UNL     1       8.682   9.239  18.670  0.00  0.00    +0.000 A 
ATOM     20  C   UNL     1       8.790   7.948  19.205  0.00  0.00    +0.000 A 
ATOM     21  C   UNL     1       8.090   6.865  18.646  0.00  0.00    +0.000 A 
BRANCH  19  22
ATOM     22  C   UNL     1       9.430  10.385  19.214  0.00  0.00    +0.000 A 
ATOM     23  C   UNL     1       9.372  10.770  20.546  0.00  0.00    +0.000 A 
ATOM     24  N   UNL     1      10.013  11.831  21.075  0.00  0.00    +0.000 NA
ATOM     25  C   UNL     1      10.752  12.546  20.218  0.00  0.00    +0.000 A 
ATOM     26  N   UNL     1      10.911  12.287  18.913  0.00  0.00    +0.000 NA
ATOM     27  C   UNL     1      10.237  11.208  18.444  0.00  0.00    +0.000 A 
ENDBRANCH  19  22
ENDBRANCH   1  16
BRANCH   1  28
ATOM     28  N   UNL     1       6.407   6.021  15.464  0.00  0.00    +0.000 N 
ATOM     29  H   UNL     1       6.522   6.992  15.200  0.00  0.00    +0.000 HD
BRANCH  28  30
ATOM     30  C   UNL     1       6.448   5.113  14.423  0.00  0.00    +0.000 A 
ATOM     31  C   UNL     1       5.419   4.157  14.342  0.00  0.00    +0.000 A 
ATOM     32  C   UNL     1       5.293   3.304  13.238  0.00  0.00    +0.000 A 
ATOM     33  C   UNL     1       6.193   3.394  12.183  0.00  0.00    +0.000 A 
ATOM     34  C   UNL     1       7.279   4.251  12.292  0.00  0.00    +0.000 A 
ATOM     35  C   UNL     1       7.431   5.040  13.432  0.00  0.00    +0.000 A 
ATOM     36  F   UNL     1       8.562   5.749  13.523  0.00  0.00    +0.000 F 
ENDBRANCH  28  30
ENDBRANCH   1  28
TORSDOF 6
ENDMDL
MODEL 3
REMARK VINA RESULT:      -9.7      0.777      1.118
REMARK  Name = 
REMARK  6 active torsions:
REMARK  status: ('A' for Active; 'I' for Inactive)
REMARK    1  A    between atoms: C_2  and  C_3
REMARK    2  A    between atoms: C_3  and  N_4
REMARK    3  A    between atoms: C_3  and  C_12
REMARK    4  A    between atoms: N_4  and  C_5
REMARK    5  A    between atoms: C_15  and  C_16
REMARK    6  A    between atoms: C_28  and  C_29
REMARK                            x       y       z     vdW  Elec       q    Type
REMARK                         _______ _______ _______ _____ _____    ______ ____
ROOT
ATOM      1  C   UNL     1       6.506   5.764  17.120  0.00  0.00    +0.000 C 
ENDROOT
BRANCH   1   3
ATOM      2  O   UNL     1       5.309   4.169  18.583  0.00  0.00    +0.000 OA
ATOM      3  C   UNL     1       5.270   5.225  17.944  0.00  0.00    +0.000 C 
ATOM      4  N   UNL     1       4.071   5.941  17.933  0.00  0.00    +0.000 N 
ATOM      5  C   UNL     1       3.766   7.074  17.075  0.00  0.00    +0.000 C 
ATOM      6  C   UNL     1       3.037   8.053  17.974  0.00  0.00    +0.000 C 
ATOM      7  C   UNL     1       2.253   7.135  18.893  0.00  0.00    +0.000 C 
ATOM      8  C   UNL     1       3.205   5.944  19.134  0.00  0.00    +0.000 C 
BRANCH   8   9
ATOM      9  C   UNL     1       2.412   4.704  19.516  0.00  0.00    +0.000 A 
ATOM     10  C   UNL     1       2.278   4.212  20.819  0.00  0.00    +0.000 A 
ATOM     11  C   UNL     1       1.500   3.076  21.079  0.00  0.00    +0.000 A 
ATOM     12  C   UNL     1       0.860   2.393  20.043  0.00  0.00    +0.000 A 
ATOM     13  C   UNL     1       0.983   2.865  18.741  0.00  0.00    +0.000 A 
ATOM     14  C   UNL     1       1.738   4.009  18.494  0.00  0.00    +0.000 A 
ATOM     15  F   UNL     1       1.812   4.448  17.227  0.00  0.00    +0.000 F 
ENDBRANCH   8   9
ENDBRANCH   1   3
BRANCH   1  16
ATOM     16  C   UNL     1       7.302   6.969  17.652  0.00  0.00    +0.000 A 
ATOM     17  C   UNL     1       8.185   6.917  18.732  0.00  0.00    +0.000 A 
ATOM     18  C   UNL     1       8.865   8.055  19.184  0.00  0.00    +0.000 A 
ATOM     19  C   UNL     1       8.688   9.310  18.585  0.00  0.00    +0.000 A 
ATOM     20  C   UNL     1       7.809   9.372  17.495  0.00  0.00    +0.000 A 
ATOM     21  C   UNL     1       7.139   8.227  17.032  0.00  0.00    +0.000 A 
BRANCH  19  22
ATOM     22  C   UNL     1       9.377  10.500  19.113  0.00  0.00    +0.000 A 
ATOM     23  C   UNL     1      10.065  11.401  18.312  0.00  0.00    +0.000 A 
ATOM     24  N   UNL     1      10.735  12.480  18.759  0.00  0.00    +0.000 NA
ATOM     25  C   UNL     1      10.716  12.665  20.085  0.00  0.00    +0.000 A 
ATOM     26  N   UNL     1      10.086  11.888  20.977  0.00  0.00    +0.000 NA
ATOM     27  C   UNL     1       9.433  10.818  20.462  0.00  0.00    +0.000 A 
ENDBRANCH  19  22
ENDBRANCH   1  16
BRANCH   1  28
ATOM     28  N   UNL     1       6.255   6.009  15.675  0.00  0.00    +0.000 N 
ATOM     29  H   UNL     1       6.248   6.991  15.429  0.00  0.00    +0.000 HD
BRANCH  28  30
ATOM     30  C   UNL     1       6.343   5.131  14.612  0.00  0.00    +0.000 A 
ATOM     31  C   UNL     1       5.304   4.198  14.440  0.00  0.00    +0.000 A 
ATOM     32  C   UNL     1       5.230   3.380  13.305  0.00  0.00    +0.000 A 
ATOM     33  C   UNL     1       6.194   3.483  12.309  0.00  0.00    +0.000 A 
ATOM     34  C   UNL     1       7.286   4.315  12.508  0.00  0.00    +0.000 A 
ATOM     35  C   UNL     1       7.383   5.068  13.679  0.00  0.00    +0.000 A 
ATOM     36  F   UNL     1       8.518   5.752  13.859  0.00  0.00    +0.000 F 
ENDBRANCH  28  30
ENDBRANCH   1  28
TORSDOF 6
ENDMDL
MODEL 4
REMARK VINA RESULT:      -9.2      0.817      1.392
REMARK  Name = 
REMARK  6 active torsions:
REMARK  status: ('A' for Active; 'I' for Inactive)
REMARK    1  A    between atoms: C_2  and  C_3
REMARK    2  A    between atoms: C_3  and  N_4
REMARK    3  A    between atoms: C_3  and  C_12
REMARK    4  A    between atoms: N_4  and  C_5
REMARK    5  A    between atoms: C_15  and  C_16
REMARK    6  A    between atoms: C_28  and  C_29
REMARK                            x       y       z     vdW  Elec       q    Type
REMARK                         _______ _______ _______ _____ _____    ______ ____
ROOT
ATOM      1  C   UNL     1       6.636   5.766  17.004  0.00  0.00    +0.000 C 
ENDROOT
BRANCH   1   3
ATOM      2  O   UNL     1       5.353   4.098  18.304  0.00  0.00    +0.000 OA
ATOM      3  C   UNL     1       5.356   5.192  17.732  0.00  0.00    +0.000 C 
ATOM      4  N   UNL     1       4.166   5.922  17.707  0.00  0.00    +0.000 N 
ATOM      5  C   UNL     1       3.914   7.110  16.907  0.00  0.00    +0.000 C 
ATOM      6  C   UNL     1       3.150   8.041  17.829  0.00  0.00    +0.000 C 
ATOM      7  C   UNL     1       2.313   7.076  18.649  0.00  0.00    +0.000 C 
ATOM      8  C   UNL     1       3.240   5.861  18.861  0.00  0.00    +0.000 C 
BRANCH   8   9
ATOM      9  C   UNL     1       2.418   4.610  19.125  0.00  0.00    +0.000 A 
ATOM     10  C   UNL     1       1.982   3.718  18.138  0.00  0.00    +0.000 A 
ATOM     11  C   UNL     1       1.252   2.572  18.481  0.00  0.00    +0.000 A 
ATOM     12  C   UNL     1       0.919   2.305  19.810  0.00  0.00    +0.000 A 
ATOM     13  C   UNL     1       1.341   3.180  20.805  0.00  0.00    +0.000 A 
ATOM     14  C   UNL     1       2.087   4.304  20.459  0.00  0.00    +0.000 A 
ATOM     15  F   UNL     1       2.497   5.112  21.450  0.00  0.00    +0.000 F 
ENDBRANCH   8   9
ENDBRANCH   1   3
BRANCH   1  16
ATOM     16  C   UNL     1       7.407   6.936  17.642  0.00  0.00    +0.000 A 
ATOM     17  C   UNL     1       8.172   6.835  18.807  0.00  0.00    +0.000 A 
ATOM     18  C   UNL     1       8.834   7.943  19.351  0.00  0.00    +0.000 A 
ATOM     19  C   UNL     1       8.757   9.214  18.766  0.00  0.00    +0.000 A 
ATOM     20  C   UNL     1       7.998   9.324  17.593  0.00  0.00    +0.000 A 
ATOM     21  C   UNL     1       7.346   8.210  17.037  0.00  0.00    +0.000 A 
BRANCH  19  22
ATOM     22  C   UNL     1       9.421  10.372  19.389  0.00  0.00    +0.000 A 
ATOM     23  C   UNL     1       9.190  10.769  20.698  0.00  0.00    +0.000 A 
ATOM     24  N   UNL     1       9.750  11.840  21.293  0.00  0.00    +0.000 NA
ATOM     25  C   UNL     1      10.587  12.553  20.530  0.00  0.00    +0.000 A 
ATOM     26  N   UNL     1      10.914  12.284  19.259  0.00  0.00    +0.000 NA
ATOM     27  C   UNL     1      10.313  11.195  18.720  0.00  0.00    +0.000 A 
ENDBRANCH  19  22
ENDBRANCH   1  16
BRANCH   1  28
ATOM     28  N   UNL     1       6.464   6.091  15.564  0.00  0.00    +0.000 N 
ATOM     29  H   UNL     1       6.627   7.067  15.349  0.00  0.00    +0.000 HD
BRANCH  28  30
ATOM     30  C   UNL     1       6.429   5.241  14.475  0.00  0.00    +0.000 A 
ATOM     31  C   UNL     1       7.395   5.421  13.467  0.00  0.00    +0.000 A 
ATOM     32  C   UNL     1       7.534   4.511  12.411  0.00  0.00    +0.000 A 
ATOM     33  C   UNL     1       6.712   3.392  12.344  0.00  0.00    +0.000 A 
ATOM     34  C   UNL     1       5.682   3.253  13.262  0.00  0.00    +0.000 A 
ATOM     35  C   UNL     1       5.509   4.208  14.264  0.00  0.00    +0.000 A 
ATOM     36  F   UNL     1       4.426   4.077  15.037  0.00  0.00    +0.000 F 
ENDBRANCH  28  30
ENDBRANCH   1  28
TORSDOF 6
ENDMDL
MODEL 5
REMARK VINA RESULT:      -9.1      1.139      1.607
REMARK  Name = 
REMARK  6 active torsions:
REMARK  status: ('A' for Active; 'I' for Inactive)
REMARK    1  A    between atoms: C_2  and  C_3
REMARK    2  A    between atoms: C_3  and  N_4
REMARK    3  A    between atoms: C_3  and  C_12
REMARK    4  A    between atoms: N_4  and  C_5
REMARK    5  A    between atoms: C_15  and  C_16
REMARK    6  A    between atoms: C_28  and  C_29
REMARK                            x       y       z     vdW  Elec       q    Type
REMARK                         _______ _______ _______ _____ _____    ______ ____
ROOT
ATOM      1  C   UNL     1       6.563   5.895  17.160  0.00  0.00    +0.000 C 
ENDROOT
BRANCH   1   3
ATOM      2  O   UNL     1       5.399   4.296  18.645  0.00  0.00    +0.000 OA
ATOM      3  C   UNL     1       5.334   5.335  17.981  0.00  0.00    +0.000 C 
ATOM      4  N   UNL     1       4.112   6.010  17.937  0.00  0.00    +0.000 N 
ATOM      5  C   UNL     1       3.782   7.112  17.048  0.00  0.00    +0.000 C 
ATOM      6  C   UNL     1       3.008   8.087  17.914  0.00  0.00    +0.000 C 
ATOM      7  C   UNL     1       2.242   7.165  18.844  0.00  0.00    +0.000 C 
ATOM      8  C   UNL     1       3.229   6.012  19.126  0.00  0.00    +0.000 C 
BRANCH   8   9
ATOM      9  C   UNL     1       2.472   4.756  19.527  0.00  0.00    +0.000 A 
ATOM     10  C   UNL     1       2.373   4.266  20.834  0.00  0.00    +0.000 A 
ATOM     11  C   UNL     1       1.626   3.113  21.112  0.00  0.00    +0.000 A 
ATOM     12  C   UNL     1       0.985   2.411  20.090  0.00  0.00    +0.000 A 
ATOM     13  C   UNL     1       1.074   2.880  18.784  0.00  0.00    +0.000 A 
ATOM     14  C   UNL     1       1.798   4.040  18.519  0.00  0.00    +0.000 A 
ATOM     15  F   UNL     1       1.840   4.475  17.249  0.00  0.00    +0.000 F 
ENDBRANCH   8   9
ENDBRANCH   1   3
BRANCH   1  16
ATOM     16  C   UNL     1       7.370   7.080  17.722  0.00  0.00    +0.000 A 
ATOM     17  C   UNL     1       8.232   6.998  18.817  0.00  0.00    +0.000 A 
ATOM     18  C   UNL     1       8.924   8.118  19.296  0.00  0.00    +0.000 A 
ATOM     19  C   UNL     1       8.780   9.383  18.711  0.00  0.00    +0.000 A 
ATOM     20  C   UNL     1       7.923   9.475  17.606  0.00  0.00    +0.000 A 
ATOM     21  C   UNL     1       7.240   8.348  17.115  0.00  0.00    +0.000 A 
BRANCH  19  22
ATOM     22  C   UNL     1       9.480  10.554  19.267  0.00  0.00    +0.000 A 
ATOM     23  C   UNL     1      10.339  11.352  18.524  0.00  0.00    +0.000 A 
ATOM     24  N   UNL     1      11.023  12.408  19.003  0.00  0.00    +0.000 NA
ATOM     25  C   UNL     1      10.837  12.678  20.301  0.00  0.00    +0.000 A 
ATOM     26  N   UNL     1      10.033  12.005  21.135  0.00  0.00    +0.000 NA
ATOM     27  C   UNL     1       9.375  10.952  20.590  0.00  0.00    +0.000 A 
ENDBRANCH  19  22
ENDBRANCH   1  16
BRANCH   1  28
ATOM     28  N   UNL     1       6.296   6.189  15.727  0.00  0.00    +0.000 N 
ATOM     29  H   UNL     1       6.318   7.177  15.508  0.00  0.00    +0.000 HD
BRANCH  28  30
ATOM     30  C   UNL     1       6.337   5.338  14.639  0.00  0.00    +0.000 A 
ATOM     31  C   UNL     1       7.331   5.557  13.668  0.00  0.00    +0.000 A 
ATOM     32  C   UNL     1       7.546   4.654  12.619  0.00  0.00    +0.000 A 
ATOM     33  C   UNL     1       6.774   3.502  12.522  0.00  0.00    +0.000 A 
ATOM     34  C   UNL     1       5.716   3.322  13.403  0.00  0.00    +0.000 A 
ATOM     35  C   UNL     1       5.468   4.269  14.396  0.00  0.00    +0.000 A 
ATOM     36  F   UNL     1       4.363   4.094  15.129  0.00  0.00    +0.000 F 
ENDBRANCH  28  30
ENDBRANCH   1  28
TORSDOF 6
ENDMDL
MODEL 6
REMARK VINA RESULT:      -9.1      6.006     10.156
REMARK  Name = 
REMARK  6 active torsions:
REMARK  status: ('A' for Active; 'I' for Inactive)
REMARK    1  A    between atoms: C_2  and  C_3
REMARK    2  A    between atoms: C_3  and  N_4
REMARK    3  A    between atoms: C_3  and  C_12
REMARK    4  A    between atoms: N_4  and  C_5
REMARK    5  A    between atoms: C_15  and  C_16
REMARK    6  A    between atoms: C_28  and  C_29
REMARK                            x       y       z     vdW  Elec       q    Type
REMARK                         _______ _______ _______ _____ _____    ______ ____
ROOT
ATOM      1  C   UNL     1       0.623  10.587  18.884  0.00  0.00    +0.000 C 
ENDROOT
BRANCH   1   3
ATOM      2  O   UNL     1       2.318  12.222  18.128  0.00  0.00    +0.000 OA
ATOM      3  C   UNL     1       1.447  11.933  18.955  0.00  0.00    +0.000 C 
ATOM      4  N   UNL     1       1.217  12.826  20.004  0.00  0.00    +0.000 N 
ATOM      5  C   UNL     1       0.401  12.565  21.179  0.00  0.00    +0.000 C 
ATOM      6  C   UNL     1      -0.368  13.852  21.408  0.00  0.00    +0.000 C 
ATOM      7  C   UNL     1       0.631  14.912  20.983  0.00  0.00    +0.000 C 
ATOM      8  C   UNL     1       1.355  14.283  19.774  0.00  0.00    +0.000 C 
BRANCH   8   9
ATOM      9  C   UNL     1       2.730  14.908  19.599  0.00  0.00    +0.000 A 
ATOM     10  C   UNL     1       3.870  14.549  20.328  0.00  0.00    +0.000 A 
ATOM     11  C   UNL     1       5.104  15.163  20.075  0.00  0.00    +0.000 A 
ATOM     12  C   UNL     1       5.222  16.164  19.110  0.00  0.00    +0.000 A 
ATOM     13  C   UNL     1       4.102  16.536  18.376  0.00  0.00    +0.000 A 
ATOM     14  C   UNL     1       2.883  15.905  18.616  0.00  0.00    +0.000 A 
ATOM     15  F   UNL     1       1.829  16.275  17.871  0.00  0.00    +0.000 F 
ENDBRANCH   8   9
ENDBRANCH   1   3
BRANCH   1  16
ATOM     16  C   UNL     1       1.364   9.241  18.978  0.00  0.00    +0.000 A 
ATOM     17  C   UNL     1       2.057   8.647  17.922  0.00  0.00    +0.000 A 
ATOM     18  C   UNL     1       2.695   7.408  18.063  0.00  0.00    +0.000 A 
ATOM     19  C   UNL     1       2.662   6.690  19.267  0.00  0.00    +0.000 A 
ATOM     20  C   UNL     1       1.975   7.281  20.335  0.00  0.00    +0.000 A 
ATOM     21  C   UNL     1       1.348   8.532  20.199  0.00  0.00    +0.000 A 
BRANCH  19  22
ATOM     22  C   UNL     1       3.297   5.366  19.371  0.00  0.00    +0.000 A 
ATOM     23  C   UNL     1       2.614   4.221  19.756  0.00  0.00    +0.000 A 
ATOM     24  N   UNL     1       3.165   3.000  19.897  0.00  0.00    +0.000 NA
ATOM     25  C   UNL     1       4.476   2.924  19.640  0.00  0.00    +0.000 A 
ATOM     26  N   UNL     1       5.260   3.939  19.250  0.00  0.00    +0.000 NA
ATOM     27  C   UNL     1       4.644   5.140  19.130  0.00  0.00    +0.000 A 
ENDBRANCH  19  22
ENDBRANCH   1  16
BRANCH   1  28
ATOM     28  N   UNL     1      -0.336  10.480  17.752  0.00  0.00    +0.000 N 
ATOM     29  H   UNL     1       0.021   9.941  16.973  0.00  0.00    +0.000 HD
BRANCH  28  30
ATOM     30  C   UNL     1      -1.696  10.724  17.733  0.00  0.00    +0.000 A 
ATOM     31  C   UNL     1      -2.253  11.437  18.810  0.00  0.00    +0.000 A 
ATOM     32  C   UNL     1      -3.587  11.865  18.798  0.00  0.00    +0.000 A 
ATOM     33  C   UNL     1      -4.394  11.595  17.699  0.00  0.00    +0.000 A 
ATOM     34  C   UNL     1      -3.899  10.799  16.676  0.00  0.00    +0.000 A 
ATOM     35  C   UNL     1      -2.592  10.317  16.739  0.00  0.00    +0.000 A 
ATOM     36  F   UNL     1      -2.223   9.458  15.783  0.00  0.00    +0.000 F 
ENDBRANCH  28  30
ENDBRANCH   1  28
TORSDOF 6
ENDMDL
MODEL 7
REMARK VINA RESULT:      -9.0      5.804      9.997
REMARK  Name = 
REMARK  6 active torsions:
REMARK  status: ('A' for Active; 'I' for Inactive)
REMARK    1  A    between atoms: C_2  and  C_3
REMARK    2  A    between atoms: C_3  and  N_4
REMARK    3  A    between atoms: C_3  and  C_12
REMARK    4  A    between atoms: N_4  and  C_5
REMARK    5  A    between atoms: C_15  and  C_16
REMARK    6  A    between atoms: C_28  and  C_29
REMARK                            x       y       z     vdW  Elec       q    Type
REMARK                         _______ _______ _______ _____ _____    ______ ____
ROOT
ATOM      1  C   UNL     1       0.651  10.550  18.883  0.00  0.00    +0.000 C 
ENDROOT
BRANCH   1   3
ATOM      2  O   UNL     1       2.348  12.153  18.061  0.00  0.00    +0.000 OA
ATOM      3  C   UNL     1       1.482  11.895  18.904  0.00  0.00    +0.000 C 
ATOM      4  N   UNL     1       1.265  12.821  19.926  0.00  0.00    +0.000 N 
ATOM      5  C   UNL     1       0.458  12.602  21.115  0.00  0.00    +0.000 C 
ATOM      6  C   UNL     1      -0.303  13.899  21.310  0.00  0.00    +0.000 C 
ATOM      7  C   UNL     1       0.697  14.940  20.844  0.00  0.00    +0.000 C 
ATOM      8  C   UNL     1       1.408  14.269  19.650  0.00  0.00    +0.000 C 
BRANCH   8   9
ATOM      9  C   UNL     1       2.784  14.882  19.443  0.00  0.00    +0.000 A 
ATOM     10  C   UNL     1       3.116  15.773  18.416  0.00  0.00    +0.000 A 
ATOM     11  C   UNL     1       4.407  16.311  18.323  0.00  0.00    +0.000 A 
ATOM     12  C   UNL     1       5.399  15.953  19.237  0.00  0.00    +0.000 A 
ATOM     13  C   UNL     1       5.091  15.068  20.264  0.00  0.00    +0.000 A 
ATOM     14  C   UNL     1       3.799  14.556  20.363  0.00  0.00    +0.000 A 
ATOM     15  F   UNL     1       3.533  13.723  21.383  0.00  0.00    +0.000 F 
ENDBRANCH   8   9
ENDBRANCH   1   3
BRANCH   1  16
ATOM     16  C   UNL     1       1.388   9.204  19.006  0.00  0.00    +0.000 A 
ATOM     17  C   UNL     1       2.101   8.598  17.970  0.00  0.00    +0.000 A 
ATOM     18  C   UNL     1       2.733   7.359  18.138  0.00  0.00    +0.000 A 
ATOM     19  C   UNL     1       2.675   6.655  19.348  0.00  0.00    +0.000 A 
ATOM     20  C   UNL     1       1.967   7.258  20.397  0.00  0.00    +0.000 A 
ATOM     21  C   UNL     1       1.346   8.509  20.234  0.00  0.00    +0.000 A 
BRANCH  19  22
ATOM     22  C   UNL     1       3.305   5.331  19.480  0.00  0.00    +0.000 A 
ATOM     23  C   UNL     1       4.638   5.088  19.180  0.00  0.00    +0.000 A 
ATOM     24  N   UNL     1       5.243   3.886  19.254  0.00  0.00    +0.000 NA
ATOM     25  C   UNL     1       4.465   2.871  19.650  0.00  0.00    +0.000 A 
ATOM     26  N   UNL     1       3.170   2.957  19.982  0.00  0.00    +0.000 NA
ATOM     27  C   UNL     1       2.622   4.194  19.883  0.00  0.00    +0.000 A 
ENDBRANCH  19  22
ENDBRANCH   1  16
BRANCH   1  28
ATOM     28  N   UNL     1      -0.322  10.416  17.767  0.00  0.00    +0.000 N 
ATOM     29  H   UNL     1       0.016   9.839  17.006  0.00  0.00    +0.000 HD
BRANCH  28  30
ATOM     30  C   UNL     1      -1.678  10.683  17.752  0.00  0.00    +0.000 A 
ATOM     31  C   UNL     1      -2.216  11.417  18.825  0.00  0.00    +0.000 A 
ATOM     32  C   UNL     1      -3.542  11.870  18.815  0.00  0.00    +0.000 A 
ATOM     33  C   UNL     1      -4.360  11.603  17.724  0.00  0.00    +0.000 A 
ATOM     34  C   UNL     1      -3.885  10.787  16.707  0.00  0.00    +0.000 A 
ATOM     35  C   UNL     1      -2.586  10.283  16.768  0.00  0.00    +0.000 A 
ATOM     36  F   UNL     1      -2.238   9.407  15.818  0.00  0.00    +0.000 F 
ENDBRANCH  28  30
ENDBRANCH   1  28
TORSDOF 6
ENDMDL
MODEL 8
REMARK VINA RESULT:      -9.0      5.783     10.025
REMARK  Name = 
REMARK  6 active torsions:
REMARK  status: ('A' for Active; 'I' for Inactive)
REMARK    1  A    between atoms: C_2  and  C_3
REMARK    2  A    between atoms: C_3  and  N_4
REMARK    3  A    between atoms: C_3  and  C_12
REMARK    4  A    between atoms: N_4  and  C_5
REMARK    5  A    between atoms: C_15  and  C_16
REMARK    6  A    between atoms: C_28  and  C_29
REMARK                            x       y       z     vdW  Elec       q    Type
REMARK                         _______ _______ _______ _____ _____    ______ ____
ROOT
ATOM      1  C   UNL     1       0.714  10.540  18.960  0.00  0.00    +0.000 C 
ENDROOT
BRANCH   1   3
ATOM      2  O   UNL     1       2.603  11.932  18.176  0.00  0.00    +0.000 OA
ATOM      3  C   UNL     1       1.664  11.803  18.968  0.00  0.00    +0.000 C 
ATOM      4  N   UNL     1       1.470  12.804  19.922  0.00  0.00    +0.000 N 
ATOM      5  C   UNL     1       0.570  12.728  21.062  0.00  0.00    +0.000 C 
ATOM      6  C   UNL     1      -0.077  14.097  21.135  0.00  0.00    +0.000 C 
ATOM      7  C   UNL     1       1.044  15.015  20.685  0.00  0.00    +0.000 C 
ATOM      8  C   UNL     1       1.765  14.214  19.581  0.00  0.00    +0.000 C 
BRANCH   8   9
ATOM      9  C   UNL     1       3.203  14.688  19.439  0.00  0.00    +0.000 A 
ATOM     10  C   UNL     1       4.138  14.723  20.479  0.00  0.00    +0.000 A 
ATOM     11  C   UNL     1       5.453  15.148  20.246  0.00  0.00    +0.000 A 
ATOM     12  C   UNL     1       5.855  15.572  18.978  0.00  0.00    +0.000 A 
ATOM     13  C   UNL     1       4.939  15.548  17.932  0.00  0.00    +0.000 A 
ATOM     14  C   UNL     1       3.641  15.100  18.166  0.00  0.00    +0.000 A 
ATOM     15  F   UNL     1       2.793  15.068  17.125  0.00  0.00    +0.000 F 
ENDBRANCH   8   9
ENDBRANCH   1   3
BRANCH   1  16
ATOM     16  C   UNL     1       1.320   9.137  19.151  0.00  0.00    +0.000 A 
ATOM     17  C   UNL     1       1.308   8.430  20.355  0.00  0.00    +0.000 A 
ATOM     18  C   UNL     1       1.895   7.164  20.472  0.00  0.00    +0.000 A 
ATOM     19  C   UNL     1       2.537   6.542  19.392  0.00  0.00    +0.000 A 
ATOM     20  C   UNL     1       2.548   7.241  18.177  0.00  0.00    +0.000 A 
ATOM     21  C   UNL     1       1.946   8.504  18.055  0.00  0.00    +0.000 A 
BRANCH  19  22
ATOM     22  C   UNL     1       3.191   5.233  19.557  0.00  0.00    +0.000 A 
ATOM     23  C   UNL     1       4.500   4.981  19.169  0.00  0.00    +0.000 A 
ATOM     24  N   UNL     1       5.122   3.791  19.270  0.00  0.00    +0.000 NA
ATOM     25  C   UNL     1       4.389   2.797  19.789  0.00  0.00    +0.000 A 
ATOM     26  N   UNL     1       3.124   2.896  20.216  0.00  0.00    +0.000 NA
ATOM     27  C   UNL     1       2.555   4.120  20.083  0.00  0.00    +0.000 A 
ENDBRANCH  19  22
ENDBRANCH   1  16
BRANCH   1  28
ATOM     28  N   UNL     1      -0.231  10.456  17.815  0.00  0.00    +0.000 N 
ATOM     29  H   UNL     1       0.135   9.932  17.030  0.00  0.00    +0.000 HD
BRANCH  28  30
ATOM     30  C   UNL     1      -1.590  10.700  17.785  0.00  0.00    +0.000 A 
ATOM     31  C   UNL     1      -2.151  11.435  18.845  0.00  0.00    +0.000 A 
ATOM     32  C   UNL     1      -3.485  11.864  18.818  0.00  0.00    +0.000 A 
ATOM     33  C   UNL     1      -4.287  11.573  17.721  0.00  0.00    +0.000 A 
ATOM     34  C   UNL     1      -3.789  10.756  16.717  0.00  0.00    +0.000 A 
ATOM     35  C   UNL     1      -2.482  10.274  16.795  0.00  0.00    +0.000 A 
ATOM     36  F   UNL     1      -2.110   9.396  15.858  0.00  0.00    +0.000 F 
ENDBRANCH  28  30
ENDBRANCH   1  28
TORSDOF 6
ENDMDL
MODEL 9
REMARK VINA RESULT:      -9.0      6.070     10.166
REMARK  Name = 
REMARK  6 active torsions:
REMARK  status: ('A' for Active; 'I' for Inactive)
REMARK    1  A    between atoms: C_2  and  C_3
REMARK    2  A    between atoms: C_3  and  N_4
REMARK    3  A    between atoms: C_3  and  C_12
REMARK    4  A    between atoms: N_4  and  C_5
REMARK    5  A    between atoms: C_15  and  C_16
REMARK    6  A    between atoms: C_28  and  C_29
REMARK                            x       y       z     vdW  Elec       q    Type
REMARK                         _______ _______ _______ _____ _____    ______ ____
ROOT
ATOM      1  C   UNL     1       0.407  10.539  18.882  0.00  0.00    +0.000 C 
ENDROOT
BRANCH   1   3
ATOM      2  O   UNL     1       1.865  12.397  18.145  0.00  0.00    +0.000 OA
ATOM      3  C   UNL     1       1.162  11.918  19.041  0.00  0.00    +0.000 C 
ATOM      4  N   UNL     1       1.069  12.618  20.246  0.00  0.00    +0.000 N 
ATOM      5  C   UNL     1       0.479  12.117  21.476  0.00  0.00    +0.000 C 
ATOM      6  C   UNL     1      -0.305  13.290  22.034  0.00  0.00    +0.000 C 
ATOM      7  C   UNL     1       0.553  14.477  21.636  0.00  0.00    +0.000 C 
ATOM      8  C   UNL     1       1.092  14.099  20.240  0.00  0.00    +0.000 C 
BRANCH   8   9
ATOM      9  C   UNL     1       2.384  14.849  19.954  0.00  0.00    +0.000 A 
ATOM     10  C   UNL     1       3.606  14.608  20.593  0.00  0.00    +0.000 A 
ATOM     11  C   UNL     1       4.753  15.331  20.241  0.00  0.00    +0.000 A 
ATOM     12  C   UNL     1       4.701  16.325  19.262  0.00  0.00    +0.000 A 
ATOM     13  C   UNL     1       3.496  16.581  18.617  0.00  0.00    +0.000 A 
ATOM     14  C   UNL     1       2.365  15.841  18.956  0.00  0.00    +0.000 A 
ATOM     15  F   UNL     1       1.227  16.100  18.293  0.00  0.00    +0.000 F 
ENDBRANCH   8   9
ENDBRANCH   1   3
BRANCH   1  16
ATOM     16  C   UNL     1       1.199   9.225  19.006  0.00  0.00    +0.000 A 
ATOM     17  C   UNL     1       1.880   8.612  17.953  0.00  0.00    +0.000 A 
ATOM     18  C   UNL     1       2.566   7.402  18.123  0.00  0.00    +0.000 A 
ATOM     19  C   UNL     1       2.597   6.735  19.356  0.00  0.00    +0.000 A 
ATOM     20  C   UNL     1       1.923   7.346  20.421  0.00  0.00    +0.000 A 
ATOM     21  C   UNL     1       1.247   8.567  20.255  0.00  0.00    +0.000 A 
BRANCH  19  22
ATOM     22  C   UNL     1       3.283   5.440  19.494  0.00  0.00    +0.000 A 
ATOM     23  C   UNL     1       4.612   5.240  19.146  0.00  0.00    +0.000 A 
ATOM     24  N   UNL     1       5.265   4.064  19.225  0.00  0.00    +0.000 NA
ATOM     25  C   UNL     1       4.543   3.031  19.675  0.00  0.00    +0.000 A 
ATOM     26  N   UNL     1       3.259   3.076  20.057  0.00  0.00    +0.000 NA
ATOM     27  C   UNL     1       2.661   4.288  19.951  0.00  0.00    +0.000 A 
ENDBRANCH  19  22
ENDBRANCH   1  16
BRANCH   1  28
ATOM     28  N   UNL     1      -0.457  10.416  17.678  0.00  0.00    +0.000 N 
ATOM     29  H   UNL     1      -0.095   9.770  16.987  0.00  0.00    +0.000 HD
BRANCH  28  30
ATOM     30  C   UNL     1      -1.777  10.791  17.508  0.00  0.00    +0.000 A 
ATOM     31  C   UNL     1      -2.382  10.524  16.266  0.00  0.00    +0.000 A 
ATOM     32  C   UNL     1      -3.754  10.723  16.059  0.00  0.00    +0.000 A 
ATOM     33  C   UNL     1      -4.554  11.187  17.096  0.00  0.00    +0.000 A 
ATOM     34  C   UNL     1      -3.960  11.561  18.293  0.00  0.00    +0.000 A 
ATOM     35  C   UNL     1      -2.581  11.428  18.458  0.00  0.00    +0.000 A 
ATOM     36  F   UNL     1      -2.062  11.921  19.588  0.00  0.00    +0.000 F 
ENDBRANCH  28  30
ENDBRANCH   1  28
TORSDOF 6
ENDMDL
