MODEL 1
REMARK VINA RESULT:      -8.0      0.000      0.000
REMARK  Name = 
REMARK  11 active torsions:
REMARK  status: ('A' for Active; 'I' for Inactive)
REMARK    1  A    between atoms: C_1  and  O_2
REMARK    2  A    between atoms: O_2  and  C_3
REMARK    3  A    between atoms: C_8  and  N_9
REMARK    4  A    between atoms: C_13  and  C_15
REMARK    5  A    between atoms: C_15  and  C_16
REMARK    6  A    between atoms: C_15  and  N_26
REMARK    7  A    between atoms: C_16  and  C_17
REMARK    8  A    between atoms: C_27  and  C_29
REMARK    9  A    between atoms: C_29  and  C_30
REMARK   10  A    between atoms: C_29  and  C_31
REMARK   11  A    between atoms: C_29  and  N_32
REMARK                            x       y       z     vdW  Elec       q    Type
REMARK                         _______ _______ _______ _____ _____    ______ ____
ROOT
ATOM      1  C   UNL     1       0.959  10.055  18.669  0.00  0.00    +0.000 C 
ENDROOT
BRANCH   1   6
ATOM      2  N   UNL     1      -0.891  12.848  22.674  0.00  0.00    +0.000 N 
ATOM      3  C   UNL     1      -0.468  13.143  21.285  0.00  0.00    +0.000 C 
ATOM      4  C   UNL     1       0.742  12.200  20.999  0.00  0.00    +0.000 C 
ATOM      5  N   UNL     1       0.418  10.759  21.178  0.00  0.00    +0.000 N 
ATOM      6  C   UNL     1       0.604   9.709  20.248  0.00  0.00    +0.000 C 
ATOM      7  O   UNL     1       0.233   8.573  20.569  0.00  0.00    +0.000 OA
ATOM      8  C   UNL     1      -0.193  10.480  22.510  0.00  0.00    +0.000 C 
ATOM      9  C   UNL     1      -1.369  11.452  22.767  0.00  0.00    +0.000 C 
BRANCH   2  15
ATOM     10  C   UNL     1      -1.182  15.003  23.908  0.00  0.00    +0.000 A 
ATOM     11  C   UNL     1      -2.051  15.837  24.622  0.00  0.00    +0.000 A 
ATOM     12  C   UNL     1      -3.339  15.451  24.944  0.00  0.00    +0.000 A 
ATOM     13  C   UNL     1      -3.781  14.196  24.572  0.00  0.00    +0.000 A 
ATOM     14  C   UNL     1      -2.943  13.355  23.830  0.00  0.00    +0.000 A 
ATOM     15  C   UNL     1      -1.629  13.744  23.455  0.00  0.00    +0.000 A 
BRANCH  10  17
ATOM     16  C   UNL     1       0.388  16.764  23.977  0.00  0.00    +0.000 C 
ATOM     17  O   UNL     1       0.115  15.394  23.679  0.00  0.00    +0.000 OA
ENDBRANCH  10  17
ENDBRANCH   2  15
ENDBRANCH   1   6
BRANCH   1  18
ATOM     18  N   UNL     1      -0.411   9.943  18.096  0.00  0.00    +0.000 N 
ATOM     19  C   UNL     1      -1.208  11.031  17.835  0.00  0.00    +0.000 C 
ATOM     20  O   UNL     1      -0.801  12.178  18.037  0.00  0.00    +0.000 OA
ATOM     21  H   UNL     1      -0.867   9.047  18.239  0.00  0.00    +0.000 HD
BRANCH  19  22
ATOM     22  C   UNL     1      -2.644  10.761  17.205  0.00  0.00    +0.000 C 
ATOM     23  C   UNL     1      -2.614  10.665  15.675  0.00  0.00    +0.000 C 
ATOM     24  C   UNL     1      -3.365   9.534  17.772  0.00  0.00    +0.000 C 
BRANCH  22  25
ATOM     25  N   UNL     1      -3.493  11.936  17.538  0.00  0.00    +0.000 NA
ATOM     26  H   UNL     1      -4.342  11.588  17.988  0.00  0.00    +0.000 HD
ATOM     27  H   UNL     1      -3.838  12.324  16.655  0.00  0.00    +0.000 HD
ENDBRANCH  22  25
ENDBRANCH  19  22
ENDBRANCH   1  18
BRANCH   1  28
ATOM     28  C   UNL     1       2.086   9.087  17.878  0.00  0.00    +0.000 C 
BRANCH  28  29
ATOM     29  C   UNL     1       2.268   7.405  17.848  0.00  0.00    +0.000 A 
ATOM     30  C   UNL     1       3.649   7.433  18.202  0.00  0.00    +0.000 A 
ATOM     31  N   UNL     1       4.196   6.713  17.138  0.00  0.00    +0.000 N 
ATOM     32  C   UNL     1       3.807   5.474  17.560  0.00  0.00    +0.000 A 
ATOM     33  C   UNL     1       4.487   4.250  17.599  0.00  0.00    +0.000 A 
ATOM     34  C   UNL     1       3.743   3.134  17.932  0.00  0.00    +0.000 A 
ATOM     35  C   UNL     1       2.366   3.288  18.114  0.00  0.00    +0.000 A 
ATOM     36  C   UNL     1       1.700   4.583  18.031  0.00  0.00    +0.000 A 
ATOM     37  C   UNL     1       2.455   5.811  17.817  0.00  0.00    +0.000 A 
ATOM     38  H   UNL     1       3.874   6.908  16.201  0.00  0.00    +0.000 HD
ENDBRANCH  28  29
ENDBRANCH   1  28
TORSDOF 8
ENDMDL
MODEL 2
REMARK VINA RESULT:      -8.0      1.046      1.149
REMARK  Name = 
REMARK  11 active torsions:
REMARK  status: ('A' for Active; 'I' for Inactive)
REMARK    1  A    between atoms: C_1  and  O_2
REMARK    2  A    between atoms: O_2  and  C_3
REMARK    3  A    between atoms: C_8  and  N_9
REMARK    4  A    between atoms: C_13  and  C_15
REMARK    5  A    between atoms: C_15  and  C_16
REMARK    6  A    between atoms: C_15  and  N_26
REMARK    7  A    between atoms: C_16  and  C_17
REMARK    8  A    between atoms: C_27  and  C_29
REMARK    9  A    between atoms: C_29  and  C_30
REMARK   10  A    between atoms: C_29  and  C_31
REMARK   11  A    between atoms: C_29  and  N_32
REMARK                            x       y       z     vdW  Elec       q    Type
REMARK                         _______ _______ _______ _____ _____    ______ ____
ROOT
ATOM      1  C   UNL     1       1.543   9.350  19.028  0.00  0.00    +0.000 C 
ENDROOT
BRANCH   1   6
ATOM      2  N   UNL     1      -0.943  12.006  22.773  0.00  0.00    +0.000 N 
ATOM      3  C   UNL     1      -0.503  12.292  21.388  0.00  0.00    +0.000 C 
ATOM      4  C   UNL     1       0.858  11.550  21.212  0.00  0.00    +0.000 C 
ATOM      5  N   UNL     1       0.765  10.088  21.464  0.00  0.00    +0.000 N 
ATOM      6  C   UNL     1       1.168   9.034  20.609  0.00  0.00    +0.000 C 
ATOM      7  O   UNL     1       0.972   7.871  20.983  0.00  0.00    +0.000 OA
ATOM      8  C   UNL     1       0.141   9.781  22.784  0.00  0.00    +0.000 C 
ATOM      9  C   UNL     1      -1.190  10.557  22.931  0.00  0.00    +0.000 C 
BRANCH   2  15
ATOM     10  C   UNL     1      -1.620  14.119  23.925  0.00  0.00    +0.000 A 
ATOM     11  C   UNL     1      -2.649  14.841  24.542  0.00  0.00    +0.000 A 
ATOM     12  C   UNL     1      -3.899  14.293  24.763  0.00  0.00    +0.000 A 
ATOM     13  C   UNL     1      -4.140  12.985  24.385  0.00  0.00    +0.000 A 
ATOM     14  C   UNL     1      -3.137  12.253  23.737  0.00  0.00    +0.000 A 
ATOM     15  C   UNL     1      -1.857  12.807  23.467  0.00  0.00    +0.000 A 
BRANCH  10  17
ATOM     16  C   UNL     1      -0.285  15.749  22.860  0.00  0.00    +0.000 C 
ATOM     17  O   UNL     1      -0.370  14.675  23.798  0.00  0.00    +0.000 OA
ENDBRANCH  10  17
ENDBRANCH   2  15
ENDBRANCH   1   6
BRANCH   1  18
ATOM     18  N   UNL     1       0.165   9.542  18.500  0.00  0.00    +0.000 N 
ATOM     19  C   UNL     1      -0.326  10.762  18.101  0.00  0.00    +0.000 C 
ATOM     20  O   UNL     1       0.384  11.771  18.133  0.00  0.00    +0.000 OA
ATOM     21  H   UNL     1      -0.507   8.830  18.775  0.00  0.00    +0.000 HD
BRANCH  19  22
ATOM     22  C   UNL     1      -1.813  10.814  17.540  0.00  0.00    +0.000 C 
ATOM     23  C   UNL     1      -2.180   9.576  16.712  0.00  0.00    +0.000 C 
ATOM     24  C   UNL     1      -2.887  11.040  18.609  0.00  0.00    +0.000 C 
BRANCH  22  25
ATOM     25  N   UNL     1      -1.890  11.977  16.617  0.00  0.00    +0.000 NA
ATOM     26  H   UNL     1      -2.093  11.618  15.681  0.00  0.00    +0.000 HD
ATOM     27  H   UNL     1      -0.944  12.356  16.522  0.00  0.00    +0.000 HD
ENDBRANCH  22  25
ENDBRANCH  19  22
ENDBRANCH   1  18
BRANCH   1  28
ATOM     28  C   UNL     1       2.422   8.197  18.175  0.00  0.00    +0.000 C 
BRANCH  28  29
ATOM     29  C   UNL     1       2.286   6.510  18.137  0.00  0.00    +0.000 A 
ATOM     30  C   UNL     1       3.679   6.278  18.332  0.00  0.00    +0.000 A 
ATOM     31  N   UNL     1       3.959   5.483  17.218  0.00  0.00    +0.000 N 
ATOM     32  C   UNL     1       3.398   4.332  17.692  0.00  0.00    +0.000 A 
ATOM     33  C   UNL     1       3.839   3.003  17.663  0.00  0.00    +0.000 A 
ATOM     34  C   UNL     1       2.945   2.040  18.087  0.00  0.00    +0.000 A 
ATOM     35  C   UNL     1       1.649   2.443  18.422  0.00  0.00    +0.000 A 
ATOM     36  C   UNL     1       1.229   3.839  18.406  0.00  0.00    +0.000 A 
ATOM     37  C   UNL     1       2.170   4.909  18.098  0.00  0.00    +0.000 A 
ATOM     38  H   UNL     1       3.575   5.747  16.322  0.00  0.00    +0.000 HD
ENDBRANCH  28  29
ENDBRANCH   1  28
TORSDOF 8
ENDMDL
MODEL 3
REMARK VINA RESULT:      -8.0      1.469      1.622
REMARK  Name = 
REMARK  11 active torsions:
REMARK  status: ('A' for Active; 'I' for Inactive)
REMARK    1  A    between atoms: C_1  and  O_2
REMARK    2  A    between atoms: O_2  and  C_3
REMARK    3  A    between atoms: C_8  and  N_9
REMARK    4  A    between atoms: C_13  and  C_15
REMARK    5  A    between atoms: C_15  and  C_16
REMARK    6  A    between atoms: C_15  and  N_26
REMARK    7  A    between atoms: C_16  and  C_17
REMARK    8  A    between atoms: C_27  and  C_29
REMARK    9  A    between atoms: C_29  and  C_30
REMARK   10  A    between atoms: C_29  and  C_31
REMARK   11  A    between atoms: C_29  and  N_32
REMARK                            x       y       z     vdW  Elec       q    Type
REMARK                         _______ _______ _______ _____ _____    ______ ____
ROOT
ATOM      1  C   UNL     1       0.640   9.913  19.693  0.00  0.00    +0.000 C 
ENDROOT
BRANCH   1   6
ATOM      2  N   UNL     1      -1.756  13.116  23.049  0.00  0.00    +0.000 N 
ATOM      3  C   UNL     1      -1.109  13.263  21.725  0.00  0.00    +0.000 C 
ATOM      4  C   UNL     1       0.107  12.285  21.734  0.00  0.00    +0.000 C 
ATOM      5  N   UNL     1      -0.278  10.874  21.999  0.00  0.00    +0.000 N 
ATOM      6  C   UNL     1       0.027   9.732  21.220  0.00  0.00    +0.000 C 
ATOM      7  O   UNL     1      -0.420   8.638  21.587  0.00  0.00    +0.000 OA
ATOM      8  C   UNL     1      -1.102  10.736  23.235  0.00  0.00    +0.000 C 
ATOM      9  C   UNL     1      -2.279  11.741  23.201  0.00  0.00    +0.000 C 
BRANCH   2  15
ATOM     10  C   UNL     1      -2.195  15.067  24.549  0.00  0.00    +0.000 A 
ATOM     11  C   UNL     1      -3.110  16.038  24.973  0.00  0.00    +0.000 A 
ATOM     12  C   UNL     1      -4.420  16.054  24.531  0.00  0.00    +0.000 A 
ATOM     13  C   UNL     1      -4.851  15.072  23.660  0.00  0.00    +0.000 A 
ATOM     14  C   UNL     1      -3.947  14.108  23.196  0.00  0.00    +0.000 A 
ATOM     15  C   UNL     1      -2.587  14.093  23.608  0.00  0.00    +0.000 A 
BRANCH  10  17
ATOM     16  C   UNL     1      -0.663  16.046  26.054  0.00  0.00    +0.000 C 
ATOM     17  O   UNL     1      -0.926  15.040  25.076  0.00  0.00    +0.000 OA
ENDBRANCH  10  17
ENDBRANCH   2  15
ENDBRANCH   1   6
BRANCH   1  18
ATOM     18  N   UNL     1      -0.641   9.960  18.936  0.00  0.00    +0.000 N 
ATOM     19  C   UNL     1      -1.129  11.103  18.352  0.00  0.00    +0.000 C 
ATOM     20  O   UNL     1      -0.494  12.160  18.401  0.00  0.00    +0.000 OA
ATOM     21  H   UNL     1      -1.306   9.226  19.166  0.00  0.00    +0.000 HD
BRANCH  19  22
ATOM     22  C   UNL     1      -2.504  11.000  17.558  0.00  0.00    +0.000 C 
ATOM     23  C   UNL     1      -2.902   9.552  17.245  0.00  0.00    +0.000 C 
ATOM     24  C   UNL     1      -3.681  11.711  18.233  0.00  0.00    +0.000 C 
BRANCH  22  25
ATOM     25  N   UNL     1      -2.302  11.674  16.248  0.00  0.00    +0.000 NA
ATOM     26  H   UNL     1      -2.392  12.681  16.401  0.00  0.00    +0.000 HD
ATOM     27  H   UNL     1      -3.111  11.453  15.662  0.00  0.00    +0.000 HD
ENDBRANCH  22  25
ENDBRANCH  19  22
ENDBRANCH   1  18
BRANCH   1  28
ATOM     28  C   UNL     1       1.703   8.741  19.121  0.00  0.00    +0.000 C 
BRANCH  28  29
ATOM     29  C   UNL     1       1.905   7.121  19.568  0.00  0.00    +0.000 A 
ATOM     30  C   UNL     1       2.918   6.860  18.598  0.00  0.00    +0.000 A 
ATOM     31  N   UNL     1       2.350   5.775  17.928  0.00  0.00    +0.000 N 
ATOM     32  C   UNL     1       2.608   4.836  18.886  0.00  0.00    +0.000 A 
ATOM     33  C   UNL     1       3.090   3.525  18.795  0.00  0.00    +0.000 A 
ATOM     34  C   UNL     1       3.078   2.774  19.955  0.00  0.00    +0.000 A 
ATOM     35  C   UNL     1       2.509   3.337  21.100  0.00  0.00    +0.000 A 
ATOM     36  C   UNL     1       1.992   4.700  21.135  0.00  0.00    +0.000 A 
ATOM     37  C   UNL     1       2.102   5.582  19.979  0.00  0.00    +0.000 A 
ATOM     38  H   UNL     1       1.370   5.808  17.689  0.00  0.00    +0.000 HD
ENDBRANCH  28  29
ENDBRANCH   1  28
TORSDOF 8
ENDMDL
MODEL 4
REMARK VINA RESULT:      -7.9      1.007      1.655
REMARK  Name = 
REMARK  11 active torsions:
REMARK  status: ('A' for Active; 'I' for Inactive)
REMARK    1  A    between atoms: C_1  and  O_2
REMARK    2  A    between atoms: O_2  and  C_3
REMARK    3  A    between atoms: C_8  and  N_9
REMARK    4  A    between atoms: C_13  and  C_15
REMARK    5  A    between atoms: C_15  and  C_16
REMARK    6  A    between atoms: C_15  and  N_26
REMARK    7  A    between atoms: C_16  and  C_17
REMARK    8  A    between atoms: C_27  and  C_29
REMARK    9  A    between atoms: C_29  and  C_30
REMARK   10  A    between atoms: C_29  and  C_31
REMARK   11  A    between atoms: C_29  and  N_32
REMARK                            x       y       z     vdW  Elec       q    Type
REMARK                         _______ _______ _______ _____ _____    ______ ____
ROOT
ATOM      1  C   UNL     1       0.857  10.259  18.690  0.00  0.00    +0.000 C 
ENDROOT
BRANCH   1   6
ATOM      2  N   UNL     1      -1.141  13.074  22.608  0.00  0.00    +0.000 N 
ATOM      3  C   UNL     1      -0.702  13.354  21.221  0.00  0.00    +0.000 C 
ATOM      4  C   UNL     1       0.539  12.440  20.974  0.00  0.00    +0.000 C 
ATOM      5  N   UNL     1       0.252  10.995  21.175  0.00  0.00    +0.000 N 
ATOM      6  C   UNL     1       0.483   9.933  20.269  0.00  0.00    +0.000 C 
ATOM      7  O   UNL     1       0.138   8.793  20.605  0.00  0.00    +0.000 OA
ATOM      8  C   UNL     1      -0.375  10.723  22.501  0.00  0.00    +0.000 C 
ATOM      9  C   UNL     1      -1.582  11.667  22.719  0.00  0.00    +0.000 C 
BRANCH   2  15
ATOM     10  C   UNL     1      -3.303  14.176  23.208  0.00  0.00    +0.000 A 
ATOM     11  C   UNL     1      -3.977  15.042  24.078  0.00  0.00    +0.000 A 
ATOM     12  C   UNL     1      -3.317  15.744  25.069  0.00  0.00    +0.000 A 
ATOM     13  C   UNL     1      -1.947  15.607  25.198  0.00  0.00    +0.000 A 
ATOM     14  C   UNL     1      -1.256  14.722  24.361  0.00  0.00    +0.000 A 
ATOM     15  C   UNL     1      -1.917  13.963  23.359  0.00  0.00    +0.000 A 
BRANCH  10  17
ATOM     16  C   UNL     1      -5.295  13.109  22.527  0.00  0.00    +0.000 C 
ATOM     17  O   UNL     1      -3.984  13.560  22.186  0.00  0.00    +0.000 OA
ENDBRANCH  10  17
ENDBRANCH   2  15
ENDBRANCH   1   6
BRANCH   1  18
ATOM     18  N   UNL     1      -0.493  10.069  18.091  0.00  0.00    +0.000 N 
ATOM     19  C   UNL     1      -1.339  11.110  17.794  0.00  0.00    +0.000 C 
ATOM     20  O   UNL     1      -0.995  12.280  17.985  0.00  0.00    +0.000 OA
ATOM     21  H   UNL     1      -0.906   9.152  18.239  0.00  0.00    +0.000 HD
BRANCH  19  22
ATOM     22  C   UNL     1      -2.745  10.757  17.140  0.00  0.00    +0.000 C 
ATOM     23  C   UNL     1      -2.665  10.577  15.619  0.00  0.00    +0.000 C 
ATOM     24  C   UNL     1      -3.443   9.540  17.754  0.00  0.00    +0.000 C 
BRANCH  22  25
ATOM     25  N   UNL     1      -3.641  11.920  17.380  0.00  0.00    +0.000 NA
ATOM     26  H   UNL     1      -4.160  12.095  16.517  0.00  0.00    +0.000 HD
ATOM     27  H   UNL     1      -3.048  12.749  17.470  0.00  0.00    +0.000 HD
ENDBRANCH  22  25
ENDBRANCH  19  22
ENDBRANCH   1  18
BRANCH   1  28
ATOM     28  C   UNL     1       2.046   9.330  17.947  0.00  0.00    +0.000 C 
BRANCH  28  29
ATOM     29  C   UNL     1       2.242   7.651  17.861  0.00  0.00    +0.000 A 
ATOM     30  C   UNL     1       3.632   7.681  18.177  0.00  0.00    +0.000 A 
ATOM     31  N   UNL     1       4.154   6.997  17.077  0.00  0.00    +0.000 N 
ATOM     32  C   UNL     1       3.787   5.743  17.473  0.00  0.00    +0.000 A 
ATOM     33  C   UNL     1       4.478   4.525  17.456  0.00  0.00    +0.000 A 
ATOM     34  C   UNL     1       3.754   3.393  17.777  0.00  0.00    +0.000 A 
ATOM     35  C   UNL     1       2.381   3.529  18.001  0.00  0.00    +0.000 A 
ATOM     36  C   UNL     1       1.702   4.819  17.976  0.00  0.00    +0.000 A 
ATOM     37  C   UNL     1       2.441   6.060  17.778  0.00  0.00    +0.000 A 
ATOM     38  H   UNL     1       3.805   7.217  16.155  0.00  0.00    +0.000 HD
ENDBRANCH  28  29
ENDBRANCH   1  28
TORSDOF 8
ENDMDL
MODEL 5
REMARK VINA RESULT:      -7.7      1.544      2.026
REMARK  Name = 
REMARK  11 active torsions:
REMARK  status: ('A' for Active; 'I' for Inactive)
REMARK    1  A    between atoms: C_1  and  O_2
REMARK    2  A    between atoms: O_2  and  C_3
REMARK    3  A    between atoms: C_8  and  N_9
REMARK    4  A    between atoms: C_13  and  C_15
REMARK    5  A    between atoms: C_15  and  C_16
REMARK    6  A    between atoms: C_15  and  N_26
REMARK    7  A    between atoms: C_16  and  C_17
REMARK    8  A    between atoms: C_27  and  C_29
REMARK    9  A    between atoms: C_29  and  C_30
REMARK   10  A    between atoms: C_29  and  C_31
REMARK   11  A    between atoms: C_29  and  N_32
REMARK                            x       y       z     vdW  Elec       q    Type
REMARK                         _______ _______ _______ _____ _____    ______ ____
ROOT
ATOM      1  C   UNL     1       0.576   9.915  19.443  0.00  0.00    +0.000 C 
ENDROOT
BRANCH   1   6
ATOM      2  N   UNL     1      -1.544  13.176  22.926  0.00  0.00    +0.000 N 
ATOM      3  C   UNL     1      -0.964  13.309  21.569  0.00  0.00    +0.000 C 
ATOM      4  C   UNL     1       0.222  12.296  21.512  0.00  0.00    +0.000 C 
ATOM      5  N   UNL     1      -0.190  10.896  21.795  0.00  0.00    +0.000 N 
ATOM      6  C   UNL     1       0.040   9.748  20.999  0.00  0.00    +0.000 C 
ATOM      7  O   UNL     1      -0.418   8.666  21.388  0.00  0.00    +0.000 OA
ATOM      8  C   UNL     1      -0.951  10.779  23.074  0.00  0.00    +0.000 C 
ATOM      9  C   UNL     1      -2.098  11.817  23.103  0.00  0.00    +0.000 C 
BRANCH   2  15
ATOM     10  C   UNL     1      -3.620  14.551  23.149  0.00  0.00    +0.000 A 
ATOM     11  C   UNL     1      -4.313  15.519  23.887  0.00  0.00    +0.000 A 
ATOM     12  C   UNL     1      -3.741  16.165  24.967  0.00  0.00    +0.000 A 
ATOM     13  C   UNL     1      -2.439  15.866  25.322  0.00  0.00    +0.000 A 
ATOM     14  C   UNL     1      -1.737  14.879  24.620  0.00  0.00    +0.000 A 
ATOM     15  C   UNL     1      -2.316  14.176  23.529  0.00  0.00    +0.000 A 
BRANCH  10  17
ATOM     16  C   UNL     1      -5.440  13.330  22.271  0.00  0.00    +0.000 C 
ATOM     17  O   UNL     1      -4.198  13.992  22.034  0.00  0.00    +0.000 OA
ENDBRANCH  10  17
ENDBRANCH   2  15
ENDBRANCH   1   6
BRANCH   1  18
ATOM     18  N   UNL     1      -0.739   9.904  18.745  0.00  0.00    +0.000 N 
ATOM     19  C   UNL     1      -1.306  11.024  18.188  0.00  0.00    +0.000 C 
ATOM     20  O   UNL     1      -0.720  12.110  18.213  0.00  0.00    +0.000 OA
ATOM     21  H   UNL     1      -1.358   9.140  19.002  0.00  0.00    +0.000 HD
BRANCH  19  22
ATOM     22  C   UNL     1      -2.709  10.858  17.458  0.00  0.00    +0.000 C 
ATOM     23  C   UNL     1      -2.612  11.029  15.937  0.00  0.00    +0.000 C 
ATOM     24  C   UNL     1      -3.436   9.547  17.771  0.00  0.00    +0.000 C 
BRANCH  22  25
ATOM     25  N   UNL     1      -3.588  11.952  17.950  0.00  0.00    +0.000 NA
ATOM     26  H   UNL     1      -2.990  12.664  18.375  0.00  0.00    +0.000 HD
ATOM     27  H   UNL     1      -4.117  11.585  18.746  0.00  0.00    +0.000 HD
ENDBRANCH  22  25
ENDBRANCH  19  22
ENDBRANCH   1  18
BRANCH   1  28
ATOM     28  C   UNL     1       1.651   8.767  18.845  0.00  0.00    +0.000 C 
BRANCH  28  29
ATOM     29  C   UNL     1       1.938   7.169  19.324  0.00  0.00    +0.000 A 
ATOM     30  C   UNL     1       3.135   7.034  18.561  0.00  0.00    +0.000 A 
ATOM     31  N   UNL     1       2.821   5.908  17.798  0.00  0.00    +0.000 N 
ATOM     32  C   UNL     1       2.994   4.984  18.789  0.00  0.00    +0.000 A 
ATOM     33  C   UNL     1       3.622   3.732  18.790  0.00  0.00    +0.000 A 
ATOM     34  C   UNL     1       3.474   2.963  19.929  0.00  0.00    +0.000 A 
ATOM     35  C   UNL     1       2.645   3.442  20.947  0.00  0.00    +0.000 A 
ATOM     36  C   UNL     1       1.988   4.742  20.883  0.00  0.00    +0.000 A 
ATOM     37  C   UNL     1       2.218   5.652  19.767  0.00  0.00    +0.000 A 
ATOM     38  H   UNL     1       1.905   5.843  17.380  0.00  0.00    +0.000 HD
ENDBRANCH  28  29
ENDBRANCH   1  28
TORSDOF 8
ENDMDL
MODEL 6
REMARK VINA RESULT:      -7.7      2.923      9.402
REMARK  Name = 
REMARK  11 active torsions:
REMARK  status: ('A' for Active; 'I' for Inactive)
REMARK    1  A    between atoms: C_1  and  O_2
REMARK    2  A    between atoms: O_2  and  C_3
REMARK    3  A    between atoms: C_8  and  N_9
REMARK    4  A    between atoms: C_13  and  C_15
REMARK    5  A    between atoms: C_15  and  C_16
REMARK    6  A    between atoms: C_15  and  N_26
REMARK    7  A    between atoms: C_16  and  C_17
REMARK    8  A    between atoms: C_27  and  C_29
REMARK    9  A    between atoms: C_29  and  C_30
REMARK   10  A    between atoms: C_29  and  C_31
REMARK   11  A    between atoms: C_29  and  N_32
REMARK                            x       y       z     vdW  Elec       q    Type
REMARK                         _______ _______ _______ _____ _____    ______ ____
ROOT
ATOM      1  C   UNL     1       1.134  12.155  19.369  0.00  0.00    +0.000 C 
ENDROOT
BRANCH   1   6
ATOM      2  N   UNL     1       2.260   7.139  18.452  0.00  0.00    +0.000 N 
ATOM      3  C   UNL     1       2.305   8.394  17.666  0.00  0.00    +0.000 C 
ATOM      4  C   UNL     1       1.073   9.232  18.131  0.00  0.00    +0.000 C 
ATOM      5  N   UNL     1       1.067   9.504  19.593  0.00  0.00    +0.000 N 
ATOM      6  C   UNL     1       0.963  10.758  20.240  0.00  0.00    +0.000 C 
ATOM      7  O   UNL     1       1.017  10.784  21.476  0.00  0.00    +0.000 OA
ATOM      8  C   UNL     1       1.218   8.257  20.399  0.00  0.00    +0.000 C 
ATOM      9  C   UNL     1       2.431   7.442  19.889  0.00  0.00    +0.000 C 
BRANCH   2  15
ATOM     10  C   UNL     1       2.422   4.652  18.264  0.00  0.00    +0.000 A 
ATOM     11  C   UNL     1       3.123   3.558  17.743  0.00  0.00    +0.000 A 
ATOM     12  C   UNL     1       4.310   3.711  17.051  0.00  0.00    +0.000 A 
ATOM     13  C   UNL     1       4.837   4.978  16.883  0.00  0.00    +0.000 A 
ATOM     14  C   UNL     1       4.138   6.090  17.367  0.00  0.00    +0.000 A 
ATOM     15  C   UNL     1       2.898   5.961  18.050  0.00  0.00    +0.000 A 
BRANCH  10  17
ATOM     16  C   UNL     1       1.115   3.112  19.487  0.00  0.00    +0.000 C 
ATOM     17  O   UNL     1       1.288   4.448  19.015  0.00  0.00    +0.000 OA
ENDBRANCH  10  17
ENDBRANCH   2  15
ENDBRANCH   1   6
BRANCH   1  18
ATOM     18  N   UNL     1       1.780  12.998  20.412  0.00  0.00    +0.000 N 
ATOM     19  C   UNL     1       2.758  13.922  20.134  0.00  0.00    +0.000 C 
ATOM     20  O   UNL     1       3.129  14.123  18.975  0.00  0.00    +0.000 OA
ATOM     21  H   UNL     1       1.738  12.624  21.357  0.00  0.00    +0.000 HD
BRANCH  19  22
ATOM     22  C   UNL     1       3.346  14.764  21.349  0.00  0.00    +0.000 C 
ATOM     23  C   UNL     1       4.557  14.093  22.008  0.00  0.00    +0.000 C 
ATOM     24  C   UNL     1       3.702  16.214  21.002  0.00  0.00    +0.000 C 
BRANCH  22  25
ATOM     25  N   UNL     1       2.284  14.831  22.387  0.00  0.00    +0.000 NA
ATOM     26  H   UNL     1       2.743  14.949  23.293  0.00  0.00    +0.000 HD
ATOM     27  H   UNL     1       1.865  13.900  22.456  0.00  0.00    +0.000 HD
ENDBRANCH  22  25
ENDBRANCH  19  22
ENDBRANCH   1  18
BRANCH   1  28
ATOM     28  C   UNL     1      -0.248  12.857  18.715  0.00  0.00    +0.000 C 
BRANCH  28  29
ATOM     29  C   UNL     1      -1.883  12.637  19.093  0.00  0.00    +0.000 A 
ATOM     30  C   UNL     1      -2.032  11.475  18.281  0.00  0.00    +0.000 A 
ATOM     31  N   UNL     1      -3.096  11.873  17.468  0.00  0.00    +0.000 N 
ATOM     32  C   UNL     1      -4.083  11.713  18.399  0.00  0.00    +0.000 A 
ATOM     33  C   UNL     1      -5.363  11.151  18.308  0.00  0.00    +0.000 A 
ATOM     34  C   UNL     1      -6.187  11.298  19.407  0.00  0.00    +0.000 A 
ATOM     35  C   UNL     1      -5.727  12.066  20.480  0.00  0.00    +0.000 A 
ATOM     36  C   UNL     1      -4.395  12.657  20.512  0.00  0.00    +0.000 A 
ATOM     37  C   UNL     1      -3.435  12.420  19.441  0.00  0.00    +0.000 A 
ATOM     38  H   UNL     1      -3.092  12.805  17.081  0.00  0.00    +0.000 HD
ENDBRANCH  28  29
ENDBRANCH   1  28
TORSDOF 8
ENDMDL
MODEL 7
REMARK VINA RESULT:      -7.5      2.817      9.290
REMARK  Name = 
REMARK  11 active torsions:
REMARK  status: ('A' for Active; 'I' for Inactive)
REMARK    1  A    between atoms: C_1  and  O_2
REMARK    2  A    between atoms: O_2  and  C_3
REMARK    3  A    between atoms: C_8  and  N_9
REMARK    4  A    between atoms: C_13  and  C_15
REMARK    5  A    between atoms: C_15  and  C_16
REMARK    6  A    between atoms: C_15  and  N_26
REMARK    7  A    between atoms: C_16  and  C_17
REMARK    8  A    between atoms: C_27  and  C_29
REMARK    9  A    between atoms: C_29  and  C_30
REMARK   10  A    between atoms: C_29  and  C_31
REMARK   11  A    between atoms: C_29  and  N_32
REMARK                            x       y       z     vdW  Elec       q    Type
REMARK                         _______ _______ _______ _____ _____    ______ ____
ROOT
ATOM      1  C   UNL     1       1.231  12.146  19.340  0.00  0.00    +0.000 C 
ENDROOT
BRANCH   1   6
ATOM      2  N   UNL     1       2.191   7.098  18.411  0.00  0.00    +0.000 N 
ATOM      3  C   UNL     1       2.264   8.351  17.624  0.00  0.00    +0.000 C 
ATOM      4  C   UNL     1       1.065   9.227  18.104  0.00  0.00    +0.000 C 
ATOM      5  N   UNL     1       1.086   9.498  19.566  0.00  0.00    +0.000 N 
ATOM      6  C   UNL     1       1.028  10.755  20.214  0.00  0.00    +0.000 C 
ATOM      7  O   UNL     1       1.098  10.779  21.449  0.00  0.00    +0.000 OA
ATOM      8  C   UNL     1       1.209   8.247  20.371  0.00  0.00    +0.000 C 
ATOM      9  C   UNL     1       2.390   7.396  19.845  0.00  0.00    +0.000 C 
BRANCH   2  15
ATOM     10  C   UNL     1       4.143   5.737  17.646  0.00  0.00    +0.000 A 
ATOM     11  C   UNL     1       4.632   4.465  17.325  0.00  0.00    +0.000 A 
ATOM     12  C   UNL     1       3.815   3.350  17.300  0.00  0.00    +0.000 A 
ATOM     13  C   UNL     1       2.469   3.492  17.578  0.00  0.00    +0.000 A 
ATOM     14  C   UNL     1       1.961   4.748  17.933  0.00  0.00    +0.000 A 
ATOM     15  C   UNL     1       2.788   5.901  18.001  0.00  0.00    +0.000 A 
BRANCH  10  17
ATOM     16  C   UNL     1       6.284   6.557  17.086  0.00  0.00    +0.000 C 
ATOM     17  O   UNL     1       4.973   6.830  17.580  0.00  0.00    +0.000 OA
ENDBRANCH  10  17
ENDBRANCH   2  15
ENDBRANCH   1   6
BRANCH   1  18
ATOM     18  N   UNL     1       1.916  12.968  20.374  0.00  0.00    +0.000 N 
ATOM     19  C   UNL     1       2.896  13.886  20.080  0.00  0.00    +0.000 C 
ATOM     20  O   UNL     1       3.233  14.098  18.912  0.00  0.00    +0.000 OA
ATOM     21  H   UNL     1       1.898  12.583  21.315  0.00  0.00    +0.000 HD
BRANCH  19  22
ATOM     22  C   UNL     1       3.528  14.707  21.286  0.00  0.00    +0.000 C 
ATOM     23  C   UNL     1       4.650  15.652  20.839  0.00  0.00    +0.000 C 
ATOM     24  C   UNL     1       2.511  15.492  22.121  0.00  0.00    +0.000 C 
BRANCH  22  25
ATOM     25  N   UNL     1       4.151  13.718  22.206  0.00  0.00    +0.000 NA
ATOM     26  H   UNL     1       4.611  13.008  21.632  0.00  0.00    +0.000 HD
ATOM     27  H   UNL     1       3.393  13.199  22.657  0.00  0.00    +0.000 HD
ENDBRANCH  22  25
ENDBRANCH  19  22
ENDBRANCH   1  18
BRANCH   1  28
ATOM     28  C   UNL     1      -0.138  12.891  18.705  0.00  0.00    +0.000 C 
BRANCH  28  29
ATOM     29  C   UNL     1      -1.780  12.641  19.026  0.00  0.00    +0.000 A 
ATOM     30  C   UNL     1      -1.884  11.483  18.201  0.00  0.00    +0.000 A 
ATOM     31  N   UNL     1      -2.926  11.869  17.356  0.00  0.00    +0.000 N 
ATOM     32  C   UNL     1      -3.941  11.686  18.252  0.00  0.00    +0.000 A 
ATOM     33  C   UNL     1      -5.207  11.104  18.114  0.00  0.00    +0.000 A 
ATOM     34  C   UNL     1      -6.070  11.230  19.185  0.00  0.00    +0.000 A 
ATOM     35  C   UNL     1      -5.659  11.997  20.279  0.00  0.00    +0.000 A 
ATOM     36  C   UNL     1      -4.338  12.609  20.360  0.00  0.00    +0.000 A 
ATOM     37  C   UNL     1      -3.340  12.396  19.320  0.00  0.00    +0.000 A 
ATOM     38  H   UNL     1      -2.925  12.804  16.976  0.00  0.00    +0.000 HD
ENDBRANCH  28  29
ENDBRANCH   1  28
TORSDOF 8
ENDMDL
MODEL 8
REMARK VINA RESULT:      -7.5      1.437      1.969
REMARK  Name = 
REMARK  11 active torsions:
REMARK  status: ('A' for Active; 'I' for Inactive)
REMARK    1  A    between atoms: C_1  and  O_2
REMARK    2  A    between atoms: O_2  and  C_3
REMARK    3  A    between atoms: C_8  and  N_9
REMARK    4  A    between atoms: C_13  and  C_15
REMARK    5  A    between atoms: C_15  and  C_16
REMARK    6  A    between atoms: C_15  and  N_26
REMARK    7  A    between atoms: C_16  and  C_17
REMARK    8  A    between atoms: C_27  and  C_29
REMARK    9  A    between atoms: C_29  and  C_30
REMARK   10  A    between atoms: C_29  and  C_31
REMARK   11  A    between atoms: C_29  and  N_32
REMARK                            x       y       z     vdW  Elec       q    Type
REMARK                         _______ _______ _______ _____ _____    ______ ____
ROOT
ATOM      1  C   UNL     1       0.652  10.022  19.067  0.00  0.00    +0.000 C 
ENDROOT
BRANCH   1   6
ATOM      2  N   UNL     1      -1.302  13.128  22.782  0.00  0.00    +0.000 N 
ATOM      3  C   UNL     1      -0.756  13.324  21.419  0.00  0.00    +0.000 C 
ATOM      4  C   UNL     1       0.406  12.292  21.273  0.00  0.00    +0.000 C 
ATOM      5  N   UNL     1      -0.029  10.886  21.491  0.00  0.00    +0.000 N 
ATOM      6  C   UNL     1       0.155   9.780  20.627  0.00  0.00    +0.000 C 
ATOM      7  O   UNL     1      -0.316   8.688  20.969  0.00  0.00    +0.000 OA
ATOM      8  C   UNL     1      -0.757  10.714  22.782  0.00  0.00    +0.000 C 
ATOM      9  C   UNL     1      -1.880  11.772  22.900  0.00  0.00    +0.000 C 
BRANCH   2  15
ATOM     10  C   UNL     1      -3.356  14.501  23.164  0.00  0.00    +0.000 A 
ATOM     11  C   UNL     1      -4.003  15.444  23.971  0.00  0.00    +0.000 A 
ATOM     12  C   UNL     1      -3.371  16.049  25.042  0.00  0.00    +0.000 A 
ATOM     13  C   UNL     1      -2.054  15.732  25.317  0.00  0.00    +0.000 A 
ATOM     14  C   UNL     1      -1.395  14.769  24.544  0.00  0.00    +0.000 A 
ATOM     15  C   UNL     1      -2.035  14.108  23.461  0.00  0.00    +0.000 A 
BRANCH  10  17
ATOM     16  C   UNL     1      -5.325  14.463  21.862  0.00  0.00    +0.000 C 
ATOM     17  O   UNL     1      -3.994  13.985  22.061  0.00  0.00    +0.000 OA
ENDBRANCH  10  17
ENDBRANCH   2  15
ENDBRANCH   1   6
BRANCH   1  18
ATOM     18  N   UNL     1      -0.657   9.847  18.380  0.00  0.00    +0.000 N 
ATOM     19  C   UNL     1      -1.435  10.900  17.963  0.00  0.00    +0.000 C 
ATOM     20  O   UNL     1      -1.058  12.065  18.114  0.00  0.00    +0.000 OA
ATOM     21  H   UNL     1      -1.117   8.957  18.547  0.00  0.00    +0.000 HD
BRANCH  19  22
ATOM     22  C   UNL     1      -2.803  10.561  17.225  0.00  0.00    +0.000 C 
ATOM     23  C   UNL     1      -3.875  11.637  17.437  0.00  0.00    +0.000 C 
ATOM     24  C   UNL     1      -2.663  10.280  15.726  0.00  0.00    +0.000 C 
BRANCH  22  25
ATOM     25  N   UNL     1      -3.331   9.313  17.838  0.00  0.00    +0.000 NA
ATOM     26  H   UNL     1      -3.802   9.570  18.709  0.00  0.00    +0.000 HD
ATOM     27  H   UNL     1      -2.528   8.766  18.158  0.00  0.00    +0.000 HD
ENDBRANCH  22  25
ENDBRANCH  19  22
ENDBRANCH   1  18
BRANCH   1  28
ATOM     28  C   UNL     1       1.859   9.023  18.454  0.00  0.00    +0.000 C 
BRANCH  28  29
ATOM     29  C   UNL     1       1.966   7.335  18.388  0.00  0.00    +0.000 A 
ATOM     30  C   UNL     1       2.350   7.191  19.754  0.00  0.00    +0.000 A 
ATOM     31  N   UNL     1       3.540   6.476  19.606  0.00  0.00    +0.000 N 
ATOM     32  C   UNL     1       2.972   5.266  19.328  0.00  0.00    +0.000 A 
ATOM     33  C   UNL     1       3.271   3.975  19.781  0.00  0.00    +0.000 A 
ATOM     34  C   UNL     1       2.604   2.930  19.170  0.00  0.00    +0.000 A 
ATOM     35  C   UNL     1       1.760   3.224  18.096  0.00  0.00    +0.000 A 
ATOM     36  C   UNL     1       1.506   4.586  17.642  0.00  0.00    +0.000 A 
ATOM     37  C   UNL     1       2.077   5.734  18.337  0.00  0.00    +0.000 A 
ATOM     38  H   UNL     1       4.192   6.758  18.889  0.00  0.00    +0.000 HD
ENDBRANCH  28  29
ENDBRANCH   1  28
TORSDOF 8
ENDMDL
MODEL 9
REMARK VINA RESULT:      -7.4      1.046      1.446
REMARK  Name = 
REMARK  11 active torsions:
REMARK  status: ('A' for Active; 'I' for Inactive)
REMARK    1  A    between atoms: C_1  and  O_2
REMARK    2  A    between atoms: O_2  and  C_3
REMARK    3  A    between atoms: C_8  and  N_9
REMARK    4  A    between atoms: C_13  and  C_15
REMARK    5  A    between atoms: C_15  and  C_16
REMARK    6  A    between atoms: C_15  and  N_26
REMARK    7  A    between atoms: C_16  and  C_17
REMARK    8  A    between atoms: C_27  and  C_29
REMARK    9  A    between atoms: C_29  and  C_30
REMARK   10  A    between atoms: C_29  and  C_31
REMARK   11  A    between atoms: C_29  and  N_32
REMARK                            x       y       z     vdW  Elec       q    Type
REMARK                         _______ _______ _______ _____ _____    ______ ____
ROOT
ATOM      1  C   UNL     1       1.149   9.930  18.532  0.00  0.00    +0.000 C 
ENDROOT
BRANCH   1   6
ATOM      2  N   UNL     1      -0.802  12.567  22.595  0.00  0.00    +0.000 N 
ATOM      3  C   UNL     1      -0.497  12.879  21.179  0.00  0.00    +0.000 C 
ATOM      4  C   UNL     1       0.802  12.084  20.838  0.00  0.00    +0.000 C 
ATOM      5  N   UNL     1       0.667  10.619  21.057  0.00  0.00    +0.000 N 
ATOM      6  C   UNL     1       0.927   9.579  20.134  0.00  0.00    +0.000 C 
ATOM      7  O   UNL     1       0.716   8.413  20.494  0.00  0.00    +0.000 OA
ATOM      8  C   UNL     1       0.170  10.297  22.427  0.00  0.00    +0.000 C 
ATOM      9  C   UNL     1      -1.100  11.126  22.737  0.00  0.00    +0.000 C 
BRANCH   2  15
ATOM     10  C   UNL     1      -1.265  14.680  23.849  0.00  0.00    +0.000 A 
ATOM     11  C   UNL     1      -2.189  15.423  24.594  0.00  0.00    +0.000 A 
ATOM     12  C   UNL     1      -3.421  14.910  24.956  0.00  0.00    +0.000 A 
ATOM     13  C   UNL     1      -3.749  13.618  24.592  0.00  0.00    +0.000 A 
ATOM     14  C   UNL     1      -2.856  12.866  23.818  0.00  0.00    +0.000 A 
ATOM     15  C   UNL     1      -1.599  13.384  23.404  0.00  0.00    +0.000 A 
BRANCH  10  17
ATOM     16  C   UNL     1       0.155  16.562  23.965  0.00  0.00    +0.000 C 
ATOM     17  O   UNL     1      -0.021  15.198  23.580  0.00  0.00    +0.000 OA
ENDBRANCH  10  17
ENDBRANCH   2  15
ENDBRANCH   1   6
BRANCH   1  18
ATOM     18  N   UNL     1      -0.276   9.949  18.103  0.00  0.00    +0.000 N 
ATOM     19  C   UNL     1      -0.966  11.106  17.833  0.00  0.00    +0.000 C 
ATOM     20  O   UNL     1      -0.411  12.206  17.904  0.00  0.00    +0.000 OA
ATOM     21  H   UNL     1      -0.816   9.126  18.358  0.00  0.00    +0.000 HD
BRANCH  19  22
ATOM     22  C   UNL     1      -2.481  10.972  17.366  0.00  0.00    +0.000 C 
ATOM     23  C   UNL     1      -2.937   9.514  17.237  0.00  0.00    +0.000 C 
ATOM     24  C   UNL     1      -3.483  11.738  18.235  0.00  0.00    +0.000 C 
BRANCH  22  25
ATOM     25  N   UNL     1      -2.570  11.564  16.004  0.00  0.00    +0.000 NA
ATOM     26  H   UNL     1      -2.968  12.500  16.098  0.00  0.00    +0.000 HD
ATOM     27  H   UNL     1      -3.294  11.051  15.494  0.00  0.00    +0.000 HD
ENDBRANCH  22  25
ENDBRANCH  19  22
ENDBRANCH   1  18
BRANCH   1  28
ATOM     28  C   UNL     1       2.102   8.889  17.615  0.00  0.00    +0.000 C 
BRANCH  28  29
ATOM     29  C   UNL     1       3.065   7.577  18.080  0.00  0.00    +0.000 A 
ATOM     30  C   UNL     1       1.997   6.633  18.042  0.00  0.00    +0.000 A 
ATOM     31  N   UNL     1       2.069   6.121  19.339  0.00  0.00    +0.000 N 
ATOM     32  C   UNL     1       3.168   5.333  19.145  0.00  0.00    +0.000 A 
ATOM     33  C   UNL     1       3.453   4.022  19.546  0.00  0.00    +0.000 A 
ATOM     34  C   UNL     1       4.741   3.571  19.329  0.00  0.00    +0.000 A 
ATOM     35  C   UNL     1       5.680   4.471  18.818  0.00  0.00    +0.000 A 
ATOM     36  C   UNL     1       5.338   5.839  18.445  0.00  0.00    +0.000 A 
ATOM     37  C   UNL     1       3.966   6.326  18.525  0.00  0.00    +0.000 A 
ATOM     38  H   UNL     1       2.197   6.760  20.110  0.00  0.00    +0.000 HD
ENDBRANCH  28  29
ENDBRANCH   1  28
TORSDOF 8
ENDMDL
