MODEL 1
REMARK VINA RESULT:      -6.8      0.000      0.000
REMARK  Name = 
REMARK  7 active torsions:
REMARK  status: ('A' for Active; 'I' for Inactive)
REMARK    1  A    between atoms: C_1  and  N_2
REMARK    2  A    between atoms: C_5  and  N_6
REMARK    3  A    between atoms: C_11  and  O_12
REMARK    4  A    between atoms: O_12  and  C_13
REMARK    5  A    between atoms: C_13  and  C_14
REMARK    6  A    between atoms: N_16  and  C_17
REMARK    7  A    between atoms: N_16  and  C_18
REMARK                            x       y       z     vdW  Elec       q    Type
REMARK                         _______ _______ _______ _____ _____    ______ ____
ROOT
ATOM      1  N   UNL     1       2.590   5.770  19.364  0.00  0.00    +0.000 NA
ATOM      2  C   UNL     1       2.009   5.123  20.557  0.00  0.00    +0.000 C 
ATOM      3  C   UNL     1       2.100   3.591  20.640  0.00  0.00    +0.000 C 
ATOM      4  O   UNL     1       1.150   2.996  19.760  0.00  0.00    +0.000 OA
ATOM      5  C   UNL     1       1.666   2.670  18.474  0.00  0.00    +0.000 C 
ATOM      6  C   UNL     1       2.607   3.705  17.828  0.00  0.00    +0.000 C 
ATOM      7  C   UNL     1       2.131   5.162  18.096  0.00  0.00    +0.000 C 
ENDROOT
BRANCH   1  12
ATOM      8  C   UNL     1       0.572  11.144  19.115  0.00  0.00    +0.000 C 
ATOM      9  N   UNL     1       0.854   9.710  19.104  0.00  0.00    +0.000 NA
ATOM     10  C   UNL     1       1.868   9.388  18.092  0.00  0.00    +0.000 C 
ATOM     11  C   UNL     1       2.077   7.876  17.996  0.00  0.00    +0.000 C 
ATOM     12  C   UNL     1       2.437   7.254  19.359  0.00  0.00    +0.000 C 
ATOM     13  C   UNL     1       1.448   7.725  20.441  0.00  0.00    +0.000 C 
ATOM     14  C   UNL     1       1.281   9.247  20.429  0.00  0.00    +0.000 C 
ENDBRANCH   1  12
BRANCH   6  15
ATOM     15  O   UNL     1       3.981   3.576  18.248  0.00  0.00    +0.000 OA
BRANCH  15  16
ATOM     16  C   UNL     1       4.958   3.858  17.257  0.00  0.00    +0.000 C 
BRANCH  16  17
ATOM     17  C   UNL     1       6.086   4.806  17.690  0.00  0.00    +0.000 C 
ATOM     18  O   UNL     1       6.956   4.401  18.467  0.00  0.00    +0.000 OA
ATOM     19  N   UNL     1       6.087   6.086  17.161  0.00  0.00    +0.000 N 
ATOM     20  C   UNL     1       5.109   6.591  16.203  0.00  0.00    +0.000 C 
ATOM     21  C   UNL     1       7.177   6.988  17.490  0.00  0.00    +0.000 C 
ENDBRANCH  16  17
ENDBRANCH  15  16
ENDBRANCH   6  15
TORSDOF 4
ENDMDL
MODEL 2
REMARK VINA RESULT:      -6.8      1.326      1.525
REMARK  Name = 
REMARK  7 active torsions:
REMARK  status: ('A' for Active; 'I' for Inactive)
REMARK    1  A    between atoms: C_1  and  N_2
REMARK    2  A    between atoms: C_5  and  N_6
REMARK    3  A    between atoms: C_11  and  O_12
REMARK    4  A    between atoms: O_12  and  C_13
REMARK    5  A    between atoms: C_13  and  C_14
REMARK    6  A    between atoms: N_16  and  C_17
REMARK    7  A    between atoms: N_16  and  C_18
REMARK                            x       y       z     vdW  Elec       q    Type
REMARK                         _______ _______ _______ _____ _____    ______ ____
ROOT
ATOM      1  N   UNL     1       3.233   5.348  18.982  0.00  0.00    +0.000 NA
ATOM      2  C   UNL     1       3.078   4.445  20.141  0.00  0.00    +0.000 C 
ATOM      3  C   UNL     1       3.412   2.961  19.925  0.00  0.00    +0.000 C 
ATOM      4  O   UNL     1       2.368   2.326  19.193  0.00  0.00    +0.000 OA
ATOM      5  C   UNL     1       2.579   2.282  17.786  0.00  0.00    +0.000 C 
ATOM      6  C   UNL     1       3.160   3.554  17.138  0.00  0.00    +0.000 C 
ATOM      7  C   UNL     1       2.559   4.845  17.765  0.00  0.00    +0.000 C 
ENDROOT
BRANCH   1  12
ATOM      8  C   UNL     1       0.455  10.312  19.796  0.00  0.00    +0.000 C 
ATOM      9  N   UNL     1       0.943   8.966  19.498  0.00  0.00    +0.000 NA
ATOM     10  C   UNL     1       1.984   9.009  18.464  0.00  0.00    +0.000 C 
ATOM     11  C   UNL     1       2.409   7.595  18.064  0.00  0.00    +0.000 C 
ATOM     12  C   UNL     1       2.866   6.763  19.278  0.00  0.00    +0.000 C 
ATOM     13  C   UNL     1       1.827   6.854  20.412  0.00  0.00    +0.000 C 
ATOM     14  C   UNL     1       1.442   8.306  20.709  0.00  0.00    +0.000 C 
ENDBRANCH   1  12
BRANCH   6  15
ATOM     15  O   UNL     1       4.600   3.627  17.202  0.00  0.00    +0.000 OA
BRANCH  15  16
ATOM     16  C   UNL     1       5.238   4.220  16.081  0.00  0.00    +0.000 C 
BRANCH  16  17
ATOM     17  C   UNL     1       5.791   5.635  16.304  0.00  0.00    +0.000 C 
ATOM     18  O   UNL     1       5.205   6.601  15.807  0.00  0.00    +0.000 OA
ATOM     19  N   UNL     1       6.927   5.763  17.086  0.00  0.00    +0.000 N 
ATOM     20  C   UNL     1       7.622   4.656  17.733  0.00  0.00    +0.000 C 
ATOM     21  C   UNL     1       7.438   7.091  17.379  0.00  0.00    +0.000 C 
ENDBRANCH  16  17
ENDBRANCH  15  16
ENDBRANCH   6  15
TORSDOF 4
ENDMDL
MODEL 3
REMARK VINA RESULT:      -6.7      1.095      1.102
REMARK  Name = 
REMARK  7 active torsions:
REMARK  status: ('A' for Active; 'I' for Inactive)
REMARK    1  A    between atoms: C_1  and  N_2
REMARK    2  A    between atoms: C_5  and  N_6
REMARK    3  A    between atoms: C_11  and  O_12
REMARK    4  A    between atoms: O_12  and  C_13
REMARK    5  A    between atoms: C_13  and  C_14
REMARK    6  A    between atoms: N_16  and  C_17
REMARK    7  A    between atoms: N_16  and  C_18
REMARK                            x       y       z     vdW  Elec       q    Type
REMARK                         _______ _______ _______ _____ _____    ______ ____
ROOT
ATOM      1  N   UNL     1       2.453   5.277  19.539  0.00  0.00    +0.000 NA
ATOM      2  C   UNL     1       2.039   4.733  20.848  0.00  0.00    +0.000 C 
ATOM      3  C   UNL     1       1.972   3.204  20.985  0.00  0.00    +0.000 C 
ATOM      4  O   UNL     1       0.813   2.704  20.324  0.00  0.00    +0.000 OA
ATOM      5  C   UNL     1       1.038   2.286  18.982  0.00  0.00    +0.000 C 
ATOM      6  C   UNL     1       1.949   3.186  18.125  0.00  0.00    +0.000 C 
ATOM      7  C   UNL     1       1.699   4.696  18.407  0.00  0.00    +0.000 C 
ENDROOT
BRANCH   1  12
ATOM      8  C   UNL     1       1.077  10.831  19.020  0.00  0.00    +0.000 C 
ATOM      9  N   UNL     1       1.197   9.375  19.061  0.00  0.00    +0.000 NA
ATOM     10  C   UNL     1       2.244   8.914  18.142  0.00  0.00    +0.000 C 
ATOM     11  C   UNL     1       2.289   7.387  18.092  0.00  0.00    +0.000 C 
ATOM     12  C   UNL     1       2.468   6.767  19.492  0.00  0.00    +0.000 C 
ATOM     13  C   UNL     1       1.455   7.376  20.481  0.00  0.00    +0.000 C 
ATOM     14  C   UNL     1       1.462   8.906  20.426  0.00  0.00    +0.000 C 
ENDBRANCH   1  12
BRANCH   6  15
ATOM     15  O   UNL     1       3.356   2.906  18.291  0.00  0.00    +0.000 OA
BRANCH  15  16
ATOM     16  C   UNL     1       4.234   3.638  17.449  0.00  0.00    +0.000 C 
BRANCH  16  17
ATOM     17  C   UNL     1       5.523   4.141  18.115  0.00  0.00    +0.000 C 
ATOM     18  O   UNL     1       5.583   4.215  19.346  0.00  0.00    +0.000 OA
ATOM     19  N   UNL     1       6.585   4.471  17.289  0.00  0.00    +0.000 N 
ATOM     20  C   UNL     1       6.577   4.353  15.835  0.00  0.00    +0.000 C 
ATOM     21  C   UNL     1       7.845   4.882  17.885  0.00  0.00    +0.000 C 
ENDBRANCH  16  17
ENDBRANCH  15  16
ENDBRANCH   6  15
TORSDOF 4
ENDMDL
MODEL 4
REMARK VINA RESULT:      -6.5      1.457      4.228
REMARK  Name = 
REMARK  7 active torsions:
REMARK  status: ('A' for Active; 'I' for Inactive)
REMARK    1  A    between atoms: C_1  and  N_2
REMARK    2  A    between atoms: C_5  and  N_6
REMARK    3  A    between atoms: C_11  and  O_12
REMARK    4  A    between atoms: O_12  and  C_13
REMARK    5  A    between atoms: C_13  and  C_14
REMARK    6  A    between atoms: N_16  and  C_17
REMARK    7  A    between atoms: N_16  and  C_18
REMARK                            x       y       z     vdW  Elec       q    Type
REMARK                         _______ _______ _______ _____ _____    ______ ____
ROOT
ATOM      1  N   UNL     1       3.616   6.168  17.835  0.00  0.00    +0.000 NA
ATOM      2  C   UNL     1       4.475   6.869  16.859  0.00  0.00    +0.000 C 
ATOM      3  C   UNL     1       5.666   6.087  16.283  0.00  0.00    +0.000 C 
ATOM      4  O   UNL     1       6.707   5.999  17.252  0.00  0.00    +0.000 OA
ATOM      5  C   UNL     1       6.678   4.814  18.039  0.00  0.00    +0.000 C 
ATOM      6  C   UNL     1       5.292   4.338  18.515  0.00  0.00    +0.000 C 
ATOM      7  C   UNL     1       4.384   5.532  18.927  0.00  0.00    +0.000 C 
ENDROOT
BRANCH   1  12
ATOM      8  C   UNL     1       0.434  10.288  20.267  0.00  0.00    +0.000 C 
ATOM      9  N   UNL     1       1.439   9.363  19.748  0.00  0.00    +0.000 NA
ATOM     10  C   UNL     1       1.271   8.029  20.339  0.00  0.00    +0.000 C 
ATOM     11  C   UNL     1       2.394   7.093  19.890  0.00  0.00    +0.000 C 
ATOM     12  C   UNL     1       2.499   7.010  18.355  0.00  0.00    +0.000 C 
ATOM     13  C   UNL     1       2.522   8.423  17.742  0.00  0.00    +0.000 C 
ATOM     14  C   UNL     1       1.383   9.291  18.284  0.00  0.00    +0.000 C 
ENDBRANCH   1  12
BRANCH   6  15
ATOM     15  O   UNL     1       4.594   3.532  17.543  0.00  0.00    +0.000 OA
BRANCH  15  16
ATOM     16  C   UNL     1       3.755   2.516  18.071  0.00  0.00    +0.000 C 
BRANCH  16  17
ATOM     17  C   UNL     1       2.342   2.964  18.471  0.00  0.00    +0.000 C 
ATOM     18  O   UNL     1       1.520   3.238  17.592  0.00  0.00    +0.000 OA
ATOM     19  N   UNL     1       2.045   3.019  19.823  0.00  0.00    +0.000 N 
ATOM     20  C   UNL     1       2.968   2.658  20.893  0.00  0.00    +0.000 C 
ATOM     21  C   UNL     1       0.698   3.370  20.238  0.00  0.00    +0.000 C 
ENDBRANCH  16  17
ENDBRANCH  15  16
ENDBRANCH   6  15
TORSDOF 4
ENDMDL
MODEL 5
REMARK VINA RESULT:      -6.4      2.219      2.741
REMARK  Name = 
REMARK  7 active torsions:
REMARK  status: ('A' for Active; 'I' for Inactive)
REMARK    1  A    between atoms: C_1  and  N_2
REMARK    2  A    between atoms: C_5  and  N_6
REMARK    3  A    between atoms: C_11  and  O_12
REMARK    4  A    between atoms: O_12  and  C_13
REMARK    5  A    between atoms: C_13  and  C_14
REMARK    6  A    between atoms: N_16  and  C_17
REMARK    7  A    between atoms: N_16  and  C_18
REMARK                            x       y       z     vdW  Elec       q    Type
REMARK                         _______ _______ _______ _____ _____    ______ ____
ROOT
ATOM      1  N   UNL     1       3.277   6.056  18.314  0.00  0.00    +0.000 NA
ATOM      2  C   UNL     1       4.128   5.743  19.480  0.00  0.00    +0.000 C 
ATOM      3  C   UNL     1       5.202   4.659  19.294  0.00  0.00    +0.000 C 
ATOM      4  O   UNL     1       4.599   3.368  19.289  0.00  0.00    +0.000 OA
ATOM      5  C   UNL     1       4.284   2.872  17.993  0.00  0.00    +0.000 C 
ATOM      6  C   UNL     1       3.684   3.884  16.997  0.00  0.00    +0.000 C 
ATOM      7  C   UNL     1       2.685   4.852  17.691  0.00  0.00    +0.000 C 
ENDROOT
BRANCH   1  12
ATOM      8  C   UNL     1       0.523  10.908  19.691  0.00  0.00    +0.000 C 
ATOM      9  N   UNL     1       1.429   9.793  19.423  0.00  0.00    +0.000 NA
ATOM     10  C   UNL     1       1.090   8.636  20.261  0.00  0.00    +0.000 C 
ATOM     11  C   UNL     1       2.109   7.512  20.072  0.00  0.00    +0.000 C 
ATOM     12  C   UNL     1       2.250   7.102  18.593  0.00  0.00    +0.000 C 
ATOM     13  C   UNL     1       2.456   8.348  17.710  0.00  0.00    +0.000 C 
ATOM     14  C   UNL     1       1.410   9.426  18.003  0.00  0.00    +0.000 C 
ENDBRANCH   1  12
BRANCH   6  15
ATOM     15  O   UNL     1       4.679   4.660  16.295  0.00  0.00    +0.000 OA
BRANCH  15  16
ATOM     16  C   UNL     1       5.737   3.919  15.706  0.00  0.00    +0.000 C 
BRANCH  16  17
ATOM     17  C   UNL     1       6.785   4.748  14.950  0.00  0.00    +0.000 C 
ATOM     18  O   UNL     1       7.491   5.548  15.570  0.00  0.00    +0.000 OA
ATOM     19  N   UNL     1       6.906   4.538  13.585  0.00  0.00    +0.000 N 
ATOM     20  C   UNL     1       6.128   3.570  12.820  0.00  0.00    +0.000 C 
ATOM     21  C   UNL     1       7.934   5.251  12.848  0.00  0.00    +0.000 C 
ENDBRANCH  16  17
ENDBRANCH  15  16
ENDBRANCH   6  15
TORSDOF 4
ENDMDL
MODEL 6
REMARK VINA RESULT:      -6.4      1.308      1.922
REMARK  Name = 
REMARK  7 active torsions:
REMARK  status: ('A' for Active; 'I' for Inactive)
REMARK    1  A    between atoms: C_1  and  N_2
REMARK    2  A    between atoms: C_5  and  N_6
REMARK    3  A    between atoms: C_11  and  O_12
REMARK    4  A    between atoms: O_12  and  C_13
REMARK    5  A    between atoms: C_13  and  C_14
REMARK    6  A    between atoms: N_16  and  C_17
REMARK    7  A    between atoms: N_16  and  C_18
REMARK                            x       y       z     vdW  Elec       q    Type
REMARK                         _______ _______ _______ _____ _____    ______ ____
ROOT
ATOM      1  N   UNL     1       2.864   5.618  19.013  0.00  0.00    +0.000 NA
ATOM      2  C   UNL     1       2.510   4.745  20.151  0.00  0.00    +0.000 C 
ATOM      3  C   UNL     1       3.271   3.416  20.280  0.00  0.00    +0.000 C 
ATOM      4  O   UNL     1       2.794   2.483  19.315  0.00  0.00    +0.000 OA
ATOM      5  C   UNL     1       3.538   2.460  18.102  0.00  0.00    +0.000 C 
ATOM      6  C   UNL     1       3.976   3.826  17.538  0.00  0.00    +0.000 C 
ATOM      7  C   UNL     1       2.869   4.905  17.717  0.00  0.00    +0.000 C 
ENDROOT
BRANCH   1  12
ATOM      8  C   UNL     1       1.085  11.081  19.081  0.00  0.00    +0.000 C 
ATOM      9  N   UNL     1       1.755   9.784  19.148  0.00  0.00    +0.000 NA
ATOM     10  C   UNL     1       1.109   8.917  20.141  0.00  0.00    +0.000 C 
ATOM     11  C   UNL     1       1.881   7.606  20.299  0.00  0.00    +0.000 C 
ATOM     12  C   UNL     1       2.060   6.873  18.955  0.00  0.00    +0.000 C 
ATOM     13  C   UNL     1       2.598   7.842  17.885  0.00  0.00    +0.000 C 
ATOM     14  C   UNL     1       1.781   9.136  17.832  0.00  0.00    +0.000 C 
ENDBRANCH   1  12
BRANCH   6  15
ATOM     15  O   UNL     1       5.206   4.318  18.110  0.00  0.00    +0.000 OA
BRANCH  15  16
ATOM     16  C   UNL     1       6.270   4.530  17.195  0.00  0.00    +0.000 C 
BRANCH  16  17
ATOM     17  C   UNL     1       6.615   5.998  16.909  0.00  0.00    +0.000 C 
ATOM     18  O   UNL     1       6.147   6.549  15.908  0.00  0.00    +0.000 OA
ATOM     19  N   UNL     1       7.432   6.654  17.815  0.00  0.00    +0.000 N 
ATOM     20  C   UNL     1       7.968   6.059  19.035  0.00  0.00    +0.000 C 
ATOM     21  C   UNL     1       7.722   8.064  17.617  0.00  0.00    +0.000 C 
ENDBRANCH  16  17
ENDBRANCH  15  16
ENDBRANCH   6  15
TORSDOF 4
ENDMDL
MODEL 7
REMARK VINA RESULT:      -6.4      1.570      4.218
REMARK  Name = 
REMARK  7 active torsions:
REMARK  status: ('A' for Active; 'I' for Inactive)
REMARK    1  A    between atoms: C_1  and  N_2
REMARK    2  A    between atoms: C_5  and  N_6
REMARK    3  A    between atoms: C_11  and  O_12
REMARK    4  A    between atoms: O_12  and  C_13
REMARK    5  A    between atoms: C_13  and  C_14
REMARK    6  A    between atoms: N_16  and  C_17
REMARK    7  A    between atoms: N_16  and  C_18
REMARK                            x       y       z     vdW  Elec       q    Type
REMARK                         _______ _______ _______ _____ _____    ______ ____
ROOT
ATOM      1  N   UNL     1       4.004   6.441  17.504  0.00  0.00    +0.000 NA
ATOM      2  C   UNL     1       4.655   7.000  16.302  0.00  0.00    +0.000 C 
ATOM      3  C   UNL     1       5.402   6.017  15.386  0.00  0.00    +0.000 C 
ATOM      4  O   UNL     1       6.643   5.644  15.979  0.00  0.00    +0.000 OA
ATOM      5  C   UNL     1       6.590   4.444  16.744  0.00  0.00    +0.000 C 
ATOM      6  C   UNL     1       5.349   4.251  17.636  0.00  0.00    +0.000 C 
ATOM      7  C   UNL     1       4.906   5.585  18.304  0.00  0.00    +0.000 C 
ENDROOT
BRANCH   1  12
ATOM      8  C   UNL     1       0.163   9.649  20.328  0.00  0.00    +0.000 C 
ATOM      9  N   UNL     1       0.939   8.721  19.507  0.00  0.00    +0.000 NA
ATOM     10  C   UNL     1       1.731   9.450  18.509  0.00  0.00    +0.000 C 
ATOM     11  C   UNL     1       2.449   8.478  17.571  0.00  0.00    +0.000 C 
ATOM     12  C   UNL     1       3.322   7.469  18.343  0.00  0.00    +0.000 C 
ATOM     13  C   UNL     1       2.514   6.824  19.484  0.00  0.00    +0.000 C 
ATOM     14  C   UNL     1       1.804   7.878  20.339  0.00  0.00    +0.000 C 
ENDBRANCH   1  12
BRANCH   6  15
ATOM     15  O   UNL     1       4.222   3.680  16.938  0.00  0.00    +0.000 OA
BRANCH  15  16
ATOM     16  C   UNL     1       3.484   2.702  17.655  0.00  0.00    +0.000 C 
BRANCH  16  17
ATOM     17  C   UNL     1       2.203   3.206  18.335  0.00  0.00    +0.000 C 
ATOM     18  O   UNL     1       1.253   3.582  17.641  0.00  0.00    +0.000 OA
ATOM     19  N   UNL     1       2.163   3.192  19.719  0.00  0.00    +0.000 N 
ATOM     20  C   UNL     1       3.240   2.711  20.578  0.00  0.00    +0.000 C 
ATOM     21  C   UNL     1       0.943   3.593  20.397  0.00  0.00    +0.000 C 
ENDBRANCH  16  17
ENDBRANCH  15  16
ENDBRANCH   6  15
TORSDOF 4
ENDMDL
MODEL 8
REMARK VINA RESULT:      -6.4      1.632      4.045
REMARK  Name = 
REMARK  7 active torsions:
REMARK  status: ('A' for Active; 'I' for Inactive)
REMARK    1  A    between atoms: C_1  and  N_2
REMARK    2  A    between atoms: C_5  and  N_6
REMARK    3  A    between atoms: C_11  and  O_12
REMARK    4  A    between atoms: O_12  and  C_13
REMARK    5  A    between atoms: C_13  and  C_14
REMARK    6  A    between atoms: N_16  and  C_17
REMARK    7  A    between atoms: N_16  and  C_18
REMARK                            x       y       z     vdW  Elec       q    Type
REMARK                         _______ _______ _______ _____ _____    ______ ____
ROOT
ATOM      1  N   UNL     1       3.381   6.339  18.040  0.00  0.00    +0.000 NA
ATOM      2  C   UNL     1       4.300   6.983  17.080  0.00  0.00    +0.000 C 
ATOM      3  C   UNL     1       5.486   6.147  16.574  0.00  0.00    +0.000 C 
ATOM      4  O   UNL     1       6.485   6.051  17.585  0.00  0.00    +0.000 OA
ATOM      5  C   UNL     1       6.384   4.890  18.402  0.00  0.00    +0.000 C 
ATOM      6  C   UNL     1       4.965   4.474  18.835  0.00  0.00    +0.000 C 
ATOM      7  C   UNL     1       4.083   5.709  19.179  0.00  0.00    +0.000 C 
ENDROOT
BRANCH   1  12
ATOM      8  C   UNL     1       0.248  10.680  20.129  0.00  0.00    +0.000 C 
ATOM      9  N   UNL     1       1.242   9.705  19.685  0.00  0.00    +0.000 NA
ATOM     10  C   UNL     1       1.068   8.429  20.389  0.00  0.00    +0.000 C 
ATOM     11  C   UNL     1       2.180   7.447  20.016  0.00  0.00    +0.000 C 
ATOM     12  C   UNL     1       2.274   7.232  18.493  0.00  0.00    +0.000 C 
ATOM     13  C   UNL     1       2.304   8.587  17.761  0.00  0.00    +0.000 C 
ATOM     14  C   UNL     1       1.176   9.508  18.232  0.00  0.00    +0.000 C 
ENDBRANCH   1  12
BRANCH   6  15
ATOM     15  O   UNL     1       4.278   3.665  17.857  0.00  0.00    +0.000 OA
BRANCH  15  16
ATOM     16  C   UNL     1       3.759   2.432  18.332  0.00  0.00    +0.000 C 
BRANCH  16  17
ATOM     17  C   UNL     1       3.420   2.389  19.829  0.00  0.00    +0.000 C 
ATOM     18  O   UNL     1       4.287   2.048  20.639  0.00  0.00    +0.000 OA
ATOM     19  N   UNL     1       2.141   2.763  20.208  0.00  0.00    +0.000 N 
ATOM     20  C   UNL     1       1.101   3.218  19.292  0.00  0.00    +0.000 C 
ATOM     21  C   UNL     1       1.804   2.804  21.621  0.00  0.00    +0.000 C 
ENDBRANCH  16  17
ENDBRANCH  15  16
ENDBRANCH   6  15
TORSDOF 4
ENDMDL
MODEL 9
REMARK VINA RESULT:      -6.4      1.140      1.681
REMARK  Name = 
REMARK  7 active torsions:
REMARK  status: ('A' for Active; 'I' for Inactive)
REMARK    1  A    between atoms: C_1  and  N_2
REMARK    2  A    between atoms: C_5  and  N_6
REMARK    3  A    between atoms: C_11  and  O_12
REMARK    4  A    between atoms: O_12  and  C_13
REMARK    5  A    between atoms: C_13  and  C_14
REMARK    6  A    between atoms: N_16  and  C_17
REMARK    7  A    between atoms: N_16  and  C_18
REMARK                            x       y       z     vdW  Elec       q    Type
REMARK                         _______ _______ _______ _____ _____    ______ ____
ROOT
ATOM      1  N   UNL     1       2.607   5.883  19.687  0.00  0.00    +0.000 NA
ATOM      2  C   UNL     1       1.998   5.019  20.718  0.00  0.00    +0.000 C 
ATOM      3  C   UNL     1       2.730   3.712  21.062  0.00  0.00    +0.000 C 
ATOM      4  O   UNL     1       2.529   2.752  20.028  0.00  0.00    +0.000 OA
ATOM      5  C   UNL     1       3.553   2.730  19.040  0.00  0.00    +0.000 C 
ATOM      6  C   UNL     1       4.089   4.098  18.575  0.00  0.00    +0.000 C 
ATOM      7  C   UNL     1       2.950   5.150  18.449  0.00  0.00    +0.000 C 
ENDROOT
BRANCH   1  12
ATOM      8  C   UNL     1       0.879  11.294  18.821  0.00  0.00    +0.000 C 
ATOM      9  N   UNL     1       1.535  10.021  19.116  0.00  0.00    +0.000 NA
ATOM     10  C   UNL     1       0.853   9.329  20.216  0.00  0.00    +0.000 C 
ATOM     11  C   UNL     1       1.608   8.057  20.606  0.00  0.00    +0.000 C 
ATOM     12  C   UNL     1       1.817   7.116  19.404  0.00  0.00    +0.000 C 
ATOM     13  C   UNL     1       2.394   7.897  18.207  0.00  0.00    +0.000 C 
ATOM     14  C   UNL     1       1.592   9.169  17.923  0.00  0.00    +0.000 C 
ENDBRANCH   1  12
BRANCH   6  15
ATOM     15  O   UNL     1       5.127   4.629  19.425  0.00  0.00    +0.000 OA
BRANCH  15  16
ATOM     16  C   UNL     1       6.006   5.562  18.816  0.00  0.00    +0.000 C 
BRANCH  16  17
ATOM     17  C   UNL     1       6.829   5.025  17.636  0.00  0.00    +0.000 C 
ATOM     18  O   UNL     1       7.763   4.247  17.850  0.00  0.00    +0.000 OA
ATOM     19  N   UNL     1       6.462   5.427  16.362  0.00  0.00    +0.000 N 
ATOM     20  C   UNL     1       5.336   6.304  16.058  0.00  0.00    +0.000 C 
ATOM     21  C   UNL     1       7.170   4.883  15.216  0.00  0.00    +0.000 C 
ENDBRANCH  16  17
ENDBRANCH  15  16
ENDBRANCH   6  15
TORSDOF 4
ENDMDL
