MODEL 1
REMARK VINA RESULT:      -8.3      0.000      0.000
REMARK  Name = 
REMARK  5 active torsions:
REMARK  status: ('A' for Active; 'I' for Inactive)
REMARK    1  A    between atoms: C_2  and  C_5
REMARK    2  A    between atoms: C_8  and  C_9
REMARK    3  A    between atoms: C_9  and  N_10
REMARK    4  A    between atoms: C_12  and  C_13
REMARK    5  A    between atoms: C_20  and  S_21
REMARK                            x       y       z     vdW  Elec       q    Type
REMARK                         _______ _______ _______ _____ _____    ______ ____
ROOT
ATOM      1  N   UNL     1       6.816   5.333  17.767  0.00  0.00    +0.000 N 
ATOM      2  N   UNL     1       6.432   4.468  16.791  0.00  0.00    +0.000 NA
ATOM      3  C   UNL     1       6.826   5.112  15.675  0.00  0.00    +0.000 A 
ATOM      4  N   UNL     1       7.396   6.346  15.914  0.00  0.00    +0.000 NA
ATOM      5  C   UNL     1       7.370   6.451  17.216  0.00  0.00    +0.000 A 
ENDROOT
BRANCH   3   6
ATOM      6  C   UNL     1       6.684   4.609  14.308  0.00  0.00    +0.000 A 
ATOM      7  C   UNL     1       7.590   4.943  13.290  0.00  0.00    +0.000 A 
ATOM      8  C   UNL     1       7.416   4.436  11.993  0.00  0.00    +0.000 A 
ATOM      9  C   UNL     1       6.342   3.599  11.704  0.00  0.00    +0.000 A 
ATOM     10  C   UNL     1       5.434   3.263  12.704  0.00  0.00    +0.000 A 
ATOM     11  C   UNL     1       5.607   3.765  13.995  0.00  0.00    +0.000 A 
ENDBRANCH   3   6
BRANCH   5  12
ATOM     12  S   UNL     1       7.915   7.829  18.095  0.00  0.00    +0.000 S 
ATOM     13  H   UNL     1       8.196   8.577  17.018  0.00  0.00    +0.000 HD
ENDBRANCH   5  12
BRANCH   1  14
ATOM     14  C   UNL     1       6.508   5.068  19.162  0.00  0.00    +0.000 C 
BRANCH  14  18
ATOM     15  C   UNL     1       2.427   3.787  19.896  0.00  0.00    +0.000 A 
ATOM     16  C   UNL     1       3.460   2.846  19.787  0.00  0.00    +0.000 A 
ATOM     17  C   UNL     1       4.774   3.255  19.528  0.00  0.00    +0.000 A 
ATOM     18  C   UNL     1       5.082   4.615  19.372  0.00  0.00    +0.000 A 
ATOM     19  C   UNL     1       4.044   5.555  19.472  0.00  0.00    +0.000 A 
ATOM     20  C   UNL     1       2.732   5.144  19.727  0.00  0.00    +0.000 A 
BRANCH  15  22
ATOM     21  F   UNL     1       0.894   2.618  21.336  0.00  0.00    +0.000 F 
ATOM     22  C   UNL     1       1.010   3.367  20.203  0.00  0.00    +0.000 C 
ATOM     23  F   UNL     1       0.456   2.622  19.206  0.00  0.00    +0.000 F 
ATOM     24  F   UNL     1       0.179   4.432  20.377  0.00  0.00    +0.000 F 
ENDBRANCH  15  22
ENDBRANCH  14  18
ENDBRANCH   1  14
TORSDOF 5
ENDMDL
MODEL 2
REMARK VINA RESULT:      -8.3      0.058      1.273
REMARK  Name = 
REMARK  5 active torsions:
REMARK  status: ('A' for Active; 'I' for Inactive)
REMARK    1  A    between atoms: C_2  and  C_5
REMARK    2  A    between atoms: C_8  and  C_9
REMARK    3  A    between atoms: C_9  and  N_10
REMARK    4  A    between atoms: C_12  and  C_13
REMARK    5  A    between atoms: C_20  and  S_21
REMARK                            x       y       z     vdW  Elec       q    Type
REMARK                         _______ _______ _______ _____ _____    ______ ____
ROOT
ATOM      1  N   UNL     1       6.803   5.356  17.761  0.00  0.00    +0.000 N 
ATOM      2  N   UNL     1       6.417   4.483  16.792  0.00  0.00    +0.000 NA
ATOM      3  C   UNL     1       6.813   5.118  15.671  0.00  0.00    +0.000 A 
ATOM      4  N   UNL     1       7.385   6.353  15.900  0.00  0.00    +0.000 NA
ATOM      5  C   UNL     1       7.359   6.468  17.201  0.00  0.00    +0.000 A 
ENDROOT
BRANCH   3   6
ATOM      6  C   UNL     1       6.670   4.604  14.308  0.00  0.00    +0.000 A 
ATOM      7  C   UNL     1       5.637   3.728  13.941  0.00  0.00    +0.000 A 
ATOM      8  C   UNL     1       5.538   3.262  12.622  0.00  0.00    +0.000 A 
ATOM      9  C   UNL     1       6.466   3.662  11.664  0.00  0.00    +0.000 A 
ATOM     10  C   UNL     1       7.498   4.527  12.015  0.00  0.00    +0.000 A 
ATOM     11  C   UNL     1       7.596   4.993  13.327  0.00  0.00    +0.000 A 
ENDBRANCH   3   6
BRANCH   5  12
ATOM     12  S   UNL     1       7.907   7.852  18.069  0.00  0.00    +0.000 S 
ATOM     13  H   UNL     1       6.915   8.663  17.676  0.00  0.00    +0.000 HD
ENDBRANCH   5  12
BRANCH   1  14
ATOM     14  C   UNL     1       6.494   5.102  19.158  0.00  0.00    +0.000 C 
BRANCH  14  18
ATOM     15  C   UNL     1       2.420   3.801  19.897  0.00  0.00    +0.000 A 
ATOM     16  C   UNL     1       3.457   2.866  19.786  0.00  0.00    +0.000 A 
ATOM     17  C   UNL     1       4.769   3.280  19.526  0.00  0.00    +0.000 A 
ATOM     18  C   UNL     1       5.070   4.642  19.370  0.00  0.00    +0.000 A 
ATOM     19  C   UNL     1       4.028   5.578  19.471  0.00  0.00    +0.000 A 
ATOM     20  C   UNL     1       2.719   5.160  19.729  0.00  0.00    +0.000 A 
BRANCH  15  22
ATOM     21  F   UNL     1       0.152   4.417  20.419  0.00  0.00    +0.000 F 
ATOM     22  C   UNL     1       1.005   3.375  20.207  0.00  0.00    +0.000 C 
ATOM     23  F   UNL     1       0.925   2.596  21.322  0.00  0.00    +0.000 F 
ATOM     24  F   UNL     1       0.452   2.643  19.201  0.00  0.00    +0.000 F 
ENDBRANCH  15  22
ENDBRANCH  14  18
ENDBRANCH   1  14
TORSDOF 5
ENDMDL
MODEL 3
REMARK VINA RESULT:      -8.0      0.152      1.429
REMARK  Name = 
REMARK  5 active torsions:
REMARK  status: ('A' for Active; 'I' for Inactive)
REMARK    1  A    between atoms: C_2  and  C_5
REMARK    2  A    between atoms: C_8  and  C_9
REMARK    3  A    between atoms: C_9  and  N_10
REMARK    4  A    between atoms: C_12  and  C_13
REMARK    5  A    between atoms: C_20  and  S_21
REMARK                            x       y       z     vdW  Elec       q    Type
REMARK                         _______ _______ _______ _____ _____    ______ ____
ROOT
ATOM      1  N   UNL     1       6.825   5.333  17.720  0.00  0.00    +0.000 N 
ATOM      2  N   UNL     1       6.442   4.432  16.777  0.00  0.00    +0.000 NA
ATOM      3  C   UNL     1       6.763   5.070  15.634  0.00  0.00    +0.000 A 
ATOM      4  N   UNL     1       7.284   6.333  15.827  0.00  0.00    +0.000 NA
ATOM      5  C   UNL     1       7.305   6.463  17.126  0.00  0.00    +0.000 A 
ENDROOT
BRANCH   3   6
ATOM      6  C   UNL     1       6.591   4.533  14.283  0.00  0.00    +0.000 A 
ATOM      7  C   UNL     1       5.498   3.726  13.931  0.00  0.00    +0.000 A 
ATOM      8  C   UNL     1       5.373   3.235  12.623  0.00  0.00    +0.000 A 
ATOM      9  C   UNL     1       6.333   3.540  11.662  0.00  0.00    +0.000 A 
ATOM     10  C   UNL     1       7.424   4.337  11.999  0.00  0.00    +0.000 A 
ATOM     11  C   UNL     1       7.548   4.828  13.300  0.00  0.00    +0.000 A 
ENDBRANCH   3   6
BRANCH   5  12
ATOM     12  S   UNL     1       7.821   7.882  17.957  0.00  0.00    +0.000 S 
ATOM     13  H   UNL     1       7.132   8.745  17.196  0.00  0.00    +0.000 HD
ENDBRANCH   5  12
BRANCH   1  14
ATOM     14  C   UNL     1       6.584   5.083  19.131  0.00  0.00    +0.000 C 
BRANCH  14  18
ATOM     15  C   UNL     1       2.486   3.836  19.826  0.00  0.00    +0.000 A 
ATOM     16  C   UNL     1       2.794   5.187  19.620  0.00  0.00    +0.000 A 
ATOM     17  C   UNL     1       4.118   5.596  19.418  0.00  0.00    +0.000 A 
ATOM     18  C   UNL     1       5.163   4.659  19.418  0.00  0.00    +0.000 A 
ATOM     19  C   UNL     1       4.854   3.306  19.634  0.00  0.00    +0.000 A 
ATOM     20  C   UNL     1       3.531   2.902  19.839  0.00  0.00    +0.000 A 
BRANCH  15  22
ATOM     21  F   UNL     1       0.910   2.462  21.019  0.00  0.00    +0.000 F 
ATOM     22  C   UNL     1       1.062   3.374  20.017  0.00  0.00    +0.000 C 
ATOM     23  F   UNL     1       0.547   2.787  18.900  0.00  0.00    +0.000 F 
ATOM     24  F   UNL     1       0.219   4.400  20.319  0.00  0.00    +0.000 F 
ENDBRANCH  15  22
ENDBRANCH  14  18
ENDBRANCH   1  14
TORSDOF 5
ENDMDL
MODEL 4
REMARK VINA RESULT:      -7.9      4.434      7.396
REMARK  Name = 
REMARK  5 active torsions:
REMARK  status: ('A' for Active; 'I' for Inactive)
REMARK    1  A    between atoms: C_2  and  C_5
REMARK    2  A    between atoms: C_8  and  C_9
REMARK    3  A    between atoms: C_9  and  N_10
REMARK    4  A    between atoms: C_12  and  C_13
REMARK    5  A    between atoms: C_20  and  S_21
REMARK                            x       y       z     vdW  Elec       q    Type
REMARK                         _______ _______ _______ _____ _____    ______ ____
ROOT
ATOM      1  N   UNL     1       4.996   5.106  18.618  0.00  0.00    +0.000 N 
ATOM      2  N   UNL     1       4.569   6.378  18.395  0.00  0.00    +0.000 NA
ATOM      3  C   UNL     1       3.347   6.366  18.962  0.00  0.00    +0.000 A 
ATOM      4  N   UNL     1       2.987   5.140  19.486  0.00  0.00    +0.000 NA
ATOM      5  C   UNL     1       4.027   4.387  19.252  0.00  0.00    +0.000 A 
ENDROOT
BRANCH   3   6
ATOM      6  C   UNL     1       2.435   7.508  19.042  0.00  0.00    +0.000 A 
ATOM      7  C   UNL     1       1.779   7.860  20.231  0.00  0.00    +0.000 A 
ATOM      8  C   UNL     1       0.914   8.964  20.261  0.00  0.00    +0.000 A 
ATOM      9  C   UNL     1       0.696   9.719  19.112  0.00  0.00    +0.000 A 
ATOM     10  C   UNL     1       1.338   9.378  17.925  0.00  0.00    +0.000 A 
ATOM     11  C   UNL     1       2.201   8.281  17.894  0.00  0.00    +0.000 A 
ENDBRANCH   3   6
BRANCH   5  12
ATOM     12  S   UNL     1       4.129   2.713  19.649  0.00  0.00    +0.000 S 
ATOM     13  H   UNL     1       4.260   2.893  20.971  0.00  0.00    +0.000 HD
ENDBRANCH   5  12
BRANCH   1  14
ATOM     14  C   UNL     1       6.270   4.644  18.090  0.00  0.00    +0.000 C 
BRANCH  14  18
ATOM     15  C   UNL     1       6.275   3.992  13.799  0.00  0.00    +0.000 A 
ATOM     16  C   UNL     1       7.281   4.756  14.405  0.00  0.00    +0.000 A 
ATOM     17  C   UNL     1       7.271   4.987  15.785  0.00  0.00    +0.000 A 
ATOM     18  C   UNL     1       6.250   4.458  16.591  0.00  0.00    +0.000 A 
ATOM     19  C   UNL     1       5.237   3.700  15.981  0.00  0.00    +0.000 A 
ATOM     20  C   UNL     1       5.250   3.474  14.601  0.00  0.00    +0.000 A 
BRANCH  15  22
ATOM     21  F   UNL     1       6.773   2.475  11.998  0.00  0.00    +0.000 F 
ATOM     22  C   UNL     1       6.287   3.708  12.317  0.00  0.00    +0.000 C 
ATOM     23  F   UNL     1       7.046   4.599  11.619  0.00  0.00    +0.000 F 
ATOM     24  F   UNL     1       5.043   3.769  11.767  0.00  0.00    +0.000 F 
ENDBRANCH  15  22
ENDBRANCH  14  18
ENDBRANCH   1  14
TORSDOF 5
ENDMDL
MODEL 5
REMARK VINA RESULT:      -7.9      1.154      1.741
REMARK  Name = 
REMARK  5 active torsions:
REMARK  status: ('A' for Active; 'I' for Inactive)
REMARK    1  A    between atoms: C_2  and  C_5
REMARK    2  A    between atoms: C_8  and  C_9
REMARK    3  A    between atoms: C_9  and  N_10
REMARK    4  A    between atoms: C_12  and  C_13
REMARK    5  A    between atoms: C_20  and  S_21
REMARK                            x       y       z     vdW  Elec       q    Type
REMARK                         _______ _______ _______ _____ _____    ______ ____
ROOT
ATOM      1  N   UNL     1       5.556   6.302  16.872  0.00  0.00    +0.000 N 
ATOM      2  N   UNL     1       5.181   5.784  15.672  0.00  0.00    +0.000 NA
ATOM      3  C   UNL     1       6.362   5.397  15.153  0.00  0.00    +0.000 A 
ATOM      4  N   UNL     1       7.447   5.689  15.955  0.00  0.00    +0.000 NA
ATOM      5  C   UNL     1       6.912   6.250  17.005  0.00  0.00    +0.000 A 
ENDROOT
BRANCH   3   6
ATOM      6  C   UNL     1       6.548   4.734  13.861  0.00  0.00    +0.000 A 
ATOM      7  C   UNL     1       7.556   5.113  12.962  0.00  0.00    +0.000 A 
ATOM      8  C   UNL     1       7.698   4.448  11.735  0.00  0.00    +0.000 A 
ATOM      9  C   UNL     1       6.838   3.407  11.397  0.00  0.00    +0.000 A 
ATOM     10  C   UNL     1       5.831   3.023  12.278  0.00  0.00    +0.000 A 
ATOM     11  C   UNL     1       5.690   3.683  13.500  0.00  0.00    +0.000 A 
ENDBRANCH   3   6
BRANCH   5  12
ATOM     12  S   UNL     1       7.805   6.874  18.340  0.00  0.00    +0.000 S 
ATOM     13  H   UNL     1       8.935   6.201  18.077  0.00  0.00    +0.000 HD
ENDBRANCH   5  12
BRANCH   1  14
ATOM     14  C   UNL     1       4.581   6.924  17.753  0.00  0.00    +0.000 C 
BRANCH  14  18
ATOM     15  C   UNL     1       2.018   3.944  19.595  0.00  0.00    +0.000 A 
ATOM     16  C   UNL     1       1.601   4.631  18.447  0.00  0.00    +0.000 A 
ATOM     17  C   UNL     1       2.416   5.609  17.863  0.00  0.00    +0.000 A 
ATOM     18  C   UNL     1       3.667   5.920  18.416  0.00  0.00    +0.000 A 
ATOM     19  C   UNL     1       4.079   5.238  19.573  0.00  0.00    +0.000 A 
ATOM     20  C   UNL     1       3.262   4.265  20.155  0.00  0.00    +0.000 A 
BRANCH  15  22
ATOM     21  F   UNL     1      -0.049   2.713  19.622  0.00  0.00    +0.000 F 
ATOM     22  C   UNL     1       1.166   2.867  20.220  0.00  0.00    +0.000 C 
ATOM     23  F   UNL     1       0.905   3.104  21.536  0.00  0.00    +0.000 F 
ATOM     24  F   UNL     1       1.760   1.643  20.173  0.00  0.00    +0.000 F 
ENDBRANCH  15  22
ENDBRANCH  14  18
ENDBRANCH   1  14
TORSDOF 5
ENDMDL
MODEL 6
REMARK VINA RESULT:      -7.8      4.429      7.390
REMARK  Name = 
REMARK  5 active torsions:
REMARK  status: ('A' for Active; 'I' for Inactive)
REMARK    1  A    between atoms: C_2  and  C_5
REMARK    2  A    between atoms: C_8  and  C_9
REMARK    3  A    between atoms: C_9  and  N_10
REMARK    4  A    between atoms: C_12  and  C_13
REMARK    5  A    between atoms: C_20  and  S_21
REMARK                            x       y       z     vdW  Elec       q    Type
REMARK                         _______ _______ _______ _____ _____    ______ ____
ROOT
ATOM      1  N   UNL     1       5.021   5.124  18.569  0.00  0.00    +0.000 N 
ATOM      2  N   UNL     1       4.586   6.388  18.322  0.00  0.00    +0.000 NA
ATOM      3  C   UNL     1       3.373   6.386  18.909  0.00  0.00    +0.000 A 
ATOM      4  N   UNL     1       3.025   5.173  19.468  0.00  0.00    +0.000 NA
ATOM      5  C   UNL     1       4.064   4.417  19.237  0.00  0.00    +0.000 A 
ENDROOT
BRANCH   3   6
ATOM      6  C   UNL     1       2.458   7.527  18.975  0.00  0.00    +0.000 A 
ATOM      7  C   UNL     1       2.181   8.331  17.859  0.00  0.00    +0.000 A 
ATOM      8  C   UNL     1       1.297   9.413  17.968  0.00  0.00    +0.000 A 
ATOM      9  C   UNL     1       0.687   9.703  19.185  0.00  0.00    +0.000 A 
ATOM     10  C   UNL     1       0.956   8.917  20.302  0.00  0.00    +0.000 A 
ATOM     11  C   UNL     1       1.835   7.838  20.194  0.00  0.00    +0.000 A 
ENDBRANCH   3   6
BRANCH   5  12
ATOM     12  S   UNL     1       4.177   2.754  19.672  0.00  0.00    +0.000 S 
ATOM     13  H   UNL     1       4.924   2.950  20.769  0.00  0.00    +0.000 HD
ENDBRANCH   5  12
BRANCH   1  14
ATOM     14  C   UNL     1       6.287   4.653  18.033  0.00  0.00    +0.000 C 
BRANCH  14  18
ATOM     15  C   UNL     1       6.256   3.959  13.748  0.00  0.00    +0.000 A 
ATOM     16  C   UNL     1       7.190   4.833  14.322  0.00  0.00    +0.000 A 
ATOM     17  C   UNL     1       7.188   5.076  15.701  0.00  0.00    +0.000 A 
ATOM     18  C   UNL     1       6.251   4.449  16.536  0.00  0.00    +0.000 A 
ATOM     19  C   UNL     1       5.309   3.582  15.958  0.00  0.00    +0.000 A 
ATOM     20  C   UNL     1       5.312   3.344  14.581  0.00  0.00    +0.000 A 
BRANCH  15  22
ATOM     21  F   UNL     1       7.161   4.406  11.564  0.00  0.00    +0.000 F 
ATOM     22  C   UNL     1       6.261   3.663  12.268  0.00  0.00    +0.000 C 
ATOM     23  F   UNL     1       5.052   3.891  11.684  0.00  0.00    +0.000 F 
ATOM     24  F   UNL     1       6.565   2.363  12.001  0.00  0.00    +0.000 F 
ENDBRANCH  15  22
ENDBRANCH  14  18
ENDBRANCH   1  14
TORSDOF 5
ENDMDL
MODEL 7
REMARK VINA RESULT:      -7.8      1.159      1.858
REMARK  Name = 
REMARK  5 active torsions:
REMARK  status: ('A' for Active; 'I' for Inactive)
REMARK    1  A    between atoms: C_2  and  C_5
REMARK    2  A    between atoms: C_8  and  C_9
REMARK    3  A    between atoms: C_9  and  N_10
REMARK    4  A    between atoms: C_12  and  C_13
REMARK    5  A    between atoms: C_20  and  S_21
REMARK                            x       y       z     vdW  Elec       q    Type
REMARK                         _______ _______ _______ _____ _____    ______ ____
ROOT
ATOM      1  N   UNL     1       5.520   6.313  16.888  0.00  0.00    +0.000 N 
ATOM      2  N   UNL     1       5.120   5.742  15.721  0.00  0.00    +0.000 NA
ATOM      3  C   UNL     1       6.296   5.393  15.163  0.00  0.00    +0.000 A 
ATOM      4  N   UNL     1       7.398   5.757  15.909  0.00  0.00    +0.000 NA
ATOM      5  C   UNL     1       6.882   6.325  16.966  0.00  0.00    +0.000 A 
ENDROOT
BRANCH   3   6
ATOM      6  C   UNL     1       6.458   4.700  13.884  0.00  0.00    +0.000 A 
ATOM      7  C   UNL     1       5.605   3.660  13.483  0.00  0.00    +0.000 A 
ATOM      8  C   UNL     1       5.797   3.024  12.247  0.00  0.00    +0.000 A 
ATOM      9  C   UNL     1       6.836   3.416  11.408  0.00  0.00    +0.000 A 
ATOM     10  C   UNL     1       7.691   4.444  11.796  0.00  0.00    +0.000 A 
ATOM     11  C   UNL     1       7.500   5.079  13.024  0.00  0.00    +0.000 A 
ENDBRANCH   3   6
BRANCH   5  12
ATOM     12  S   UNL     1       7.800   7.029  18.243  0.00  0.00    +0.000 S 
ATOM     13  H   UNL     1       7.865   5.920  18.993  0.00  0.00    +0.000 HD
ENDBRANCH   5  12
BRANCH   1  14
ATOM     14  C   UNL     1       4.555   6.916  17.793  0.00  0.00    +0.000 C 
BRANCH  14  18
ATOM     15  C   UNL     1       1.997   3.903  19.585  0.00  0.00    +0.000 A 
ATOM     16  C   UNL     1       1.629   4.528  18.386  0.00  0.00    +0.000 A 
ATOM     17  C   UNL     1       2.441   5.517  17.817  0.00  0.00    +0.000 A 
ATOM     18  C   UNL     1       3.640   5.901  18.436  0.00  0.00    +0.000 A 
ATOM     19  C   UNL     1       4.003   5.280  19.643  0.00  0.00    +0.000 A 
ATOM     20  C   UNL     1       3.188   4.296  20.210  0.00  0.00    +0.000 A 
BRANCH  15  22
ATOM     21  F   UNL     1       1.681   1.567  20.069  0.00  0.00    +0.000 F 
ATOM     22  C   UNL     1       1.149   2.815  20.198  0.00  0.00    +0.000 C 
ATOM     23  F   UNL     1      -0.095   2.748  19.647  0.00  0.00    +0.000 F 
ATOM     24  F   UNL     1       0.955   2.998  21.533  0.00  0.00    +0.000 F 
ENDBRANCH  15  22
ENDBRANCH  14  18
ENDBRANCH   1  14
TORSDOF 5
ENDMDL
MODEL 8
REMARK VINA RESULT:      -7.8      2.806      3.608
REMARK  Name = 
REMARK  5 active torsions:
REMARK  status: ('A' for Active; 'I' for Inactive)
REMARK    1  A    between atoms: C_2  and  C_5
REMARK    2  A    between atoms: C_8  and  C_9
REMARK    3  A    between atoms: C_9  and  N_10
REMARK    4  A    between atoms: C_12  and  C_13
REMARK    5  A    between atoms: C_20  and  S_21
REMARK                            x       y       z     vdW  Elec       q    Type
REMARK                         _______ _______ _______ _____ _____    ______ ____
ROOT
ATOM      1  N   UNL     1       5.593   4.800  17.780  0.00  0.00    +0.000 N 
ATOM      2  N   UNL     1       5.244   4.517  16.497  0.00  0.00    +0.000 NA
ATOM      3  C   UNL     1       6.408   4.704  15.843  0.00  0.00    +0.000 A 
ATOM      4  N   UNL     1       7.442   5.128  16.654  0.00  0.00    +0.000 NA
ATOM      5  C   UNL     1       6.902   5.179  17.841  0.00  0.00    +0.000 A 
ENDROOT
BRANCH   3   6
ATOM      6  C   UNL     1       6.619   4.503  14.409  0.00  0.00    +0.000 A 
ATOM      7  C   UNL     1       7.589   5.216  13.688  0.00  0.00    +0.000 A 
ATOM      8  C   UNL     1       7.759   4.990  12.314  0.00  0.00    +0.000 A 
ATOM      9  C   UNL     1       6.965   4.058  11.652  0.00  0.00    +0.000 A 
ATOM     10  C   UNL     1       5.996   3.347  12.354  0.00  0.00    +0.000 A 
ATOM     11  C   UNL     1       5.828   3.569  13.722  0.00  0.00    +0.000 A 
ENDBRANCH   3   6
BRANCH   5  12
ATOM     12  S   UNL     1       7.721   5.700  19.265  0.00  0.00    +0.000 S 
ATOM     13  H   UNL     1       8.717   6.332  18.627  0.00  0.00    +0.000 HD
ENDBRANCH   5  12
BRANCH   1  14
ATOM     14  C   UNL     1       4.598   4.801  18.840  0.00  0.00    +0.000 C 
BRANCH  14  18
ATOM     15  C   UNL     1       2.035   8.302  18.704  0.00  0.00    +0.000 A 
ATOM     16  C   UNL     1       1.959   7.404  19.777  0.00  0.00    +0.000 A 
ATOM     17  C   UNL     1       2.768   6.263  19.814  0.00  0.00    +0.000 A 
ATOM     18  C   UNL     1       3.672   5.994  18.774  0.00  0.00    +0.000 A 
ATOM     19  C   UNL     1       3.741   6.889  17.694  0.00  0.00    +0.000 A 
ATOM     20  C   UNL     1       2.928   8.026  17.660  0.00  0.00    +0.000 A 
BRANCH  15  22
ATOM     21  F   UNL     1       1.907  10.689  18.426  0.00  0.00    +0.000 F 
ATOM     22  C   UNL     1       1.192   9.553  18.662  0.00  0.00    +0.000 C 
ATOM     23  F   UNL     1       0.521   9.771  19.828  0.00  0.00    +0.000 F 
ATOM     24  F   UNL     1       0.241   9.505  17.689  0.00  0.00    +0.000 F 
ENDBRANCH  15  22
ENDBRANCH  14  18
ENDBRANCH   1  14
TORSDOF 5
ENDMDL
MODEL 9
REMARK VINA RESULT:      -7.8      2.809      3.740
REMARK  Name = 
REMARK  5 active torsions:
REMARK  status: ('A' for Active; 'I' for Inactive)
REMARK    1  A    between atoms: C_2  and  C_5
REMARK    2  A    between atoms: C_8  and  C_9
REMARK    3  A    between atoms: C_9  and  N_10
REMARK    4  A    between atoms: C_12  and  C_13
REMARK    5  A    between atoms: C_20  and  S_21
REMARK                            x       y       z     vdW  Elec       q    Type
REMARK                         _______ _______ _______ _____ _____    ______ ____
ROOT
ATOM      1  N   UNL     1       5.598   4.818  17.775  0.00  0.00    +0.000 N 
ATOM      2  N   UNL     1       5.231   4.498  16.506  0.00  0.00    +0.000 NA
ATOM      3  C   UNL     1       6.380   4.681  15.827  0.00  0.00    +0.000 A 
ATOM      4  N   UNL     1       7.423   5.136  16.608  0.00  0.00    +0.000 NA
ATOM      5  C   UNL     1       6.903   5.212  17.804  0.00  0.00    +0.000 A 
ENDROOT
BRANCH   3   6
ATOM      6  C   UNL     1       6.569   4.445  14.395  0.00  0.00    +0.000 A 
ATOM      7  C   UNL     1       5.806   3.507  13.683  0.00  0.00    +0.000 A 
ATOM      8  C   UNL     1       6.021   3.316  12.310  0.00  0.00    +0.000 A 
ATOM      9  C   UNL     1       6.995   4.052  11.641  0.00  0.00    +0.000 A 
ATOM     10  C   UNL     1       7.762   4.983  12.337  0.00  0.00    +0.000 A 
ATOM     11  C   UNL     1       7.547   5.176  13.702  0.00  0.00    +0.000 A 
ENDBRANCH   3   6
BRANCH   5  12
ATOM     12  S   UNL     1       7.742   5.779  19.199  0.00  0.00    +0.000 S 
ATOM     13  H   UNL     1       8.407   6.759  18.571  0.00  0.00    +0.000 HD
ENDBRANCH   5  12
BRANCH   1  14
ATOM     14  C   UNL     1       4.622   4.836  18.852  0.00  0.00    +0.000 C 
BRANCH  14  18
ATOM     15  C   UNL     1       2.032   8.315  18.693  0.00  0.00    +0.000 A 
ATOM     16  C   UNL     1       1.935   7.402  19.752  0.00  0.00    +0.000 A 
ATOM     17  C   UNL     1       2.753   6.267  19.795  0.00  0.00    +0.000 A 
ATOM     18  C   UNL     1       3.688   6.021  18.777  0.00  0.00    +0.000 A 
ATOM     19  C   UNL     1       3.777   6.931  17.712  0.00  0.00    +0.000 A 
ATOM     20  C   UNL     1       2.956   8.062  17.671  0.00  0.00    +0.000 A 
BRANCH  15  22
ATOM     21  F   UNL     1       1.876  10.691  18.342  0.00  0.00    +0.000 F 
ATOM     22  C   UNL     1       1.179   9.559  18.646  0.00  0.00    +0.000 C 
ATOM     23  F   UNL     1       0.556   9.813  19.831  0.00  0.00    +0.000 F 
ATOM     24  F   UNL     1       0.188   9.474  17.716  0.00  0.00    +0.000 F 
ENDBRANCH  15  22
ENDBRANCH  14  18
ENDBRANCH   1  14
TORSDOF 5
ENDMDL
