MODEL 1
REMARK VINA RESULT:      -7.0      0.000      0.000
REMARK  Name = 
REMARK  6 active torsions:
REMARK  status: ('A' for Active; 'I' for Inactive)
REMARK    1  A    between atoms: C_1  and  C_2
REMARK    2  A    between atoms: C_2  and  C_3
REMARK    3  A    between atoms: C_3  and  O_4
REMARK    4  A    between atoms: O_4  and  C_5
REMARK    5  A    between atoms: C_8  and  O_9
REMARK    6  A    between atoms: O_9  and  C_10
REMARK                            x       y       z     vdW  Elec       q    Type
REMARK                         _______ _______ _______ _____ _____    ______ ____
ROOT
ATOM      1  C   UNL     1       5.689   4.308  15.462  0.00  0.00    +0.000 A 
ATOM      2  C   UNL     1       6.943   4.907  15.531  0.00  0.00    +0.000 A 
ATOM      3  C   UNL     1       7.387   5.454  16.721  0.00  0.00    +0.000 A 
ATOM      4  C   UNL     1       6.604   5.453  17.884  0.00  0.00    +0.000 A 
ATOM      5  C   UNL     1       5.310   4.880  17.837  0.00  0.00    +0.000 A 
ATOM      6  C   UNL     1       4.345   4.984  18.962  0.00  0.00    +0.000 A 
ATOM      7  O   UNL     1       4.401   5.922  19.759  0.00  0.00    +0.000 OA
ATOM      8  C   UNL     1       3.199   4.079  19.158  0.00  0.00    +0.000 A 
ATOM      9  C   UNL     1       2.609   4.024  20.436  0.00  0.00    +0.000 A 
ATOM     10  C   UNL     1       1.416   3.335  20.644  0.00  0.00    +0.000 A 
ATOM     11  C   UNL     1       0.814   2.686  19.575  0.00  0.00    +0.000 A 
ATOM     12  C   UNL     1       1.419   2.712  18.313  0.00  0.00    +0.000 A 
ATOM     13  C   UNL     1       2.619   3.409  18.091  0.00  0.00    +0.000 A 
ATOM     14  S   UNL     1       3.262   3.476  16.449  0.00  0.00    +0.000 S 
ATOM     15  C   UNL     1       4.867   4.271  16.626  0.00  0.00    +0.000 A 
ENDROOT
BRANCH   4  16
ATOM     16  O   UNL     1       7.343   6.053  18.863  0.00  0.00    +0.000 OA
ATOM     17  C   UNL     1       8.182   7.170  18.667  0.00  0.00    +0.000 C 
ENDBRANCH   4  16
BRANCH   1  18
ATOM     18  O   UNL     1       5.204   3.756  14.292  0.00  0.00    +0.000 OA
BRANCH  18  19
ATOM     19  C   UNL     1       6.091   3.766  13.166  0.00  0.00    +0.000 C 
BRANCH  19  21
ATOM     20  C   UNL     1       4.288   3.394  11.466  0.00  0.00    +0.000 C 
ATOM     21  C   UNL     1       5.572   2.842  12.071  0.00  0.00    +0.000 C 
ENDBRANCH  19  21
ENDBRANCH  18  19
ENDBRANCH   1  18
TORSDOF 4
ENDMDL
MODEL 2
REMARK VINA RESULT:      -6.8      2.404      6.010
REMARK  Name = 
REMARK  6 active torsions:
REMARK  status: ('A' for Active; 'I' for Inactive)
REMARK    1  A    between atoms: C_1  and  C_2
REMARK    2  A    between atoms: C_2  and  C_3
REMARK    3  A    between atoms: C_3  and  O_4
REMARK    4  A    between atoms: O_4  and  C_5
REMARK    5  A    between atoms: C_8  and  O_9
REMARK    6  A    between atoms: O_9  and  C_10
REMARK                            x       y       z     vdW  Elec       q    Type
REMARK                         _______ _______ _______ _____ _____    ______ ____
ROOT
ATOM      1  C   UNL     1       2.625   4.764  20.358  0.00  0.00    +0.000 A 
ATOM      2  C   UNL     1       1.838   5.767  20.916  0.00  0.00    +0.000 A 
ATOM      3  C   UNL     1       1.776   7.014  20.318  0.00  0.00    +0.000 A 
ATOM      4  C   UNL     1       2.504   7.327  19.161  0.00  0.00    +0.000 A 
ATOM      5  C   UNL     1       3.340   6.337  18.589  0.00  0.00    +0.000 A 
ATOM      6  C   UNL     1       4.276   6.624  17.472  0.00  0.00    +0.000 A 
ATOM      7  O   UNL     1       4.727   7.758  17.301  0.00  0.00    +0.000 OA
ATOM      8  C   UNL     1       4.828   5.600  16.570  0.00  0.00    +0.000 A 
ATOM      9  C   UNL     1       5.367   6.023  15.338  0.00  0.00    +0.000 A 
ATOM     10  C   UNL     1       6.068   5.138  14.523  0.00  0.00    +0.000 A 
ATOM     11  C   UNL     1       6.222   3.820  14.929  0.00  0.00    +0.000 A 
ATOM     12  C   UNL     1       5.656   3.392  16.135  0.00  0.00    +0.000 A 
ATOM     13  C   UNL     1       4.952   4.278  16.969  0.00  0.00    +0.000 A 
ATOM     14  S   UNL     1       4.358   3.681  18.520  0.00  0.00    +0.000 S 
ATOM     15  C   UNL     1       3.369   5.036  19.174  0.00  0.00    +0.000 A 
ENDROOT
BRANCH   4  16
ATOM     16  O   UNL     1       2.203   8.619  18.839  0.00  0.00    +0.000 OA
ATOM     17  C   UNL     1       1.430   9.011  17.725  0.00  0.00    +0.000 C 
ENDBRANCH   4  16
BRANCH   1  18
ATOM     18  O   UNL     1       2.722   3.509  20.927  0.00  0.00    +0.000 OA
BRANCH  18  19
ATOM     19  C   UNL     1       1.490   2.805  21.133  0.00  0.00    +0.000 C 
BRANCH  19  21
ATOM     20  C   UNL     1       1.125   2.025  18.780  0.00  0.00    +0.000 C 
ATOM     21  C   UNL     1       0.600   2.915  19.899  0.00  0.00    +0.000 C 
ENDBRANCH  19  21
ENDBRANCH  18  19
ENDBRANCH   1  18
TORSDOF 4
ENDMDL
MODEL 3
REMARK VINA RESULT:      -6.8      3.176      6.701
REMARK  Name = 
REMARK  6 active torsions:
REMARK  status: ('A' for Active; 'I' for Inactive)
REMARK    1  A    between atoms: C_1  and  C_2
REMARK    2  A    between atoms: C_2  and  C_3
REMARK    3  A    between atoms: C_3  and  O_4
REMARK    4  A    between atoms: O_4  and  C_5
REMARK    5  A    between atoms: C_8  and  O_9
REMARK    6  A    between atoms: O_9  and  C_10
REMARK                            x       y       z     vdW  Elec       q    Type
REMARK                         _______ _______ _______ _____ _____    ______ ____
ROOT
ATOM      1  C   UNL     1       2.208   7.009  19.616  0.00  0.00    +0.000 A 
ATOM      2  C   UNL     1       1.500   6.409  20.653  0.00  0.00    +0.000 A 
ATOM      3  C   UNL     1       1.492   5.032  20.783  0.00  0.00    +0.000 A 
ATOM      4  C   UNL     1       2.163   4.190  19.883  0.00  0.00    +0.000 A 
ATOM      5  C   UNL     1       2.866   4.770  18.799  0.00  0.00    +0.000 A 
ATOM      6  C   UNL     1       3.459   3.962  17.703  0.00  0.00    +0.000 A 
ATOM      7  O   UNL     1       2.998   2.857  17.411  0.00  0.00    +0.000 OA
ATOM      8  C   UNL     1       4.536   4.432  16.815  0.00  0.00    +0.000 A 
ATOM      9  C   UNL     1       5.274   3.469  16.099  0.00  0.00    +0.000 A 
ATOM     10  C   UNL     1       6.176   3.849  15.109  0.00  0.00    +0.000 A 
ATOM     11  C   UNL     1       6.356   5.198  14.839  0.00  0.00    +0.000 A 
ATOM     12  C   UNL     1       5.649   6.157  15.574  0.00  0.00    +0.000 A 
ATOM     13  C   UNL     1       4.731   5.784  16.572  0.00  0.00    +0.000 A 
ATOM     14  S   UNL     1       3.807   7.051  17.381  0.00  0.00    +0.000 S 
ATOM     15  C   UNL     1       2.917   6.192  18.689  0.00  0.00    +0.000 A 
ENDROOT
BRANCH   4  16
ATOM     16  O   UNL     1       1.962   2.910  20.309  0.00  0.00    +0.000 OA
ATOM     17  C   UNL     1       1.621   2.544  21.629  0.00  0.00    +0.000 C 
ENDBRANCH   4  16
BRANCH   1  18
ATOM     18  O   UNL     1       2.235   8.379  19.446  0.00  0.00    +0.000 OA
BRANCH  18  19
ATOM     19  C   UNL     1       1.088   9.103  19.910  0.00  0.00    +0.000 C 
BRANCH  19  21
ATOM     20  C   UNL     1      -0.882  10.268  18.893  0.00  0.00    +0.000 C 
ATOM     21  C   UNL     1       0.632  10.109  18.860  0.00  0.00    +0.000 C 
ENDBRANCH  19  21
ENDBRANCH  18  19
ENDBRANCH   1  18
TORSDOF 4
ENDMDL
MODEL 4
REMARK VINA RESULT:      -6.8      1.447      4.551
REMARK  Name = 
REMARK  6 active torsions:
REMARK  status: ('A' for Active; 'I' for Inactive)
REMARK    1  A    between atoms: C_1  and  C_2
REMARK    2  A    between atoms: C_2  and  C_3
REMARK    3  A    between atoms: C_3  and  O_4
REMARK    4  A    between atoms: O_4  and  C_5
REMARK    5  A    between atoms: C_8  and  O_9
REMARK    6  A    between atoms: O_9  and  C_10
REMARK                            x       y       z     vdW  Elec       q    Type
REMARK                         _______ _______ _______ _____ _____    ______ ____
ROOT
ATOM      1  C   UNL     1       6.514   6.014  17.544  0.00  0.00    +0.000 A 
ATOM      2  C   UNL     1       7.127   5.893  16.301  0.00  0.00    +0.000 A 
ATOM      3  C   UNL     1       6.602   5.039  15.348  0.00  0.00    +0.000 A 
ATOM      4  C   UNL     1       5.466   4.253  15.591  0.00  0.00    +0.000 A 
ATOM      5  C   UNL     1       4.840   4.330  16.859  0.00  0.00    +0.000 A 
ATOM      6  C   UNL     1       3.742   3.416  17.268  0.00  0.00    +0.000 A 
ATOM      7  O   UNL     1       3.637   2.293  16.773  0.00  0.00    +0.000 OA
ATOM      8  C   UNL     1       2.783   3.704  18.347  0.00  0.00    +0.000 A 
ATOM      9  C   UNL     1       1.579   2.974  18.377  0.00  0.00    +0.000 A 
ATOM     10  C   UNL     1       0.715   3.062  19.466  0.00  0.00    +0.000 A 
ATOM     11  C   UNL     1       1.045   3.894  20.526  0.00  0.00    +0.000 A 
ATOM     12  C   UNL     1       2.224   4.646  20.481  0.00  0.00    +0.000 A 
ATOM     13  C   UNL     1       3.106   4.560  19.390  0.00  0.00    +0.000 A 
ATOM     14  S   UNL     1       4.620   5.465  19.458  0.00  0.00    +0.000 S 
ATOM     15  C   UNL     1       5.349   5.245  17.827  0.00  0.00    +0.000 A 
ENDROOT
BRANCH   4  16
ATOM     16  O   UNL     1       5.218   3.548  14.449  0.00  0.00    +0.000 OA
ATOM     17  C   UNL     1       5.963   3.660  13.256  0.00  0.00    +0.000 C 
ENDBRANCH   4  16
BRANCH   1  18
ATOM     18  O   UNL     1       7.010   6.850  18.527  0.00  0.00    +0.000 OA
BRANCH  18  19
ATOM     19  C   UNL     1       8.233   7.535  18.225  0.00  0.00    +0.000 C 
BRANCH  19  21
ATOM     20  C   UNL     1       8.898   9.922  18.593  0.00  0.00    +0.000 C 
ATOM     21  C   UNL     1       7.952   8.986  17.851  0.00  0.00    +0.000 C 
ENDBRANCH  19  21
ENDBRANCH  18  19
ENDBRANCH   1  18
TORSDOF 4
ENDMDL
MODEL 5
REMARK VINA RESULT:      -6.6      4.241      6.281
REMARK  Name = 
REMARK  6 active torsions:
REMARK  status: ('A' for Active; 'I' for Inactive)
REMARK    1  A    between atoms: C_1  and  C_2
REMARK    2  A    between atoms: C_2  and  C_3
REMARK    3  A    between atoms: C_3  and  O_4
REMARK    4  A    between atoms: O_4  and  C_5
REMARK    5  A    between atoms: C_8  and  O_9
REMARK    6  A    between atoms: O_9  and  C_10
REMARK                            x       y       z     vdW  Elec       q    Type
REMARK                         _______ _______ _______ _____ _____    ______ ____
ROOT
ATOM      1  C   UNL     1       2.957   5.304  20.101  0.00  0.00    +0.000 A 
ATOM      2  C   UNL     1       3.912   4.734  19.266  0.00  0.00    +0.000 A 
ATOM      3  C   UNL     1       4.360   5.421  18.151  0.00  0.00    +0.000 A 
ATOM      4  C   UNL     1       3.865   6.687  17.803  0.00  0.00    +0.000 A 
ATOM      5  C   UNL     1       2.868   7.279  18.616  0.00  0.00    +0.000 A 
ATOM      6  C   UNL     1       2.163   8.531  18.237  0.00  0.00    +0.000 A 
ATOM      7  O   UNL     1       2.042   8.856  17.055  0.00  0.00    +0.000 OA
ATOM      8  C   UNL     1       1.464   9.409  19.190  0.00  0.00    +0.000 A 
ATOM      9  C   UNL     1       1.187  10.732  18.793  0.00  0.00    +0.000 A 
ATOM     10  C   UNL     1       0.372  11.556  19.566  0.00  0.00    +0.000 A 
ATOM     11  C   UNL     1      -0.161  11.063  20.748  0.00  0.00    +0.000 A 
ATOM     12  C   UNL     1       0.142   9.761  21.161  0.00  0.00    +0.000 A 
ATOM     13  C   UNL     1       0.959   8.919  20.386  0.00  0.00    +0.000 A 
ATOM     14  S   UNL     1       1.208   7.258  20.927  0.00  0.00    +0.000 S 
ATOM     15  C   UNL     1       2.439   6.595  19.792  0.00  0.00    +0.000 A 
ENDROOT
BRANCH   4  16
ATOM     16  O   UNL     1       4.524   7.075  16.673  0.00  0.00    +0.000 OA
ATOM     17  C   UNL     1       5.230   6.206  15.814  0.00  0.00    +0.000 C 
ENDBRANCH   4  16
BRANCH   1  18
ATOM     18  O   UNL     1       2.478   4.649  21.219  0.00  0.00    +0.000 OA
BRANCH  18  19
ATOM     19  C   UNL     1       1.927   3.343  21.006  0.00  0.00    +0.000 C 
BRANCH  19  21
ATOM     20  C   UNL     1       0.897   2.515  18.878  0.00  0.00    +0.000 C 
ATOM     21  C   UNL     1       0.712   3.419  20.089  0.00  0.00    +0.000 C 
ENDBRANCH  19  21
ENDBRANCH  18  19
ENDBRANCH   1  18
TORSDOF 4
ENDMDL
MODEL 6
REMARK VINA RESULT:      -6.5      3.124      4.726
REMARK  Name = 
REMARK  6 active torsions:
REMARK  status: ('A' for Active; 'I' for Inactive)
REMARK    1  A    between atoms: C_1  and  C_2
REMARK    2  A    between atoms: C_2  and  C_3
REMARK    3  A    between atoms: C_3  and  O_4
REMARK    4  A    between atoms: O_4  and  C_5
REMARK    5  A    between atoms: C_8  and  O_9
REMARK    6  A    between atoms: O_9  and  C_10
REMARK                            x       y       z     vdW  Elec       q    Type
REMARK                         _______ _______ _______ _____ _____    ______ ____
ROOT
ATOM      1  C   UNL     1       4.040   4.342  17.214  0.00  0.00    +0.000 A 
ATOM      2  C   UNL     1       3.877   3.033  17.655  0.00  0.00    +0.000 A 
ATOM      3  C   UNL     1       3.080   2.763  18.753  0.00  0.00    +0.000 A 
ATOM      4  C   UNL     1       2.431   3.777  19.474  0.00  0.00    +0.000 A 
ATOM      5  C   UNL     1       2.604   5.123  19.069  0.00  0.00    +0.000 A 
ATOM      6  C   UNL     1       2.100   6.271  19.866  0.00  0.00    +0.000 A 
ATOM      7  O   UNL     1       1.946   6.176  21.084  0.00  0.00    +0.000 OA
ATOM      8  C   UNL     1       1.860   7.617  19.319  0.00  0.00    +0.000 A 
ATOM      9  C   UNL     1       1.028   8.490  20.047  0.00  0.00    +0.000 A 
ATOM     10  C   UNL     1       0.906   9.830  19.687  0.00  0.00    +0.000 A 
ATOM     11  C   UNL     1       1.607  10.301  18.587  0.00  0.00    +0.000 A 
ATOM     12  C   UNL     1       2.407   9.426  17.843  0.00  0.00    +0.000 A 
ATOM     13  C   UNL     1       2.541   8.073  18.200  0.00  0.00    +0.000 A 
ATOM     14  S   UNL     1       3.648   7.062  17.269  0.00  0.00    +0.000 S 
ATOM     15  C   UNL     1       3.385   5.400  17.908  0.00  0.00    +0.000 A 
ENDROOT
BRANCH   4  16
ATOM     16  O   UNL     1       1.728   3.167  20.473  0.00  0.00    +0.000 OA
ATOM     17  C   UNL     1       2.288   2.698  21.680  0.00  0.00    +0.000 C 
ENDBRANCH   4  16
BRANCH   1  18
ATOM     18  O   UNL     1       4.833   4.655  16.127  0.00  0.00    +0.000 OA
BRANCH  18  19
ATOM     19  C   UNL     1       6.224   4.328  16.236  0.00  0.00    +0.000 C 
BRANCH  19  21
ATOM     20  C   UNL     1       6.139   3.928  13.764  0.00  0.00    +0.000 C 
ATOM     21  C   UNL     1       6.931   4.554  14.904  0.00  0.00    +0.000 C 
ENDBRANCH  19  21
ENDBRANCH  18  19
ENDBRANCH   1  18
TORSDOF 4
ENDMDL
MODEL 7
REMARK VINA RESULT:      -6.4      3.164      5.073
REMARK  Name = 
REMARK  6 active torsions:
REMARK  status: ('A' for Active; 'I' for Inactive)
REMARK    1  A    between atoms: C_1  and  C_2
REMARK    2  A    between atoms: C_2  and  C_3
REMARK    3  A    between atoms: C_3  and  O_4
REMARK    4  A    between atoms: O_4  and  C_5
REMARK    5  A    between atoms: C_8  and  O_9
REMARK    6  A    between atoms: O_9  and  C_10
REMARK                            x       y       z     vdW  Elec       q    Type
REMARK                         _______ _______ _______ _____ _____    ______ ____
ROOT
ATOM      1  C   UNL     1       4.140   4.470  17.228  0.00  0.00    +0.000 A 
ATOM      2  C   UNL     1       3.996   3.155  17.658  0.00  0.00    +0.000 A 
ATOM      3  C   UNL     1       3.185   2.862  18.739  0.00  0.00    +0.000 A 
ATOM      4  C   UNL     1       2.503   3.857  19.455  0.00  0.00    +0.000 A 
ATOM      5  C   UNL     1       2.656   5.209  19.062  0.00  0.00    +0.000 A 
ATOM      6  C   UNL     1       2.116   6.342  19.858  0.00  0.00    +0.000 A 
ATOM      7  O   UNL     1       1.942   6.235  21.072  0.00  0.00    +0.000 OA
ATOM      8  C   UNL     1       1.859   7.686  19.316  0.00  0.00    +0.000 A 
ATOM      9  C   UNL     1       0.997   8.538  20.035  0.00  0.00    +0.000 A 
ATOM     10  C   UNL     1       0.855   9.878  19.682  0.00  0.00    +0.000 A 
ATOM     11  C   UNL     1       1.566  10.370  18.597  0.00  0.00    +0.000 A 
ATOM     12  C   UNL     1       2.396   9.517  17.861  0.00  0.00    +0.000 A 
ATOM     13  C   UNL     1       2.551   8.164  18.212  0.00  0.00    +0.000 A 
ATOM     14  S   UNL     1       3.694   7.182  17.294  0.00  0.00    +0.000 S 
ATOM     15  C   UNL     1       3.452   5.510  17.918  0.00  0.00    +0.000 A 
ENDROOT
BRANCH   4  16
ATOM     16  O   UNL     1       1.795   3.227  20.437  0.00  0.00    +0.000 OA
ATOM     17  C   UNL     1       2.343   2.753  21.648  0.00  0.00    +0.000 C 
ENDBRANCH   4  16
BRANCH   1  18
ATOM     18  O   UNL     1       4.946   4.807  16.158  0.00  0.00    +0.000 OA
BRANCH  18  19
ATOM     19  C   UNL     1       6.334   4.470  16.273  0.00  0.00    +0.000 C 
BRANCH  19  21
ATOM     20  C   UNL     1       7.533   5.492  18.222  0.00  0.00    +0.000 C 
ATOM     21  C   UNL     1       7.135   5.672  16.763  0.00  0.00    +0.000 C 
ENDBRANCH  19  21
ENDBRANCH  18  19
ENDBRANCH   1  18
TORSDOF 4
ENDMDL
MODEL 8
REMARK VINA RESULT:      -6.3      2.998      4.893
REMARK  Name = 
REMARK  6 active torsions:
REMARK  status: ('A' for Active; 'I' for Inactive)
REMARK    1  A    between atoms: C_1  and  C_2
REMARK    2  A    between atoms: C_2  and  C_3
REMARK    3  A    between atoms: C_3  and  O_4
REMARK    4  A    between atoms: O_4  and  C_5
REMARK    5  A    between atoms: C_8  and  O_9
REMARK    6  A    between atoms: O_9  and  C_10
REMARK                            x       y       z     vdW  Elec       q    Type
REMARK                         _______ _______ _______ _____ _____    ______ ____
ROOT
ATOM      1  C   UNL     1       4.368   5.067  16.976  0.00  0.00    +0.000 A 
ATOM      2  C   UNL     1       4.504   3.683  17.003  0.00  0.00    +0.000 A 
ATOM      3  C   UNL     1       3.861   2.941  17.977  0.00  0.00    +0.000 A 
ATOM      4  C   UNL     1       3.078   3.536  18.977  0.00  0.00    +0.000 A 
ATOM      5  C   UNL     1       2.947   4.946  18.996  0.00  0.00    +0.000 A 
ATOM      6  C   UNL     1       2.285   5.676  20.107  0.00  0.00    +0.000 A 
ATOM      7  O   UNL     1       2.244   5.197  21.242  0.00  0.00    +0.000 OA
ATOM      8  C   UNL     1       1.741   7.039  19.995  0.00  0.00    +0.000 A 
ATOM      9  C   UNL     1       0.807   7.462  20.962  0.00  0.00    +0.000 A 
ATOM     10  C   UNL     1       0.394   8.791  21.025  0.00  0.00    +0.000 A 
ATOM     11  C   UNL     1       0.903   9.702  20.110  0.00  0.00    +0.000 A 
ATOM     12  C   UNL     1       1.804   9.274  19.128  0.00  0.00    +0.000 A 
ATOM     13  C   UNL     1       2.232   7.937  19.059  0.00  0.00    +0.000 A 
ATOM     14  S   UNL     1       3.446   7.503  17.854  0.00  0.00    +0.000 S 
ATOM     15  C   UNL     1       3.569   5.711  17.965  0.00  0.00    +0.000 A 
ENDROOT
BRANCH   4  16
ATOM     16  O   UNL     1       2.587   2.525  19.753  0.00  0.00    +0.000 OA
ATOM     17  C   UNL     1       1.245   2.088  19.752  0.00  0.00    +0.000 C 
ENDBRANCH   4  16
BRANCH   1  18
ATOM     18  O   UNL     1       4.999   5.846  16.026  0.00  0.00    +0.000 OA
BRANCH  18  19
ATOM     19  C   UNL     1       6.430   5.766  15.982  0.00  0.00    +0.000 C 
BRANCH  19  21
ATOM     20  C   UNL     1       7.569   5.765  18.213  0.00  0.00    +0.000 C 
ATOM     21  C   UNL     1       7.046   6.631  17.075  0.00  0.00    +0.000 C 
ENDBRANCH  19  21
ENDBRANCH  18  19
ENDBRANCH   1  18
TORSDOF 4
ENDMDL
MODEL 9
REMARK VINA RESULT:      -6.2      4.049      5.624
REMARK  Name = 
REMARK  6 active torsions:
REMARK  status: ('A' for Active; 'I' for Inactive)
REMARK    1  A    between atoms: C_1  and  C_2
REMARK    2  A    between atoms: C_2  and  C_3
REMARK    3  A    between atoms: C_3  and  O_4
REMARK    4  A    between atoms: O_4  and  C_5
REMARK    5  A    between atoms: C_8  and  O_9
REMARK    6  A    between atoms: O_9  and  C_10
REMARK                            x       y       z     vdW  Elec       q    Type
REMARK                         _______ _______ _______ _____ _____    ______ ____
ROOT
ATOM      1  C   UNL     1       3.769   5.929  17.853  0.00  0.00    +0.000 A 
ATOM      2  C   UNL     1       3.906   4.657  18.399  0.00  0.00    +0.000 A 
ATOM      3  C   UNL     1       3.231   4.324  19.560  0.00  0.00    +0.000 A 
ATOM      4  C   UNL     1       2.412   5.238  20.239  0.00  0.00    +0.000 A 
ATOM      5  C   UNL     1       2.279   6.551  19.725  0.00  0.00    +0.000 A 
ATOM      6  C   UNL     1       1.578   7.634  20.461  0.00  0.00    +0.000 A 
ATOM      7  O   UNL     1       1.499   7.614  21.690  0.00  0.00    +0.000 OA
ATOM      8  C   UNL     1       1.036   8.848  19.830  0.00  0.00    +0.000 A 
ATOM      9  C   UNL     1       0.069   9.589  20.538  0.00  0.00    +0.000 A 
ATOM     10  C   UNL     1      -0.348  10.839  20.086  0.00  0.00    +0.000 A 
ATOM     11  C   UNL     1       0.191  11.348  18.913  0.00  0.00    +0.000 A 
ATOM     12  C   UNL     1       1.126  10.598  18.192  0.00  0.00    +0.000 A 
ATOM     13  C   UNL     1       1.558   9.338  18.641  0.00  0.00    +0.000 A 
ATOM     14  S   UNL     1       2.814   8.503  17.725  0.00  0.00    +0.000 S 
ATOM     15  C   UNL     1       2.935   6.883  18.502  0.00  0.00    +0.000 A 
ENDROOT
BRANCH   4  16
ATOM     16  O   UNL     1       1.897   4.584  21.321  0.00  0.00    +0.000 OA
ATOM     17  C   UNL     1       2.117   3.222  21.619  0.00  0.00    +0.000 C 
ENDBRANCH   4  16
BRANCH   1  18
ATOM     18  O   UNL     1       4.432   6.305  16.700  0.00  0.00    +0.000 OA
BRANCH  18  19
ATOM     19  C   UNL     1       5.307   5.330  16.120  0.00  0.00    +0.000 C 
BRANCH  19  21
ATOM     20  C   UNL     1       7.431   4.599  17.231  0.00  0.00    +0.000 C 
ATOM     21  C   UNL     1       6.763   5.687  16.399  0.00  0.00    +0.000 C 
ENDBRANCH  19  21
ENDBRANCH  18  19
ENDBRANCH   1  18
TORSDOF 4
ENDMDL
