MODEL 1
REMARK VINA RESULT:      -7.1      0.000      0.000
REMARK  Name = 
REMARK  7 active torsions:
REMARK  status: ('A' for Active; 'I' for Inactive)
REMARK    1  A    between atoms: C_1  and  C_2
REMARK    2  A    between atoms: C_4  and  C_5
REMARK    3  A    between atoms: C_11  and  C_12
REMARK    4  A    between atoms: C_14  and  C_15
REMARK    5  A    between atoms: C_15  and  C_16
REMARK    6  A    between atoms: C_15  and  C_17
REMARK    7  A    between atoms: C_21  and  C_22
REMARK                            x       y       z     vdW  Elec       q    Type
REMARK                         _______ _______ _______ _____ _____    ______ ____
ROOT
ATOM      1  C   UNL     1       3.860   6.664  17.887  0.00  0.00    +0.000 C 
ATOM      2  O   UNL     1       3.348   7.681  17.425  0.00  0.00    +0.000 OA
ATOM      3  N   UNL     1       5.238   6.578  18.106  0.00  0.00    +0.000 N 
ATOM      4  C   UNL     1       6.103   7.708  17.768  0.00  0.00    +0.000 C 
ATOM      5  C   UNL     1       7.390   7.277  17.041  0.00  0.00    +0.000 C 
ATOM      6  O   UNL     1       8.041   6.125  17.616  0.00  0.00    +0.000 OA
ATOM      7  C   UNL     1       7.139   5.018  17.823  0.00  0.00    +0.000 C 
ATOM      8  C   UNL     1       5.967   5.462  18.715  0.00  0.00    +0.000 C 
ENDROOT
BRANCH   1  12
ATOM      9  C   UNL     1       2.033   1.874  18.042  0.00  0.00    +0.000 C 
ATOM     10  C   UNL     1       2.184   3.327  18.332  0.00  0.00    +0.000 A 
ATOM     11  C   UNL     1       2.831   4.289  17.589  0.00  0.00    +0.000 A 
ATOM     12  C   UNL     1       3.018   5.527  18.302  0.00  0.00    +0.000 A 
ATOM     13  C   UNL     1       2.234   5.527  19.452  0.00  0.00    +0.000 A 
ATOM     14  C   UNL     1       1.985   6.611  20.450  0.00  0.00    +0.000 C 
ATOM     15  S   UNL     1       1.520   3.993  19.750  0.00  0.00    +0.000 S 
ENDBRANCH   1  12
BRANCH   7  16
ATOM     16  C   UNL     1       6.716   4.472  16.491  0.00  0.00    +0.000 A 
ATOM     17  N   UNL     1       7.247   4.710  15.312  0.00  0.00    +0.000 NA
ATOM     18  C   UNL     1       6.535   3.917  14.458  0.00  0.00    +0.000 A 
ATOM     19  N   UNL     1       5.557   3.216  15.043  0.00  0.00    +0.000 NA
ATOM     20  N   UNL     1       5.710   3.560  16.336  0.00  0.00    +0.000 N 
ATOM     21  H   UNL     1       5.111   3.139  17.035  0.00  0.00    +0.000 HD
BRANCH  18  22
ATOM     22  C   UNL     1       6.869   3.833  13.005  0.00  0.00    +0.000 C 
ATOM     23  C   UNL     1       5.626   3.516  12.166  0.00  0.00    +0.000 C 
ATOM     24  C   UNL     1       7.512   5.130  12.514  0.00  0.00    +0.000 C 
ENDBRANCH  18  22
ENDBRANCH   7  16
TORSDOF 3
ENDMDL
MODEL 2
REMARK VINA RESULT:      -6.6      1.126      1.649
REMARK  Name = 
REMARK  7 active torsions:
REMARK  status: ('A' for Active; 'I' for Inactive)
REMARK    1  A    between atoms: C_1  and  C_2
REMARK    2  A    between atoms: C_4  and  C_5
REMARK    3  A    between atoms: C_11  and  C_12
REMARK    4  A    between atoms: C_14  and  C_15
REMARK    5  A    between atoms: C_15  and  C_16
REMARK    6  A    between atoms: C_15  and  C_17
REMARK    7  A    between atoms: C_21  and  C_22
REMARK                            x       y       z     vdW  Elec       q    Type
REMARK                         _______ _______ _______ _____ _____    ______ ____
ROOT
ATOM      1  C   UNL     1       3.729   6.030  18.360  0.00  0.00    +0.000 C 
ATOM      2  O   UNL     1       2.953   6.910  17.994  0.00  0.00    +0.000 OA
ATOM      3  N   UNL     1       5.111   6.240  18.377  0.00  0.00    +0.000 N 
ATOM      4  C   UNL     1       5.661   7.522  17.937  0.00  0.00    +0.000 C 
ATOM      5  C   UNL     1       6.891   7.362  17.026  0.00  0.00    +0.000 C 
ATOM      6  O   UNL     1       7.847   6.381  17.483  0.00  0.00    +0.000 OA
ATOM      7  C   UNL     1       7.237   5.113  17.799  0.00  0.00    +0.000 C 
ATOM      8  C   UNL     1       6.139   5.312  18.858  0.00  0.00    +0.000 C 
ENDROOT
BRANCH   1  12
ATOM      9  C   UNL     1       2.025   2.575  21.746  0.00  0.00    +0.000 C 
ATOM     10  C   UNL     1       2.460   3.176  20.454  0.00  0.00    +0.000 A 
ATOM     11  C   UNL     1       3.220   4.305  20.245  0.00  0.00    +0.000 A 
ATOM     12  C   UNL     1       3.214   4.747  18.873  0.00  0.00    +0.000 A 
ATOM     13  C   UNL     1       2.681   3.749  18.063  0.00  0.00    +0.000 A 
ATOM     14  C   UNL     1       2.570   3.672  16.574  0.00  0.00    +0.000 C 
ATOM     15  S   UNL     1       2.003   2.463  18.979  0.00  0.00    +0.000 S 
ENDBRANCH   1  12
BRANCH   7  16
ATOM     16  C   UNL     1       6.752   4.470  16.533  0.00  0.00    +0.000 A 
ATOM     17  N   UNL     1       7.126   4.728  15.299  0.00  0.00    +0.000 NA
ATOM     18  C   UNL     1       6.435   3.823  14.544  0.00  0.00    +0.000 A 
ATOM     19  N   UNL     1       5.618   3.030  15.247  0.00  0.00    +0.000 NA
ATOM     20  N   UNL     1       5.857   3.437  16.507  0.00  0.00    +0.000 N 
ATOM     21  H   UNL     1       5.390   2.972  17.276  0.00  0.00    +0.000 HD
BRANCH  18  22
ATOM     22  C   UNL     1       6.626   3.727  13.067  0.00  0.00    +0.000 C 
ATOM     23  C   UNL     1       5.284   3.599  12.339  0.00  0.00    +0.000 C 
ATOM     24  C   UNL     1       7.395   4.936  12.533  0.00  0.00    +0.000 C 
ENDBRANCH  18  22
ENDBRANCH   7  16
TORSDOF 3
ENDMDL
MODEL 3
REMARK VINA RESULT:      -6.6      3.131      6.410
REMARK  Name = 
REMARK  7 active torsions:
REMARK  status: ('A' for Active; 'I' for Inactive)
REMARK    1  A    between atoms: C_1  and  C_2
REMARK    2  A    between atoms: C_4  and  C_5
REMARK    3  A    between atoms: C_11  and  C_12
REMARK    4  A    between atoms: C_14  and  C_15
REMARK    5  A    between atoms: C_15  and  C_16
REMARK    6  A    between atoms: C_15  and  C_17
REMARK    7  A    between atoms: C_21  and  C_22
REMARK                            x       y       z     vdW  Elec       q    Type
REMARK                         _______ _______ _______ _____ _____    ______ ____
ROOT
ATOM      1  C   UNL     1       3.573   3.745  17.515  0.00  0.00    +0.000 C 
ATOM      2  O   UNL     1       3.049   3.532  16.423  0.00  0.00    +0.000 OA
ATOM      3  N   UNL     1       2.931   3.405  18.709  0.00  0.00    +0.000 N 
ATOM      4  C   UNL     1       1.601   2.797  18.675  0.00  0.00    +0.000 C 
ATOM      5  C   UNL     1       0.642   3.404  19.716  0.00  0.00    +0.000 C 
ATOM      6  O   UNL     1       1.224   3.594  21.023  0.00  0.00    +0.000 OA
ATOM      7  C   UNL     1       2.485   4.291  20.976  0.00  0.00    +0.000 C 
ATOM      8  C   UNL     1       3.467   3.532  20.067  0.00  0.00    +0.000 C 
ENDROOT
BRANCH   1  12
ATOM      9  C   UNL     1       7.813   5.735  19.603  0.00  0.00    +0.000 C 
ATOM     10  C   UNL     1       6.861   5.231  18.575  0.00  0.00    +0.000 A 
ATOM     11  C   UNL     1       5.498   5.061  18.678  0.00  0.00    +0.000 A 
ATOM     12  C   UNL     1       4.938   4.295  17.592  0.00  0.00    +0.000 A 
ATOM     13  C   UNL     1       5.877   4.178  16.570  0.00  0.00    +0.000 A 
ATOM     14  C   UNL     1       5.745   3.591  15.202  0.00  0.00    +0.000 C 
ATOM     15  S   UNL     1       7.423   4.760  17.041  0.00  0.00    +0.000 S 
ENDBRANCH   1  12
BRANCH   7  16
ATOM     16  C   UNL     1       2.247   5.713  20.561  0.00  0.00    +0.000 A 
ATOM     17  N   UNL     1       2.720   6.339  19.505  0.00  0.00    +0.000 NA
ATOM     18  C   UNL     1       2.147   7.577  19.564  0.00  0.00    +0.000 A 
ATOM     19  N   UNL     1       1.360   7.768  20.630  0.00  0.00    +0.000 NA
ATOM     20  N   UNL     1       1.414   6.565  21.231  0.00  0.00    +0.000 N 
ATOM     21  H   UNL     1       0.867   6.403  22.067  0.00  0.00    +0.000 HD
BRANCH  18  22
ATOM     22  C   UNL     1       2.368   8.595  18.495  0.00  0.00    +0.000 C 
ATOM     23  C   UNL     1       3.124   7.997  17.304  0.00  0.00    +0.000 C 
ATOM     24  C   UNL     1       1.041   9.191  18.023  0.00  0.00    +0.000 C 
ENDBRANCH  18  22
ENDBRANCH   7  16
TORSDOF 3
ENDMDL
MODEL 4
REMARK VINA RESULT:      -6.4      3.156      7.032
REMARK  Name = 
REMARK  7 active torsions:
REMARK  status: ('A' for Active; 'I' for Inactive)
REMARK    1  A    between atoms: C_1  and  C_2
REMARK    2  A    between atoms: C_4  and  C_5
REMARK    3  A    between atoms: C_11  and  C_12
REMARK    4  A    between atoms: C_14  and  C_15
REMARK    5  A    between atoms: C_15  and  C_16
REMARK    6  A    between atoms: C_15  and  C_17
REMARK    7  A    between atoms: C_21  and  C_22
REMARK                            x       y       z     vdW  Elec       q    Type
REMARK                         _______ _______ _______ _____ _____    ______ ____
ROOT
ATOM      1  C   UNL     1       3.539   3.663  17.496  0.00  0.00    +0.000 C 
ATOM      2  O   UNL     1       3.002   3.489  16.404  0.00  0.00    +0.000 OA
ATOM      3  N   UNL     1       2.933   3.237  18.681  0.00  0.00    +0.000 N 
ATOM      4  C   UNL     1       1.624   2.584  18.638  0.00  0.00    +0.000 C 
ATOM      5  C   UNL     1       0.665   3.100  19.726  0.00  0.00    +0.000 C 
ATOM      6  O   UNL     1       1.265   3.241  21.031  0.00  0.00    +0.000 OA
ATOM      7  C   UNL     1       2.500   3.986  21.000  0.00  0.00    +0.000 C 
ATOM      8  C   UNL     1       3.490   3.312  20.034  0.00  0.00    +0.000 C 
ENDROOT
BRANCH   1  12
ATOM      9  C   UNL     1       7.742   5.701  19.613  0.00  0.00    +0.000 C 
ATOM     10  C   UNL     1       6.790   5.213  18.577  0.00  0.00    +0.000 A 
ATOM     11  C   UNL     1       5.437   4.989  18.692  0.00  0.00    +0.000 A 
ATOM     12  C   UNL     1       4.886   4.257  17.578  0.00  0.00    +0.000 A 
ATOM     13  C   UNL     1       5.810   4.224  16.538  0.00  0.00    +0.000 A 
ATOM     14  C   UNL     1       5.675   3.699  15.145  0.00  0.00    +0.000 C 
ATOM     15  S   UNL     1       7.343   4.838  17.012  0.00  0.00    +0.000 S 
ENDBRANCH   1  12
BRANCH   7  16
ATOM     16  C   UNL     1       2.204   5.418  20.665  0.00  0.00    +0.000 A 
ATOM     17  N   UNL     1       1.265   6.190  21.168  0.00  0.00    +0.000 NA
ATOM     18  C   UNL     1       1.477   7.403  20.577  0.00  0.00    +0.000 A 
ATOM     19  N   UNL     1       2.487   7.419  19.699  0.00  0.00    +0.000 NA
ATOM     20  N   UNL     1       2.951   6.159  19.793  0.00  0.00    +0.000 N 
ATOM     21  H   UNL     1       3.763   5.887  19.252  0.00  0.00    +0.000 HD
BRANCH  18  22
ATOM     22  C   UNL     1       0.659   8.601  20.930  0.00  0.00    +0.000 C 
ATOM     23  C   UNL     1       1.062   9.168  22.295  0.00  0.00    +0.000 C 
ATOM     24  C   UNL     1       0.783   9.684  19.858  0.00  0.00    +0.000 C 
ENDBRANCH  18  22
ENDBRANCH   7  16
TORSDOF 3
ENDMDL
MODEL 5
REMARK VINA RESULT:      -5.9      1.411      1.672
REMARK  Name = 
REMARK  7 active torsions:
REMARK  status: ('A' for Active; 'I' for Inactive)
REMARK    1  A    between atoms: C_1  and  C_2
REMARK    2  A    between atoms: C_4  and  C_5
REMARK    3  A    between atoms: C_11  and  C_12
REMARK    4  A    between atoms: C_14  and  C_15
REMARK    5  A    between atoms: C_15  and  C_16
REMARK    6  A    between atoms: C_15  and  C_17
REMARK    7  A    between atoms: C_21  and  C_22
REMARK                            x       y       z     vdW  Elec       q    Type
REMARK                         _______ _______ _______ _____ _____    ______ ____
ROOT
ATOM      1  C   UNL     1       3.926   5.683  18.288  0.00  0.00    +0.000 C 
ATOM      2  O   UNL     1       2.973   6.423  18.050  0.00  0.00    +0.000 OA
ATOM      3  N   UNL     1       5.245   6.132  18.166  0.00  0.00    +0.000 N 
ATOM      4  C   UNL     1       5.511   7.502  17.728  0.00  0.00    +0.000 C 
ATOM      5  C   UNL     1       6.638   7.585  16.682  0.00  0.00    +0.000 C 
ATOM      6  O   UNL     1       7.794   6.776  16.987  0.00  0.00    +0.000 OA
ATOM      7  C   UNL     1       7.451   5.412  17.308  0.00  0.00    +0.000 C 
ATOM      8  C   UNL     1       6.464   5.387  18.488  0.00  0.00    +0.000 C 
ENDROOT
BRANCH   1  12
ATOM      9  C   UNL     1       4.683   1.421  21.039  0.00  0.00    +0.000 C 
ATOM     10  C   UNL     1       4.089   2.366  20.052  0.00  0.00    +0.000 A 
ATOM     11  C   UNL     1       4.654   3.491  19.494  0.00  0.00    +0.000 A 
ATOM     12  C   UNL     1       3.701   4.318  18.795  0.00  0.00    +0.000 A 
ATOM     13  C   UNL     1       2.514   3.612  18.617  0.00  0.00    +0.000 A 
ATOM     14  C   UNL     1       1.281   3.979  17.856  0.00  0.00    +0.000 C 
ATOM     15  S   UNL     1       2.505   2.128  19.481  0.00  0.00    +0.000 S 
ENDBRANCH   1  12
BRANCH   7  16
ATOM     16  C   UNL     1       6.942   4.728  16.075  0.00  0.00    +0.000 A 
ATOM     17  N   UNL     1       7.332   4.903  14.831  0.00  0.00    +0.000 NA
ATOM     18  C   UNL     1       6.602   3.993  14.120  0.00  0.00    +0.000 A 
ATOM     19  N   UNL     1       5.746   3.277  14.858  0.00  0.00    +0.000 NA
ATOM     20  N   UNL     1       5.999   3.737  16.097  0.00  0.00    +0.000 N 
ATOM     21  H   UNL     1       5.509   3.335  16.886  0.00  0.00    +0.000 HD
BRANCH  18  22
ATOM     22  C   UNL     1       6.794   3.811  12.651  0.00  0.00    +0.000 C 
ATOM     23  C   UNL     1       5.474   3.463  11.956  0.00  0.00    +0.000 C 
ATOM     24  C   UNL     1       7.401   5.064  12.018  0.00  0.00    +0.000 C 
ENDBRANCH  18  22
ENDBRANCH   7  16
TORSDOF 3
ENDMDL
MODEL 6
REMARK VINA RESULT:      -5.8      3.152      6.537
REMARK  Name = 
REMARK  7 active torsions:
REMARK  status: ('A' for Active; 'I' for Inactive)
REMARK    1  A    between atoms: C_1  and  C_2
REMARK    2  A    between atoms: C_4  and  C_5
REMARK    3  A    between atoms: C_11  and  C_12
REMARK    4  A    between atoms: C_14  and  C_15
REMARK    5  A    between atoms: C_15  and  C_16
REMARK    6  A    between atoms: C_15  and  C_17
REMARK    7  A    between atoms: C_21  and  C_22
REMARK                            x       y       z     vdW  Elec       q    Type
REMARK                         _______ _______ _______ _____ _____    ______ ____
ROOT
ATOM      1  C   UNL     1       4.303   4.010  17.142  0.00  0.00    +0.000 C 
ATOM      2  O   UNL     1       3.874   4.013  15.990  0.00  0.00    +0.000 OA
ATOM      3  N   UNL     1       3.816   3.113  18.098  0.00  0.00    +0.000 N 
ATOM      4  C   UNL     1       2.763   2.163  17.738  0.00  0.00    +0.000 C 
ATOM      5  C   UNL     1       1.662   2.061  18.810  0.00  0.00    +0.000 C 
ATOM      6  O   UNL     1       2.155   1.985  20.164  0.00  0.00    +0.000 OA
ATOM      7  C   UNL     1       3.113   3.019  20.469  0.00  0.00    +0.000 C 
ATOM      8  C   UNL     1       4.287   2.950  19.476  0.00  0.00    +0.000 C 
ENDROOT
BRANCH   1  12
ATOM      9  C   UNL     1       8.407   5.702  19.710  0.00  0.00    +0.000 C 
ATOM     10  C   UNL     1       7.276   5.666  18.741  0.00  0.00    +0.000 A 
ATOM     11  C   UNL     1       6.152   4.870  18.763  0.00  0.00    +0.000 A 
ATOM     12  C   UNL     1       5.409   4.904  17.528  0.00  0.00    +0.000 A 
ATOM     13  C   UNL     1       5.860   5.960  16.740  0.00  0.00    +0.000 A 
ATOM     14  C   UNL     1       5.339   6.484  15.441  0.00  0.00    +0.000 C 
ATOM     15  S   UNL     1       7.276   6.691  17.383  0.00  0.00    +0.000 S 
ENDBRANCH   1  12
BRANCH   7  16
ATOM     16  C   UNL     1       2.415   4.346  20.493  0.00  0.00    +0.000 A 
ATOM     17  N   UNL     1       2.928   5.535  20.264  0.00  0.00    +0.000 NA
ATOM     18  C   UNL     1       1.859   6.382  20.345  0.00  0.00    +0.000 A 
ATOM     19  N   UNL     1       0.702   5.781  20.649  0.00  0.00    +0.000 NA
ATOM     20  N   UNL     1       1.073   4.488  20.709  0.00  0.00    +0.000 N 
ATOM     21  H   UNL     1       0.373   3.780  20.890  0.00  0.00    +0.000 HD
BRANCH  18  22
ATOM     22  C   UNL     1       1.995   7.844  20.075  0.00  0.00    +0.000 C 
ATOM     23  C   UNL     1       2.048   8.130  18.570  0.00  0.00    +0.000 C 
ATOM     24  C   UNL     1       0.848   8.628  20.714  0.00  0.00    +0.000 C 
ENDBRANCH  18  22
ENDBRANCH   7  16
TORSDOF 3
ENDMDL
MODEL 7
REMARK VINA RESULT:      -5.8      9.209     11.051
REMARK  Name = 
REMARK  7 active torsions:
REMARK  status: ('A' for Active; 'I' for Inactive)
REMARK    1  A    between atoms: C_1  and  C_2
REMARK    2  A    between atoms: C_4  and  C_5
REMARK    3  A    between atoms: C_11  and  C_12
REMARK    4  A    between atoms: C_14  and  C_15
REMARK    5  A    between atoms: C_15  and  C_16
REMARK    6  A    between atoms: C_15  and  C_17
REMARK    7  A    between atoms: C_21  and  C_22
REMARK                            x       y       z     vdW  Elec       q    Type
REMARK                         _______ _______ _______ _____ _____    ______ ____
ROOT
ATOM      1  C   UNL     1      -2.138  14.310  21.216  0.00  0.00    +0.000 C 
ATOM      2  O   UNL     1      -1.966  15.434  20.749  0.00  0.00    +0.000 OA
ATOM      3  N   UNL     1      -1.059  13.495  21.569  0.00  0.00    +0.000 N 
ATOM      4  C   UNL     1       0.311  13.969  21.368  0.00  0.00    +0.000 C 
ATOM      5  C   UNL     1       1.229  12.895  20.757  0.00  0.00    +0.000 C 
ATOM      6  O   UNL     1       1.087  11.585  21.345  0.00  0.00    +0.000 OA
ATOM      7  C   UNL     1      -0.286  11.149  21.413  0.00  0.00    +0.000 C 
ATOM      8  C   UNL     1      -1.120  12.174  22.201  0.00  0.00    +0.000 C 
ENDROOT
BRANCH   1  12
ATOM      9  C   UNL     1      -6.514  11.718  20.559  0.00  0.00    +0.000 C 
ATOM     10  C   UNL     1      -5.506  12.639  21.154  0.00  0.00    +0.000 A 
ATOM     11  C   UNL     1      -4.405  13.209  20.555  0.00  0.00    +0.000 A 
ATOM     12  C   UNL     1      -3.500  13.820  21.496  0.00  0.00    +0.000 A 
ATOM     13  C   UNL     1      -4.121  13.932  22.737  0.00  0.00    +0.000 A 
ATOM     14  C   UNL     1      -3.655  14.595  23.992  0.00  0.00    +0.000 C 
ATOM     15  S   UNL     1      -5.625  13.103  22.786  0.00  0.00    +0.000 S 
ENDBRANCH   1  12
BRANCH   7  16
ATOM     16  C   UNL     1      -0.792  10.894  20.024  0.00  0.00    +0.000 A 
ATOM     17  N   UNL     1      -1.895  11.345  19.467  0.00  0.00    +0.000 NA
ATOM     18  C   UNL     1      -1.839  10.876  18.186  0.00  0.00    +0.000 A 
ATOM     19  N   UNL     1      -0.766  10.122  17.921  0.00  0.00    +0.000 NA
ATOM     20  N   UNL     1      -0.101  10.171  19.091  0.00  0.00    +0.000 N 
ATOM     21  H   UNL     1       0.794   9.706  19.173  0.00  0.00    +0.000 HD
BRANCH  18  22
ATOM     22  C   UNL     1      -2.884  11.225  17.178  0.00  0.00    +0.000 C 
ATOM     23  C   UNL     1      -2.616  10.535  15.836  0.00  0.00    +0.000 C 
ATOM     24  C   UNL     1      -4.279  10.856  17.684  0.00  0.00    +0.000 C 
ENDBRANCH  18  22
ENDBRANCH   7  16
TORSDOF 3
ENDMDL
MODEL 8
REMARK VINA RESULT:      -5.7      8.647     10.692
REMARK  Name = 
REMARK  7 active torsions:
REMARK  status: ('A' for Active; 'I' for Inactive)
REMARK    1  A    between atoms: C_1  and  C_2
REMARK    2  A    between atoms: C_4  and  C_5
REMARK    3  A    between atoms: C_11  and  C_12
REMARK    4  A    between atoms: C_14  and  C_15
REMARK    5  A    between atoms: C_15  and  C_16
REMARK    6  A    between atoms: C_15  and  C_17
REMARK    7  A    between atoms: C_21  and  C_22
REMARK                            x       y       z     vdW  Elec       q    Type
REMARK                         _______ _______ _______ _____ _____    ______ ____
ROOT
ATOM      1  C   UNL     1      -1.295  14.006  20.587  0.00  0.00    +0.000 C 
ATOM      2  O   UNL     1      -1.087  15.130  20.133  0.00  0.00    +0.000 OA
ATOM      3  N   UNL     1      -0.309  13.016  20.560  0.00  0.00    +0.000 N 
ATOM      4  C   UNL     1       0.997  13.302  19.967  0.00  0.00    +0.000 C 
ATOM      5  C   UNL     1       1.503  12.164  19.062  0.00  0.00    +0.000 C 
ATOM      6  O   UNL     1       1.330  10.842  19.615  0.00  0.00    +0.000 OA
ATOM      7  C   UNL     1      -0.014  10.605  20.085  0.00  0.00    +0.000 C 
ATOM      8  C   UNL     1      -0.395  11.668  21.129  0.00  0.00    +0.000 C 
ENDROOT
BRANCH   1  12
ATOM      9  C   UNL     1      -6.092  12.284  21.158  0.00  0.00    +0.000 C 
ATOM     10  C   UNL     1      -4.784  12.920  21.477  0.00  0.00    +0.000 A 
ATOM     11  C   UNL     1      -3.830  13.403  20.609  0.00  0.00    +0.000 A 
ATOM     12  C   UNL     1      -2.574  13.696  21.253  0.00  0.00    +0.000 A 
ATOM     13  C   UNL     1      -2.744  13.692  22.634  0.00  0.00    +0.000 A 
ATOM     14  C   UNL     1      -1.788  14.052  23.725  0.00  0.00    +0.000 C 
ATOM     15  S   UNL     1      -4.295  13.114  23.095  0.00  0.00    +0.000 S 
ENDBRANCH   1  12
BRANCH   7  16
ATOM     16  C   UNL     1      -0.944  10.547  18.909  0.00  0.00    +0.000 A 
ATOM     17  N   UNL     1      -2.127  11.106  18.784  0.00  0.00    +0.000 NA
ATOM     18  C   UNL     1      -2.509  10.801  17.509  0.00  0.00    +0.000 A 
ATOM     19  N   UNL     1      -1.631  10.046  16.837  0.00  0.00    +0.000 NA
ATOM     20  N   UNL     1      -0.635   9.922  17.733  0.00  0.00    +0.000 N 
ATOM     21  H   UNL     1       0.204   9.416  17.476  0.00  0.00    +0.000 HD
BRANCH  18  22
ATOM     22  C   UNL     1      -3.785  11.314  16.928  0.00  0.00    +0.000 C 
ATOM     23  C   UNL     1      -4.011  10.772  15.513  0.00  0.00    +0.000 C 
ATOM     24  C   UNL     1      -4.975  10.957  17.819  0.00  0.00    +0.000 C 
ENDBRANCH  18  22
ENDBRANCH   7  16
TORSDOF 3
ENDMDL
MODEL 9
REMARK VINA RESULT:      -5.7      3.295      7.075
REMARK  Name = 
REMARK  7 active torsions:
REMARK  status: ('A' for Active; 'I' for Inactive)
REMARK    1  A    between atoms: C_1  and  C_2
REMARK    2  A    between atoms: C_4  and  C_5
REMARK    3  A    between atoms: C_11  and  C_12
REMARK    4  A    between atoms: C_14  and  C_15
REMARK    5  A    between atoms: C_15  and  C_16
REMARK    6  A    between atoms: C_15  and  C_17
REMARK    7  A    between atoms: C_21  and  C_22
REMARK                            x       y       z     vdW  Elec       q    Type
REMARK                         _______ _______ _______ _____ _____    ______ ____
ROOT
ATOM      1  C   UNL     1       2.932   3.943  17.313  0.00  0.00    +0.000 C 
ATOM      2  O   UNL     1       2.157   3.650  16.405  0.00  0.00    +0.000 OA
ATOM      3  N   UNL     1       2.685   3.556  18.634  0.00  0.00    +0.000 N 
ATOM      4  C   UNL     1       1.475   2.802  18.959  0.00  0.00    +0.000 C 
ATOM      5  C   UNL     1       0.775   3.318  20.230  0.00  0.00    +0.000 C 
ATOM      6  O   UNL     1       1.668   3.599  21.329  0.00  0.00    +0.000 OA
ATOM      7  C   UNL     1       2.780   4.433  20.946  0.00  0.00    +0.000 C 
ATOM      8  C   UNL     1       3.555   3.771  19.793  0.00  0.00    +0.000 C 
ENDROOT
BRANCH   1  12
ATOM      9  C   UNL     1       6.537   7.585  17.520  0.00  0.00    +0.000 C 
ATOM     10  C   UNL     1       5.819   6.344  17.114  0.00  0.00    +0.000 A 
ATOM     11  C   UNL     1       4.487   6.033  17.272  0.00  0.00    +0.000 A 
ATOM     12  C   UNL     1       4.194   4.645  17.018  0.00  0.00    +0.000 A 
ATOM     13  C   UNL     1       5.284   4.044  16.394  0.00  0.00    +0.000 A 
ATOM     14  C   UNL     1       5.433   2.670  15.824  0.00  0.00    +0.000 C 
ATOM     15  S   UNL     1       6.660   5.072  16.362  0.00  0.00    +0.000 S 
ENDBRANCH   1  12
BRANCH   7  16
ATOM     16  C   UNL     1       2.277   5.810  20.628  0.00  0.00    +0.000 A 
ATOM     17  N   UNL     1       1.318   6.481  21.229  0.00  0.00    +0.000 NA
ATOM     18  C   UNL     1       1.311   7.693  20.599  0.00  0.00    +0.000 A 
ATOM     19  N   UNL     1       2.202   7.802  19.605  0.00  0.00    +0.000 NA
ATOM     20  N   UNL     1       2.822   6.608  19.661  0.00  0.00    +0.000 N 
ATOM     21  H   UNL     1       3.591   6.419  19.030  0.00  0.00    +0.000 HD
BRANCH  18  22
ATOM     22  C   UNL     1       0.402   8.796  21.030  0.00  0.00    +0.000 C 
ATOM     23  C   UNL     1       0.733   9.267  22.449  0.00  0.00    +0.000 C 
ATOM     24  C   UNL     1       0.473   9.975  20.059  0.00  0.00    +0.000 C 
ENDBRANCH  18  22
ENDBRANCH   7  16
TORSDOF 3
ENDMDL
