MODEL 1
REMARK VINA RESULT:      -7.7      0.000      0.000
REMARK  Name = 
REMARK  3 active torsions:
REMARK  status: ('A' for Active; 'I' for Inactive)
REMARK    1  A    between atoms: S_2  and  C_4
REMARK    2  A    between atoms: S_2  and  C_11
REMARK    3  A    between atoms: C_21  and  C_22
REMARK                            x       y       z     vdW  Elec       q    Type
REMARK                         _______ _______ _______ _____ _____    ______ ____
ROOT
ATOM      1  C   UNL     1       3.865   5.799  17.757  0.00  0.00    +0.000 A 
ATOM      2  C   UNL     1       4.178   6.842  16.898  0.00  0.00    +0.000 A 
ATOM      3  N   UNL     1       3.619   8.063  16.940  0.00  0.00    +0.000 NA
ATOM      4  C   UNL     1       2.733   8.315  17.899  0.00  0.00    +0.000 A 
ATOM      5  C   UNL     1       2.176   9.585  17.884  0.00  0.00    +0.000 A 
ATOM      6  C   UNL     1       1.236   9.988  18.826  0.00  0.00    +0.000 A 
ATOM      7  C   UNL     1       0.887   9.111  19.833  0.00  0.00    +0.000 A 
ATOM      8 CL   UNL     1      -0.277   9.574  21.009  0.00  0.00    +0.000 Cl
ATOM      9  C   UNL     1       1.459   7.840  19.883  0.00  0.00    +0.000 A 
ATOM     10  C   UNL     1       2.358   7.361  18.880  0.00  0.00    +0.000 A 
ATOM     11  C   UNL     1       2.908   6.014  18.786  0.00  0.00    +0.000 A 
ENDROOT
BRANCH  11  12
ATOM     12  C   UNL     1       2.425   4.934  19.723  0.00  0.00    +0.000 A 
ATOM     13  C   UNL     1       1.315   4.123  19.394  0.00  0.00    +0.000 A 
ATOM     14  C   UNL     1       0.768   3.194  20.293  0.00  0.00    +0.000 A 
ATOM     15  C   UNL     1       1.395   2.959  21.506  0.00  0.00    +0.000 A 
ATOM     16 CL   UNL     1       0.755   1.800  22.602  0.00  0.00    +0.000 Cl
ATOM     17  C   UNL     1       2.535   3.677  21.838  0.00  0.00    +0.000 A 
ATOM     18  C   UNL     1       3.004   4.684  20.979  0.00  0.00    +0.000 A 
ENDBRANCH  11  12
BRANCH   1  20
ATOM     19  O   UNL     1       3.683   3.265  17.190  0.00  0.00    +0.000 OA
ATOM     20  S   UNL     1       4.696   4.266  17.434  0.00  0.00    +0.000 S 
ATOM     21  O   UNL     1       5.699   4.098  18.469  0.00  0.00    +0.000 OA
BRANCH  20  22
ATOM     22  C   UNL     1       5.625   4.382  15.902  0.00  0.00    +0.000 A 
ATOM     23  C   UNL     1       5.076   3.874  14.720  0.00  0.00    +0.000 A 
ATOM     24  C   UNL     1       5.783   4.017  13.525  0.00  0.00    +0.000 A 
ATOM     25  C   UNL     1       7.025   4.651  13.528  0.00  0.00    +0.000 A 
ATOM     26  F   UNL     1       7.690   4.800  12.375  0.00  0.00    +0.000 F 
ATOM     27  C   UNL     1       7.584   5.135  14.707  0.00  0.00    +0.000 A 
ATOM     28  C   UNL     1       6.887   4.994  15.906  0.00  0.00    +0.000 A 
ENDBRANCH  20  22
ENDBRANCH   1  20
TORSDOF 3
ENDMDL
MODEL 2
REMARK VINA RESULT:      -7.5      3.613      6.445
REMARK  Name = 
REMARK  3 active torsions:
REMARK  status: ('A' for Active; 'I' for Inactive)
REMARK    1  A    between atoms: S_2  and  C_4
REMARK    2  A    between atoms: S_2  and  C_11
REMARK    3  A    between atoms: C_21  and  C_22
REMARK                            x       y       z     vdW  Elec       q    Type
REMARK                         _______ _______ _______ _____ _____    ______ ____
ROOT
ATOM      1  C   UNL     1       6.470   5.136  16.626  0.00  0.00    +0.000 A 
ATOM      2  C   UNL     1       7.567   5.624  15.931  0.00  0.00    +0.000 A 
ATOM      3  N   UNL     1       7.802   5.412  14.625  0.00  0.00    +0.000 NA
ATOM      4  C   UNL     1       6.902   4.723  13.930  0.00  0.00    +0.000 A 
ATOM      5  C   UNL     1       7.204   4.520  12.591  0.00  0.00    +0.000 A 
ATOM      6  C   UNL     1       6.356   3.818  11.742  0.00  0.00    +0.000 A 
ATOM      7  C   UNL     1       5.154   3.354  12.240  0.00  0.00    +0.000 A 
ATOM      8 CL   UNL     1       4.085   2.476  11.221  0.00  0.00    +0.000 Cl
ATOM      9  C   UNL     1       4.819   3.575  13.576  0.00  0.00    +0.000 A 
ATOM     10  C   UNL     1       5.706   4.212  14.497  0.00  0.00    +0.000 A 
ATOM     11  C   UNL     1       5.491   4.377  15.929  0.00  0.00    +0.000 A 
ENDROOT
BRANCH  11  12
ATOM     12  C   UNL     1       4.303   3.725  16.595  0.00  0.00    +0.000 A 
ATOM     13  C   UNL     1       3.021   4.319  16.549  0.00  0.00    +0.000 A 
ATOM     14  C   UNL     1       1.925   3.802  17.257  0.00  0.00    +0.000 A 
ATOM     15  C   UNL     1       2.050   2.600  17.934  0.00  0.00    +0.000 A 
ATOM     16 CL   UNL     1       0.706   1.939  18.778  0.00  0.00    +0.000 Cl
ATOM     17  C   UNL     1       3.270   1.940  17.941  0.00  0.00    +0.000 A 
ATOM     18  C   UNL     1       4.387   2.526  17.324  0.00  0.00    +0.000 A 
ENDBRANCH  11  12
BRANCH   1  20
ATOM     19  O   UNL     1       7.225   6.697  18.568  0.00  0.00    +0.000 OA
ATOM     20  S   UNL     1       6.441   5.500  18.362  0.00  0.00    +0.000 S 
ATOM     21  O   UNL     1       6.738   4.265  19.062  0.00  0.00    +0.000 OA
BRANCH  20  22
ATOM     22  C   UNL     1       4.775   5.933  18.871  0.00  0.00    +0.000 A 
ATOM     23  C   UNL     1       4.143   5.194  19.876  0.00  0.00    +0.000 A 
ATOM     24  C   UNL     1       2.869   5.573  20.301  0.00  0.00    +0.000 A 
ATOM     25  C   UNL     1       2.241   6.670  19.713  0.00  0.00    +0.000 A 
ATOM     26  F   UNL     1       1.026   7.037  20.138  0.00  0.00    +0.000 F 
ATOM     27  C   UNL     1       2.857   7.392  18.695  0.00  0.00    +0.000 A 
ATOM     28  C   UNL     1       4.129   7.020  18.262  0.00  0.00    +0.000 A 
ENDBRANCH  20  22
ENDBRANCH   1  20
TORSDOF 3
ENDMDL
MODEL 3
REMARK VINA RESULT:      -7.1      9.361     13.245
REMARK  Name = 
REMARK  3 active torsions:
REMARK  status: ('A' for Active; 'I' for Inactive)
REMARK    1  A    between atoms: S_2  and  C_4
REMARK    2  A    between atoms: S_2  and  C_11
REMARK    3  A    between atoms: C_21  and  C_22
REMARK                            x       y       z     vdW  Elec       q    Type
REMARK                         _______ _______ _______ _____ _____    ______ ____
ROOT
ATOM      1  C   UNL     1      -5.177  12.650  19.091  0.00  0.00    +0.000 A 
ATOM      2  C   UNL     1      -5.156  11.814  17.985  0.00  0.00    +0.000 A 
ATOM      3  N   UNL     1      -4.092  11.097  17.588  0.00  0.00    +0.000 NA
ATOM      4  C   UNL     1      -2.988  11.151  18.326  0.00  0.00    +0.000 A 
ATOM      5  C   UNL     1      -1.915  10.405  17.859  0.00  0.00    +0.000 A 
ATOM      6  C   UNL     1      -0.697  10.366  18.529  0.00  0.00    +0.000 A 
ATOM      7  C   UNL     1      -0.572  11.054  19.719  0.00  0.00    +0.000 A 
ATOM      8 CL   UNL     1       0.922  11.035  20.568  0.00  0.00    +0.000 Cl
ATOM      9  C   UNL     1      -1.650  11.786  20.220  0.00  0.00    +0.000 A 
ATOM     10  C   UNL     1      -2.884  11.920  19.513  0.00  0.00    +0.000 A 
ATOM     11  C   UNL     1      -4.013  12.757  19.900  0.00  0.00    +0.000 A 
ENDROOT
BRANCH  11  12
ATOM     12  C   UNL     1      -3.889  13.697  21.074  0.00  0.00    +0.000 A 
ATOM     13  C   UNL     1      -3.933  13.217  22.404  0.00  0.00    +0.000 A 
ATOM     14  C   UNL     1      -3.942  14.075  23.514  0.00  0.00    +0.000 A 
ATOM     15  C   UNL     1      -3.781  15.439  23.332  0.00  0.00    +0.000 A 
ATOM     16 CL   UNL     1      -3.757  16.497  24.686  0.00  0.00    +0.000 Cl
ATOM     17  C   UNL     1      -3.654  15.948  22.048  0.00  0.00    +0.000 A 
ATOM     18  C   UNL     1      -3.762  15.091  20.940  0.00  0.00    +0.000 A 
ENDBRANCH  11  12
BRANCH   1  20
ATOM     19  O   UNL     1      -7.747  12.797  18.703  0.00  0.00    +0.000 OA
ATOM     20  S   UNL     1      -6.690  13.541  19.349  0.00  0.00    +0.000 S 
ATOM     21  O   UNL     1      -6.428  14.930  19.024  0.00  0.00    +0.000 OA
BRANCH  20  22
ATOM     22  C   UNL     1      -7.111  13.543  21.094  0.00  0.00    +0.000 A 
ATOM     23  C   UNL     1      -7.251  12.328  21.774  0.00  0.00    +0.000 A 
ATOM     24  C   UNL     1      -7.525  12.343  23.142  0.00  0.00    +0.000 A 
ATOM     25  C   UNL     1      -7.668  13.561  23.807  0.00  0.00    +0.000 A 
ATOM     26  F   UNL     1      -7.915  13.566  25.123  0.00  0.00    +0.000 F 
ATOM     27  C   UNL     1      -7.555  14.769  23.128  0.00  0.00    +0.000 A 
ATOM     28  C   UNL     1      -7.283  14.766  21.760  0.00  0.00    +0.000 A 
ENDBRANCH  20  22
ENDBRANCH   1  20
TORSDOF 3
ENDMDL
MODEL 4
REMARK VINA RESULT:      -7.1      5.505      8.360
REMARK  Name = 
REMARK  3 active torsions:
REMARK  status: ('A' for Active; 'I' for Inactive)
REMARK    1  A    between atoms: S_2  and  C_4
REMARK    2  A    between atoms: S_2  and  C_11
REMARK    3  A    between atoms: C_21  and  C_22
REMARK                            x       y       z     vdW  Elec       q    Type
REMARK                         _______ _______ _______ _____ _____    ______ ____
ROOT
ATOM      1  C   UNL     1       0.768  12.199  20.503  0.00  0.00    +0.000 A 
ATOM      2  C   UNL     1       2.022  12.682  20.845  0.00  0.00    +0.000 A 
ATOM      3  N   UNL     1       2.505  13.883  20.486  0.00  0.00    +0.000 NA
ATOM      4  C   UNL     1       1.715  14.694  19.789  0.00  0.00    +0.000 A 
ATOM      5  C   UNL     1       2.271  15.913  19.431  0.00  0.00    +0.000 A 
ATOM      6  C   UNL     1       1.562  16.861  18.701  0.00  0.00    +0.000 A 
ATOM      7  C   UNL     1       0.248  16.595  18.368  0.00  0.00    +0.000 A 
ATOM      8 CL   UNL     1      -0.655  17.741  17.461  0.00  0.00    +0.000 Cl
ATOM      9  C   UNL     1      -0.338  15.387  18.747  0.00  0.00    +0.000 A 
ATOM     10  C   UNL     1       0.389  14.355  19.416  0.00  0.00    +0.000 A 
ATOM     11  C   UNL     1      -0.105  13.023  19.741  0.00  0.00    +0.000 A 
ENDROOT
BRANCH  11  12
ATOM     12  C   UNL     1      -1.456  12.574  19.237  0.00  0.00    +0.000 A 
ATOM     13  C   UNL     1      -2.632  12.816  19.984  0.00  0.00    +0.000 A 
ATOM     14  C   UNL     1      -3.884  12.308  19.603  0.00  0.00    +0.000 A 
ATOM     15  C   UNL     1      -4.018  11.646  18.393  0.00  0.00    +0.000 A 
ATOM     16 CL   UNL     1      -5.553  11.048  17.900  0.00  0.00    +0.000 Cl
ATOM     17  C   UNL     1      -2.905  11.455  17.589  0.00  0.00    +0.000 A 
ATOM     18  C   UNL     1      -1.639  11.867  18.036  0.00  0.00    +0.000 A 
ENDBRANCH  11  12
BRANCH   1  20
ATOM     19  O   UNL     1      -1.013  10.340  20.888  0.00  0.00    +0.000 OA
ATOM     20  S   UNL     1       0.408  10.549  21.044  0.00  0.00    +0.000 S 
ATOM     21  O   UNL     1       1.069  10.365  22.323  0.00  0.00    +0.000 OA
BRANCH  20  22
ATOM     22  C   UNL     1       1.184   9.360  19.945  0.00  0.00    +0.000 A 
ATOM     23  C   UNL     1       1.355   9.676  18.593  0.00  0.00    +0.000 A 
ATOM     24  C   UNL     1       2.008   8.766  17.760  0.00  0.00    +0.000 A 
ATOM     25  C   UNL     1       2.468   7.557  18.280  0.00  0.00    +0.000 A 
ATOM     26  F   UNL     1       3.109   6.697  17.478  0.00  0.00    +0.000 F 
ATOM     27  C   UNL     1       2.277   7.230  19.619  0.00  0.00    +0.000 A 
ATOM     28  C   UNL     1       1.624   8.131  20.460  0.00  0.00    +0.000 A 
ENDBRANCH  20  22
ENDBRANCH   1  20
TORSDOF 3
ENDMDL
MODEL 5
REMARK VINA RESULT:      -7.0      5.702      8.574
REMARK  Name = 
REMARK  3 active torsions:
REMARK  status: ('A' for Active; 'I' for Inactive)
REMARK    1  A    between atoms: S_2  and  C_4
REMARK    2  A    between atoms: S_2  and  C_11
REMARK    3  A    between atoms: C_21  and  C_22
REMARK                            x       y       z     vdW  Elec       q    Type
REMARK                         _______ _______ _______ _____ _____    ______ ____
ROOT
ATOM      1  C   UNL     1      -1.031  11.145  19.285  0.00  0.00    +0.000 A 
ATOM      2  C   UNL     1      -1.297  10.378  18.160  0.00  0.00    +0.000 A 
ATOM      3  N   UNL     1      -2.494  10.297  17.554  0.00  0.00    +0.000 NA
ATOM      4  C   UNL     1      -3.490  11.035  18.032  0.00  0.00    +0.000 A 
ATOM      5  C   UNL     1      -4.707  10.899  17.379  0.00  0.00    +0.000 A 
ATOM      6  C   UNL     1      -5.836  11.610  17.769  0.00  0.00    +0.000 A 
ATOM      7  C   UNL     1      -5.727  12.513  18.807  0.00  0.00    +0.000 A 
ATOM      8 CL   UNL     1      -7.105  13.402  19.320  0.00  0.00    +0.000 Cl
ATOM      9  C   UNL     1      -4.504  12.686  19.457  0.00  0.00    +0.000 A 
ATOM     10  C   UNL     1      -3.348  11.908  19.142  0.00  0.00    +0.000 A 
ATOM     11  C   UNL     1      -2.072  11.936  19.845  0.00  0.00    +0.000 A 
ENDROOT
BRANCH  11  12
ATOM     12  C   UNL     1      -1.925  12.741  21.113  0.00  0.00    +0.000 A 
ATOM     13  C   UNL     1      -1.277  13.998  21.111  0.00  0.00    +0.000 A 
ATOM     14  C   UNL     1      -1.018  14.714  22.290  0.00  0.00    +0.000 A 
ATOM     15  C   UNL     1      -1.513  14.251  23.499  0.00  0.00    +0.000 A 
ATOM     16 CL   UNL     1      -1.231  15.136  24.945  0.00  0.00    +0.000 Cl
ATOM     17  C   UNL     1      -2.224  13.061  23.537  0.00  0.00    +0.000 A 
ATOM     18  C   UNL     1      -2.376  12.297  22.368  0.00  0.00    +0.000 A 
ENDBRANCH  11  12
BRANCH   1  20
ATOM     19  O   UNL     1       0.511  10.869  21.364  0.00  0.00    +0.000 OA
ATOM     20  S   UNL     1       0.616  11.012  19.930  0.00  0.00    +0.000 S 
ATOM     21  O   UNL     1       1.397  12.075  19.326  0.00  0.00    +0.000 OA
BRANCH  20  22
ATOM     22  C   UNL     1       1.379   9.491  19.357  0.00  0.00    +0.000 A 
ATOM     23  C   UNL     1       1.900   9.424  18.061  0.00  0.00    +0.000 A 
ATOM     24  C   UNL     1       2.539   8.255  17.645  0.00  0.00    +0.000 A 
ATOM     25  C   UNL     1       2.638   7.172  18.518  0.00  0.00    +0.000 A 
ATOM     26  F   UNL     1       3.267   6.060  18.117  0.00  0.00    +0.000 F 
ATOM     27  C   UNL     1       2.098   7.228  19.799  0.00  0.00    +0.000 A 
ATOM     28  C   UNL     1       1.456   8.390  20.223  0.00  0.00    +0.000 A 
ENDBRANCH  20  22
ENDBRANCH   1  20
TORSDOF 3
ENDMDL
MODEL 6
REMARK VINA RESULT:      -7.0      6.235      9.113
REMARK  Name = 
REMARK  3 active torsions:
REMARK  status: ('A' for Active; 'I' for Inactive)
REMARK    1  A    between atoms: S_2  and  C_4
REMARK    2  A    between atoms: S_2  and  C_11
REMARK    3  A    between atoms: C_21  and  C_22
REMARK                            x       y       z     vdW  Elec       q    Type
REMARK                         _______ _______ _______ _____ _____    ______ ____
ROOT
ATOM      1  C   UNL     1      -1.527  11.548  19.540  0.00  0.00    +0.000 A 
ATOM      2  C   UNL     1      -1.707  10.859  18.349  0.00  0.00    +0.000 A 
ATOM      3  N   UNL     1      -2.870  10.771  17.683  0.00  0.00    +0.000 NA
ATOM      4  C   UNL     1      -3.921  11.425  18.167  0.00  0.00    +0.000 A 
ATOM      5  C   UNL     1      -5.099  11.285  17.449  0.00  0.00    +0.000 A 
ATOM      6  C   UNL     1      -6.278  11.913  17.837  0.00  0.00    +0.000 A 
ATOM      7  C   UNL     1      -6.258  12.738  18.944  0.00  0.00    +0.000 A 
ATOM      8 CL   UNL     1      -7.699  13.522  19.455  0.00  0.00    +0.000 Cl
ATOM      9  C   UNL     1      -5.075  12.915  19.661  0.00  0.00    +0.000 A 
ATOM     10  C   UNL     1      -3.870  12.216  19.344  0.00  0.00    +0.000 A 
ATOM     11  C   UNL     1      -2.628  12.247  20.107  0.00  0.00    +0.000 A 
ENDROOT
BRANCH  11  12
ATOM     12  C   UNL     1      -2.576  12.958  21.437  0.00  0.00    +0.000 A 
ATOM     13  C   UNL     1      -3.101  12.362  22.607  0.00  0.00    +0.000 A 
ATOM     14  C   UNL     1      -3.177  13.044  23.831  0.00  0.00    +0.000 A 
ATOM     15  C   UNL     1      -2.613  14.304  23.953  0.00  0.00    +0.000 A 
ATOM     16 CL   UNL     1      -2.669  15.136  25.456  0.00  0.00    +0.000 Cl
ATOM     17  C   UNL     1      -2.015  14.896  22.850  0.00  0.00    +0.000 A 
ATOM     18  C   UNL     1      -2.048  14.250  21.604  0.00  0.00    +0.000 A 
ENDBRANCH  11  12
BRANCH   1  20
ATOM     19  O   UNL     1      -0.066  11.208  21.667  0.00  0.00    +0.000 OA
ATOM     20  S   UNL     1       0.095  11.441  20.250  0.00  0.00    +0.000 S 
ATOM     21  O   UNL     1       0.857  12.568  19.745  0.00  0.00    +0.000 OA
BRANCH  20  22
ATOM     22  C   UNL     1       0.944   9.988  19.624  0.00  0.00    +0.000 A 
ATOM     23  C   UNL     1       1.444   9.988  18.318  0.00  0.00    +0.000 A 
ATOM     24  C   UNL     1       2.150   8.873  17.861  0.00  0.00    +0.000 A 
ATOM     25  C   UNL     1       2.334   7.777  18.703  0.00  0.00    +0.000 A 
ATOM     26  F   UNL     1       3.026   6.719  18.263  0.00  0.00    +0.000 F 
ATOM     27  C   UNL     1       1.815   7.765  19.994  0.00  0.00    +0.000 A 
ATOM     28  C   UNL     1       1.107   8.873  20.460  0.00  0.00    +0.000 A 
ENDBRANCH  20  22
ENDBRANCH   1  20
TORSDOF 3
ENDMDL
MODEL 7
REMARK VINA RESULT:      -7.0      6.310      9.204
REMARK  Name = 
REMARK  3 active torsions:
REMARK  status: ('A' for Active; 'I' for Inactive)
REMARK    1  A    between atoms: S_2  and  C_4
REMARK    2  A    between atoms: S_2  and  C_11
REMARK    3  A    between atoms: C_21  and  C_22
REMARK                            x       y       z     vdW  Elec       q    Type
REMARK                         _______ _______ _______ _____ _____    ______ ____
ROOT
ATOM      1  C   UNL     1      -1.655  11.532  19.665  0.00  0.00    +0.000 A 
ATOM      2  C   UNL     1      -1.784  10.833  18.474  0.00  0.00    +0.000 A 
ATOM      3  N   UNL     1      -2.916  10.748  17.756  0.00  0.00    +0.000 NA
ATOM      4  C   UNL     1      -3.984  11.413  18.186  0.00  0.00    +0.000 A 
ATOM      5  C   UNL     1      -5.129  11.274  17.415  0.00  0.00    +0.000 A 
ATOM      6  C   UNL     1      -6.320  11.912  17.743  0.00  0.00    +0.000 A 
ATOM      7  C   UNL     1      -6.344  12.747  18.843  0.00  0.00    +0.000 A 
ATOM      8 CL   UNL     1      -7.802  13.544  19.282  0.00  0.00    +0.000 Cl
ATOM      9  C   UNL     1      -5.194  12.923  19.613  0.00  0.00    +0.000 A 
ATOM     10  C   UNL     1      -3.981  12.213  19.357  0.00  0.00    +0.000 A 
ATOM     11  C   UNL     1      -2.775  12.242  20.175  0.00  0.00    +0.000 A 
ENDROOT
BRANCH  11  12
ATOM     12  C   UNL     1      -2.779  12.965  21.501  0.00  0.00    +0.000 A 
ATOM     13  C   UNL     1      -2.198  14.247  21.637  0.00  0.00    +0.000 A 
ATOM     14  C   UNL     1      -2.078  14.892  22.877  0.00  0.00    +0.000 A 
ATOM     15  C   UNL     1      -2.651  14.326  24.005  0.00  0.00    +0.000 A 
ATOM     16 CL   UNL     1      -2.540  15.122  25.525  0.00  0.00    +0.000 Cl
ATOM     17  C   UNL     1      -3.301  13.105  23.904  0.00  0.00    +0.000 A 
ATOM     18  C   UNL     1      -3.313  12.417  22.680  0.00  0.00    +0.000 A 
ENDBRANCH  11  12
BRANCH   1  20
ATOM     19  O   UNL     1      -0.288  11.025  21.822  0.00  0.00    +0.000 OA
ATOM     20  S   UNL     1      -0.067  11.420  20.450  0.00  0.00    +0.000 S 
ATOM     21  O   UNL     1       0.661  12.629  20.113  0.00  0.00    +0.000 OA
BRANCH  20  22
ATOM     22  C   UNL     1       0.885  10.085  19.720  0.00  0.00    +0.000 A 
ATOM     23  C   UNL     1       1.095   8.908  20.445  0.00  0.00    +0.000 A 
ATOM     24  C   UNL     1       1.791   7.856  19.848  0.00  0.00    +0.000 A 
ATOM     25  C   UNL     1       2.276   7.996  18.547  0.00  0.00    +0.000 A 
ATOM     26  F   UNL     1       2.928   6.976  17.976  0.00  0.00    +0.000 F 
ATOM     27  C   UNL     1       2.090   9.176  17.833  0.00  0.00    +0.000 A 
ATOM     28  C   UNL     1       1.398  10.234  18.422  0.00  0.00    +0.000 A 
ENDBRANCH  20  22
ENDBRANCH   1  20
TORSDOF 3
ENDMDL
MODEL 8
REMARK VINA RESULT:      -6.9      9.552     11.028
REMARK  Name = 
REMARK  3 active torsions:
REMARK  status: ('A' for Active; 'I' for Inactive)
REMARK    1  A    between atoms: S_2  and  C_4
REMARK    2  A    between atoms: S_2  and  C_11
REMARK    3  A    between atoms: C_21  and  C_22
REMARK                            x       y       z     vdW  Elec       q    Type
REMARK                         _______ _______ _______ _____ _____    ______ ____
ROOT
ATOM      1  C   UNL     1       6.907  14.167  22.317  0.00  0.00    +0.000 A 
ATOM      2  C   UNL     1       5.920  13.847  23.239  0.00  0.00    +0.000 A 
ATOM      3  N   UNL     1       4.606  14.056  23.056  0.00  0.00    +0.000 NA
ATOM      4  C   UNL     1       4.207  14.565  21.894  0.00  0.00    +0.000 A 
ATOM      5  C   UNL     1       2.841  14.776  21.767  0.00  0.00    +0.000 A 
ATOM      6  C   UNL     1       2.281  15.301  20.608  0.00  0.00    +0.000 A 
ATOM      7  C   UNL     1       3.108  15.574  19.537  0.00  0.00    +0.000 A 
ATOM      8 CL   UNL     1       2.450  16.233  18.092  0.00  0.00    +0.000 Cl
ATOM      9  C   UNL     1       4.480  15.340  19.634  0.00  0.00    +0.000 A 
ATOM     10  C   UNL     1       5.099  14.887  20.840  0.00  0.00    +0.000 A 
ATOM     11  C   UNL     1       6.530  14.732  21.069  0.00  0.00    +0.000 A 
ENDROOT
BRANCH  11  12
ATOM     12  C   UNL     1       7.517  15.198  20.026  0.00  0.00    +0.000 A 
ATOM     13  C   UNL     1       7.783  14.425  18.872  0.00  0.00    +0.000 A 
ATOM     14  C   UNL     1       8.780  14.770  17.947  0.00  0.00    +0.000 A 
ATOM     15  C   UNL     1       9.459  15.970  18.083  0.00  0.00    +0.000 A 
ATOM     16 CL   UNL     1      10.659  16.420  16.938  0.00  0.00    +0.000 Cl
ATOM     17  C   UNL     1       9.175  16.799  19.158  0.00  0.00    +0.000 A 
ATOM     18  C   UNL     1       8.257  16.388  20.138  0.00  0.00    +0.000 A 
ENDBRANCH  11  12
BRANCH   1  20
ATOM     19  O   UNL     1       8.514  12.916  23.938  0.00  0.00    +0.000 OA
ATOM     20  S   UNL     1       8.573  13.855  22.841  0.00  0.00    +0.000 S 
ATOM     21  O   UNL     1       9.226  15.143  22.976  0.00  0.00    +0.000 OA
BRANCH  20  22
ATOM     22  C   UNL     1       9.477  13.009  21.542  0.00  0.00    +0.000 A 
ATOM     23  C   UNL     1       9.040  11.757  21.097  0.00  0.00    +0.000 A 
ATOM     24  C   UNL     1       9.719  11.133  20.049  0.00  0.00    +0.000 A 
ATOM     25  C   UNL     1      10.825  11.757  19.471  0.00  0.00    +0.000 A 
ATOM     26  F   UNL     1      11.460  11.160  18.455  0.00  0.00    +0.000 F 
ATOM     27  C   UNL     1      11.276  12.991  19.929  0.00  0.00    +0.000 A 
ATOM     28  C   UNL     1      10.606  13.622  20.977  0.00  0.00    +0.000 A 
ENDBRANCH  20  22
ENDBRANCH   1  20
TORSDOF 3
ENDMDL
MODEL 9
REMARK VINA RESULT:      -6.8      8.166      9.671
REMARK  Name = 
REMARK  3 active torsions:
REMARK  status: ('A' for Active; 'I' for Inactive)
REMARK    1  A    between atoms: S_2  and  C_4
REMARK    2  A    between atoms: S_2  and  C_11
REMARK    3  A    between atoms: C_21  and  C_22
REMARK                            x       y       z     vdW  Elec       q    Type
REMARK                         _______ _______ _______ _____ _____    ______ ____
ROOT
ATOM      1  C   UNL     1      -0.945  11.066  18.860  0.00  0.00    +0.000 A 
ATOM      2  C   UNL     1      -1.307  10.293  17.767  0.00  0.00    +0.000 A 
ATOM      3  N   UNL     1      -2.558  10.176  17.293  0.00  0.00    +0.000 NA
ATOM      4  C   UNL     1      -3.520  10.882  17.878  0.00  0.00    +0.000 A 
ATOM      5  C   UNL     1      -4.794  10.709  17.358  0.00  0.00    +0.000 A 
ATOM      6  C   UNL     1      -5.897  11.384  17.870  0.00  0.00    +0.000 A 
ATOM      7  C   UNL     1      -5.704  12.289  18.895  0.00  0.00    +0.000 A 
ATOM      8 CL   UNL     1      -7.046  13.134  19.556  0.00  0.00    +0.000 Cl
ATOM      9  C   UNL     1      -4.425  12.499  19.410  0.00  0.00    +0.000 A 
ATOM     10  C   UNL     1      -3.287  11.757  18.970  0.00  0.00    +0.000 A 
ATOM     11  C   UNL     1      -1.943  11.824  19.532  0.00  0.00    +0.000 A 
ENDROOT
BRANCH  11  12
ATOM     12  C   UNL     1      -1.686  12.632  20.781  0.00  0.00    +0.000 A 
ATOM     13  C   UNL     1      -1.636  12.017  22.053  0.00  0.00    +0.000 A 
ATOM     14  C   UNL     1      -1.519  12.753  23.242  0.00  0.00    +0.000 A 
ATOM     15  C   UNL     1      -1.323  14.124  23.185  0.00  0.00    +0.000 A 
ATOM     16 CL   UNL     1      -1.145  15.033  24.633  0.00  0.00    +0.000 Cl
ATOM     17  C   UNL     1      -1.285  14.760  21.954  0.00  0.00    +0.000 A 
ATOM     18  C   UNL     1      -1.518  14.028  20.779  0.00  0.00    +0.000 A 
ENDBRANCH  11  12
BRANCH   1  20
ATOM     19  O   UNL     1       1.493  10.435  18.203  0.00  0.00    +0.000 OA
ATOM     20  S   UNL     1       0.765  10.985  19.324  0.00  0.00    +0.000 S 
ATOM     21  O   UNL     1       0.822  10.377  20.640  0.00  0.00    +0.000 OA
BRANCH  20  22
ATOM     22  C   UNL     1       1.421  12.641  19.547  0.00  0.00    +0.000 A 
ATOM     23  C   UNL     1       1.343  13.563  18.499  0.00  0.00    +0.000 A 
ATOM     24  C   UNL     1       1.807  14.864  18.702  0.00  0.00    +0.000 A 
ATOM     25  C   UNL     1       2.349  15.221  19.937  0.00  0.00    +0.000 A 
ATOM     26  F   UNL     1       2.776  16.475  20.129  0.00  0.00    +0.000 F 
ATOM     27  C   UNL     1       2.450  14.298  20.973  0.00  0.00    +0.000 A 
ATOM     28  C   UNL     1       1.992  12.995  20.779  0.00  0.00    +0.000 A 
ENDBRANCH  20  22
ENDBRANCH   1  20
TORSDOF 3
ENDMDL
