MODEL 1
REMARK VINA RESULT:      -8.1      0.000      0.000
REMARK  Name = 
REMARK  5 active torsions:
REMARK  status: ('A' for Active; 'I' for Inactive)
REMARK    1  A    between atoms: N_1  and  C_2
REMARK    2  A    between atoms: C_2  and  C_3
REMARK    3  A    between atoms: C_3  and  C_4
REMARK    4  A    between atoms: C_8  and  C_9
REMARK    5  A    between atoms: C_16  and  C_17
REMARK                            x       y       z     vdW  Elec       q    Type
REMARK                         _______ _______ _______ _____ _____    ______ ____
ROOT
ATOM      1  C   UNL     1       1.490   8.904  19.909  0.00  0.00    +0.000 A 
ATOM      2  C   UNL     1       1.662   9.231  18.559  0.00  0.00    +0.000 A 
ATOM      3  C   UNL     1       2.023   8.260  17.634  0.00  0.00    +0.000 A 
ATOM      4  C   UNL     1       2.224   6.943  18.050  0.00  0.00    +0.000 A 
ATOM      5  C   UNL     1       2.277   6.601  19.400  0.00  0.00    +0.000 A 
ATOM      6  C   UNL     1       1.923   7.621  20.306  0.00  0.00    +0.000 A 
ENDROOT
BRANCH   5   7
ATOM      7  C   UNL     1       2.565   5.236  19.889  0.00  0.00    +0.000 A 
ATOM      8  C   UNL     1       1.683   4.635  20.822  0.00  0.00    +0.000 A 
ATOM      9  C   UNL     1       1.928   3.368  21.331  0.00  0.00    +0.000 A 
ATOM     10  N   UNL     1       2.971   2.605  20.987  0.00  0.00    +0.000 NA
ATOM     11  C   UNL     1       3.786   3.187  20.092  0.00  0.00    +0.000 A 
ATOM     12  N   UNL     1       4.899   2.590  19.599  0.00  0.00    +0.000 N 
ATOM     13  N   UNL     1       5.573   3.341  18.724  0.00  0.00    +0.000 NA
ATOM     14  C   UNL     1       4.875   4.501  18.666  0.00  0.00    +0.000 A 
ATOM     15  C   UNL     1       3.690   4.450  19.501  0.00  0.00    +0.000 A 
ATOM     16  H   UNL     1       5.233   1.660  19.824  0.00  0.00    +0.000 HD
BRANCH  14  17
ATOM     17  C   UNL     1       5.402   5.604  17.781  0.00  0.00    +0.000 C 
ATOM     18  F   UNL     1       4.706   5.726  16.614  0.00  0.00    +0.000 F 
ATOM     19  F   UNL     1       5.317   6.828  18.373  0.00  0.00    +0.000 F 
ATOM     20  F   UNL     1       6.697   5.416  17.422  0.00  0.00    +0.000 F 
ENDBRANCH  14  17
ENDBRANCH   5   7
BRANCH   1  21
ATOM     21  C   UNL     1       0.733   9.886  20.949  0.00  0.00    +0.000 C 
ATOM     22  C   UNL     1      -0.749  10.294  20.567  0.00  0.00    +0.000 C 
ATOM     23  C   UNL     1      -0.153  11.477  19.779  0.00  0.00    +0.000 C 
ATOM     24  C   UNL     1       1.041  11.425  20.750  0.00  0.00    +0.000 C 
BRANCH  21  25
ATOM     25  C   UNL     1       0.928   9.418  22.398  0.00  0.00    +0.000 C 
BRANCH  25  26
ATOM     26  N   UNL     1      -0.036  10.034  23.313  0.00  0.00    +0.000 NA
ATOM     27  H   UNL     1       0.471  10.503  24.061  0.00  0.00    +0.000 HD
ATOM     28  H   UNL     1      -0.569   9.294  23.774  0.00  0.00    +0.000 HD
ENDBRANCH  25  26
ENDBRANCH  21  25
ENDBRANCH   1  21
TORSDOF 5
ENDMDL
MODEL 2
REMARK VINA RESULT:      -8.0      0.685      1.295
REMARK  Name = 
REMARK  5 active torsions:
REMARK  status: ('A' for Active; 'I' for Inactive)
REMARK    1  A    between atoms: N_1  and  C_2
REMARK    2  A    between atoms: C_2  and  C_3
REMARK    3  A    between atoms: C_3  and  C_4
REMARK    4  A    between atoms: C_8  and  C_9
REMARK    5  A    between atoms: C_16  and  C_17
REMARK                            x       y       z     vdW  Elec       q    Type
REMARK                         _______ _______ _______ _____ _____    ______ ____
ROOT
ATOM      1  C   UNL     1       1.498   8.978  19.862  0.00  0.00    +0.000 A 
ATOM      2  C   UNL     1       1.664   9.298  18.509  0.00  0.00    +0.000 A 
ATOM      3  C   UNL     1       2.022   8.323  17.588  0.00  0.00    +0.000 A 
ATOM      4  C   UNL     1       2.228   7.008  18.010  0.00  0.00    +0.000 A 
ATOM      5  C   UNL     1       2.288   6.674  19.361  0.00  0.00    +0.000 A 
ATOM      6  C   UNL     1       1.935   7.698  20.263  0.00  0.00    +0.000 A 
ENDROOT
BRANCH   5   7
ATOM      7  C   UNL     1       2.580   5.312  19.855  0.00  0.00    +0.000 A 
ATOM      8  C   UNL     1       1.705   4.715  20.797  0.00  0.00    +0.000 A 
ATOM      9  C   UNL     1       1.955   3.452  21.312  0.00  0.00    +0.000 A 
ATOM     10  N   UNL     1       2.997   2.688  20.966  0.00  0.00    +0.000 NA
ATOM     11  C   UNL     1       3.805   3.266  20.063  0.00  0.00    +0.000 A 
ATOM     12  N   UNL     1       4.916   2.667  19.566  0.00  0.00    +0.000 N 
ATOM     13  N   UNL     1       5.583   3.415  18.683  0.00  0.00    +0.000 NA
ATOM     14  C   UNL     1       4.884   4.573  18.622  0.00  0.00    +0.000 A 
ATOM     15  C   UNL     1       3.704   4.525  19.466  0.00  0.00    +0.000 A 
ATOM     16  H   UNL     1       5.253   1.739  19.794  0.00  0.00    +0.000 HD
BRANCH  14  17
ATOM     17  C   UNL     1       5.403   5.672  17.728  0.00  0.00    +0.000 C 
ATOM     18  F   UNL     1       4.712   5.774  16.557  0.00  0.00    +0.000 F 
ATOM     19  F   UNL     1       5.304   6.901  18.307  0.00  0.00    +0.000 F 
ATOM     20  F   UNL     1       6.702   5.493  17.376  0.00  0.00    +0.000 F 
ENDBRANCH  14  17
ENDBRANCH   5   7
BRANCH   1  21
ATOM     21  C   UNL     1       0.744   9.964  20.899  0.00  0.00    +0.000 C 
ATOM     22  C   UNL     1       0.780   9.530  22.422  0.00  0.00    +0.000 C 
ATOM     23  C   UNL     1      -0.502   8.718  22.156  0.00  0.00    +0.000 C 
ATOM     24  C   UNL     1      -0.814   9.722  21.029  0.00  0.00    +0.000 C 
BRANCH  21  25
ATOM     25  C   UNL     1       1.102  11.433  20.631  0.00  0.00    +0.000 C 
BRANCH  25  26
ATOM     26  N   UNL     1       0.559  12.331  21.654  0.00  0.00    +0.000 NA
ATOM     27  H   UNL     1       0.552  13.281  21.289  0.00  0.00    +0.000 HD
ATOM     28  H   UNL     1       1.204  12.352  22.445  0.00  0.00    +0.000 HD
ENDBRANCH  25  26
ENDBRANCH  21  25
ENDBRANCH   1  21
TORSDOF 5
ENDMDL
MODEL 3
REMARK VINA RESULT:      -7.9      0.807      1.119
REMARK  Name = 
REMARK  5 active torsions:
REMARK  status: ('A' for Active; 'I' for Inactive)
REMARK    1  A    between atoms: N_1  and  C_2
REMARK    2  A    between atoms: C_2  and  C_3
REMARK    3  A    between atoms: C_3  and  C_4
REMARK    4  A    between atoms: C_8  and  C_9
REMARK    5  A    between atoms: C_16  and  C_17
REMARK                            x       y       z     vdW  Elec       q    Type
REMARK                         _______ _______ _______ _____ _____    ______ ____
ROOT
ATOM      1  C   UNL     1       1.547   8.656  19.630  0.00  0.00    +0.000 A 
ATOM      2  C   UNL     1       2.089   8.944  18.372  0.00  0.00    +0.000 A 
ATOM      3  C   UNL     1       2.588   7.930  17.565  0.00  0.00    +0.000 A 
ATOM      4  C   UNL     1       2.559   6.608  18.010  0.00  0.00    +0.000 A 
ATOM      5  C   UNL     1       2.232   6.285  19.325  0.00  0.00    +0.000 A 
ATOM      6  C   UNL     1       1.748   7.347  20.116  0.00  0.00    +0.000 A 
ENDROOT
BRANCH   5   7
ATOM      7  C   UNL     1       2.263   4.908  19.862  0.00  0.00    +0.000 A 
ATOM      8  C   UNL     1       1.128   4.408  20.549  0.00  0.00    +0.000 A 
ATOM      9  C   UNL     1       1.122   3.134  21.096  0.00  0.00    +0.000 A 
ATOM     10  N   UNL     1       2.140   2.271  21.013  0.00  0.00    +0.000 NA
ATOM     11  C   UNL     1       3.200   2.759  20.347  0.00  0.00    +0.000 A 
ATOM     12  N   UNL     1       4.338   2.053  20.137  0.00  0.00    +0.000 N 
ATOM     13  N   UNL     1       5.272   2.723  19.457  0.00  0.00    +0.000 NA
ATOM     14  C   UNL     1       4.721   3.941  19.235  0.00  0.00    +0.000 A 
ATOM     15  C   UNL     1       3.370   4.015  19.757  0.00  0.00    +0.000 A 
ATOM     16  H   UNL     1       4.518   1.100  20.432  0.00  0.00    +0.000 HD
BRANCH  14  17
ATOM     17  C   UNL     1       5.549   4.974  18.511  0.00  0.00    +0.000 C 
ATOM     18  F   UNL     1       6.857   4.611  18.383  0.00  0.00    +0.000 F 
ATOM     19  F   UNL     1       5.114   5.186  17.238  0.00  0.00    +0.000 F 
ATOM     20  F   UNL     1       5.558   6.176  19.142  0.00  0.00    +0.000 F 
ENDBRANCH  14  17
ENDBRANCH   5   7
BRANCH   1  21
ATOM     21  C   UNL     1       0.638   9.717  20.446  0.00  0.00    +0.000 C 
ATOM     22  C   UNL     1      -0.667  10.227  19.707  0.00  0.00    +0.000 C 
ATOM     23  C   UNL     1       0.196  11.342  19.086  0.00  0.00    +0.000 C 
ATOM     24  C   UNL     1       1.107  11.223  20.323  0.00  0.00    +0.000 C 
BRANCH  21  25
ATOM     25  C   UNL     1       0.432   9.269  21.900  0.00  0.00    +0.000 C 
BRANCH  25  26
ATOM     26  N   UNL     1       1.569   9.624  22.754  0.00  0.00    +0.000 NA
ATOM     27  H   UNL     1       1.843   8.806  23.295  0.00  0.00    +0.000 HD
ATOM     28  H   UNL     1       1.257  10.310  23.445  0.00  0.00    +0.000 HD
ENDBRANCH  25  26
ENDBRANCH  21  25
ENDBRANCH   1  21
TORSDOF 5
ENDMDL
MODEL 4
REMARK VINA RESULT:      -7.8      2.701      3.933
REMARK  Name = 
REMARK  5 active torsions:
REMARK  status: ('A' for Active; 'I' for Inactive)
REMARK    1  A    between atoms: N_1  and  C_2
REMARK    2  A    between atoms: C_2  and  C_3
REMARK    3  A    between atoms: C_3  and  C_4
REMARK    4  A    between atoms: C_8  and  C_9
REMARK    5  A    between atoms: C_16  and  C_17
REMARK                            x       y       z     vdW  Elec       q    Type
REMARK                         _______ _______ _______ _____ _____    ______ ____
ROOT
ATOM      1  C   UNL     1       0.670   9.711  19.669  0.00  0.00    +0.000 A 
ATOM      2  C   UNL     1       0.423   9.340  20.995  0.00  0.00    +0.000 A 
ATOM      3  C   UNL     1       1.052   8.235  21.552  0.00  0.00    +0.000 A 
ATOM      4  C   UNL     1       1.937   7.477  20.784  0.00  0.00    +0.000 A 
ATOM      5  C   UNL     1       2.060   7.666  19.409  0.00  0.00    +0.000 A 
ATOM      6  C   UNL     1       1.389   8.787  18.882  0.00  0.00    +0.000 A 
ENDROOT
BRANCH   5   7
ATOM      7  C   UNL     1       2.924   6.837  18.543  0.00  0.00    +0.000 A 
ATOM      8  C   UNL     1       3.729   7.468  17.561  0.00  0.00    +0.000 A 
ATOM      9  C   UNL     1       4.533   6.730  16.706  0.00  0.00    +0.000 A 
ATOM     10  N   UNL     1       4.644   5.397  16.736  0.00  0.00    +0.000 NA
ATOM     11  C   UNL     1       3.884   4.820  17.682  0.00  0.00    +0.000 A 
ATOM     12  N   UNL     1       3.849   3.481  17.894  0.00  0.00    +0.000 N 
ATOM     13  N   UNL     1       3.026   3.113  18.879  0.00  0.00    +0.000 NA
ATOM     14  C   UNL     1       2.476   4.272  19.313  0.00  0.00    +0.000 A 
ATOM     15  C   UNL     1       3.016   5.414  18.601  0.00  0.00    +0.000 A 
ATOM     16  H   UNL     1       4.382   2.778  17.395  0.00  0.00    +0.000 HD
BRANCH  14  17
ATOM     17  C   UNL     1       1.449   4.203  20.417  0.00  0.00    +0.000 C 
ATOM     18  F   UNL     1       0.929   2.952  20.580  0.00  0.00    +0.000 F 
ATOM     19  F   UNL     1       1.972   4.530  21.631  0.00  0.00    +0.000 F 
ATOM     20  F   UNL     1       0.387   5.019  20.198  0.00  0.00    +0.000 F 
ENDBRANCH  14  17
ENDBRANCH   5   7
BRANCH   1  21
ATOM     21  C   UNL     1       0.262  11.163  19.084  0.00  0.00    +0.000 C 
ATOM     22  C   UNL     1       1.450  12.045  18.520  0.00  0.00    +0.000 C 
ATOM     23  C   UNL     1       1.635  12.596  19.947  0.00  0.00    +0.000 C 
ATOM     24  C   UNL     1       0.140  12.305  20.173  0.00  0.00    +0.000 C 
BRANCH  21  25
ATOM     25  C   UNL     1      -0.971  11.070  18.173  0.00  0.00    +0.000 C 
BRANCH  25  26
ATOM     26  N   UNL     1      -1.312  12.360  17.569  0.00  0.00    +0.000 NA
ATOM     27  H   UNL     1      -2.130  12.741  18.043  0.00  0.00    +0.000 HD
ATOM     28  H   UNL     1      -1.611  12.201  16.605  0.00  0.00    +0.000 HD
ENDBRANCH  25  26
ENDBRANCH  21  25
ENDBRANCH   1  21
TORSDOF 5
ENDMDL
MODEL 5
REMARK VINA RESULT:      -7.8      2.691      3.845
REMARK  Name = 
REMARK  5 active torsions:
REMARK  status: ('A' for Active; 'I' for Inactive)
REMARK    1  A    between atoms: N_1  and  C_2
REMARK    2  A    between atoms: C_2  and  C_3
REMARK    3  A    between atoms: C_3  and  C_4
REMARK    4  A    between atoms: C_8  and  C_9
REMARK    5  A    between atoms: C_16  and  C_17
REMARK                            x       y       z     vdW  Elec       q    Type
REMARK                         _______ _______ _______ _____ _____    ______ ____
ROOT
ATOM      1  C   UNL     1       1.333   8.896  19.242  0.00  0.00    +0.000 A 
ATOM      2  C   UNL     1       1.049   8.569  20.573  0.00  0.00    +0.000 A 
ATOM      3  C   UNL     1       1.604   7.440  21.161  0.00  0.00    +0.000 A 
ATOM      4  C   UNL     1       2.451   6.614  20.420  0.00  0.00    +0.000 A 
ATOM      5  C   UNL     1       2.602   6.767  19.043  0.00  0.00    +0.000 A 
ATOM      6  C   UNL     1       2.006   7.915  18.484  0.00  0.00    +0.000 A 
ENDROOT
BRANCH   5   7
ATOM      7  C   UNL     1       3.425   5.870  18.206  0.00  0.00    +0.000 A 
ATOM      8  C   UNL     1       4.286   6.431  17.229  0.00  0.00    +0.000 A 
ATOM      9  C   UNL     1       5.055   5.629  16.400  0.00  0.00    +0.000 A 
ATOM     10  N   UNL     1       5.079   4.293  16.453  0.00  0.00    +0.000 NA
ATOM     11  C   UNL     1       4.268   3.782  17.394  0.00  0.00    +0.000 A 
ATOM     12  N   UNL     1       4.142   2.451  17.626  0.00  0.00    +0.000 N 
ATOM     13  N   UNL     1       3.280   2.153  18.602  0.00  0.00    +0.000 NA
ATOM     14  C   UNL     1       2.799   3.352  19.008  0.00  0.00    +0.000 A 
ATOM     15  C   UNL     1       3.424   4.446  18.288  0.00  0.00    +0.000 A 
ATOM     16  H   UNL     1       4.637   1.707  17.148  0.00  0.00    +0.000 HD
BRANCH  14  17
ATOM     17  C   UNL     1       1.751   3.367  20.093  0.00  0.00    +0.000 C 
ATOM     18  F   UNL     1       1.233   2.132  20.348  0.00  0.00    +0.000 F 
ATOM     19  F   UNL     1       2.249   3.796  21.287  0.00  0.00    +0.000 F 
ATOM     20  F   UNL     1       0.690   4.158  19.789  0.00  0.00    +0.000 F 
ENDBRANCH  14  17
ENDBRANCH   5   7
BRANCH   1  21
ATOM     21  C   UNL     1       1.020  10.358  18.623  0.00  0.00    +0.000 C 
ATOM     22  C   UNL     1       0.377  11.411  19.616  0.00  0.00    +0.000 C 
ATOM     23  C   UNL     1      -1.003  10.865  19.201  0.00  0.00    +0.000 C 
ATOM     24  C   UNL     1      -0.360  10.470  17.858  0.00  0.00    +0.000 C 
BRANCH  21  25
ATOM     25  C   UNL     1       2.207  10.878  17.799  0.00  0.00    +0.000 C 
BRANCH  25  26
ATOM     26  N   UNL     1       2.244  12.342  17.746  0.00  0.00    +0.000 NA
ATOM     27  H   UNL     1       2.102  12.641  16.783  0.00  0.00    +0.000 HD
ATOM     28  H   UNL     1       3.187  12.653  17.986  0.00  0.00    +0.000 HD
ENDBRANCH  25  26
ENDBRANCH  21  25
ENDBRANCH   1  21
TORSDOF 5
ENDMDL
MODEL 6
REMARK VINA RESULT:      -7.8      0.958      1.683
REMARK  Name = 
REMARK  5 active torsions:
REMARK  status: ('A' for Active; 'I' for Inactive)
REMARK    1  A    between atoms: N_1  and  C_2
REMARK    2  A    between atoms: C_2  and  C_3
REMARK    3  A    between atoms: C_3  and  C_4
REMARK    4  A    between atoms: C_8  and  C_9
REMARK    5  A    between atoms: C_16  and  C_17
REMARK                            x       y       z     vdW  Elec       q    Type
REMARK                         _______ _______ _______ _____ _____    ______ ____
ROOT
ATOM      1  C   UNL     1       1.285   8.759  19.724  0.00  0.00    +0.000 A 
ATOM      2  C   UNL     1       1.732   9.127  18.449  0.00  0.00    +0.000 A 
ATOM      3  C   UNL     1       2.350   8.201  17.619  0.00  0.00    +0.000 A 
ATOM      4  C   UNL     1       2.539   6.889  18.058  0.00  0.00    +0.000 A 
ATOM      5  C   UNL     1       2.313   6.521  19.382  0.00  0.00    +0.000 A 
ATOM      6  C   UNL     1       1.701   7.496  20.195  0.00  0.00    +0.000 A 
ENDROOT
BRANCH   5   7
ATOM      7  C   UNL     1       2.572   5.165  19.910  0.00  0.00    +0.000 A 
ATOM      8  C   UNL     1       1.651   4.589  20.821  0.00  0.00    +0.000 A 
ATOM      9  C   UNL     1       1.867   3.332  21.366  0.00  0.00    +0.000 A 
ATOM     10  N   UNL     1       2.918   2.555  21.079  0.00  0.00    +0.000 NA
ATOM     11  C   UNL     1       3.770   3.113  20.204  0.00  0.00    +0.000 A 
ATOM     12  N   UNL     1       4.897   2.499  19.767  0.00  0.00    +0.000 N 
ATOM     13  N   UNL     1       5.609   3.227  18.903  0.00  0.00    +0.000 NA
ATOM     14  C   UNL     1       4.922   4.390  18.793  0.00  0.00    +0.000 A 
ATOM     15  C   UNL     1       3.706   4.364  19.583  0.00  0.00    +0.000 A 
ATOM     16  H   UNL     1       5.216   1.572  20.024  0.00  0.00    +0.000 HD
BRANCH  14  17
ATOM     17  C   UNL     1       5.490   5.470  17.906  0.00  0.00    +0.000 C 
ATOM     18  F   UNL     1       6.785   5.237  17.549  0.00  0.00    +0.000 F 
ATOM     19  F   UNL     1       4.814   5.582  16.729  0.00  0.00    +0.000 F 
ATOM     20  F   UNL     1       5.483   6.692  18.496  0.00  0.00    +0.000 F 
ENDBRANCH  14  17
ENDBRANCH   5   7
BRANCH   1  21
ATOM     21  C   UNL     1       0.255   9.669  20.577  0.00  0.00    +0.000 C 
ATOM     22  C   UNL     1       0.902  10.603  21.681  0.00  0.00    +0.000 C 
ATOM     23  C   UNL     1       0.778   9.421  22.662  0.00  0.00    +0.000 C 
ATOM     24  C   UNL     1      -0.410   8.935  21.811  0.00  0.00    +0.000 C 
BRANCH  21  25
ATOM     25  C   UNL     1      -0.771  10.354  19.662  0.00  0.00    +0.000 C 
BRANCH  25  26
ATOM     26  N   UNL     1      -0.555  11.800  19.573  0.00  0.00    +0.000 NA
ATOM     27  H   UNL     1      -1.372  12.280  19.948  0.00  0.00    +0.000 HD
ATOM     28  H   UNL     1      -0.518  12.065  18.587  0.00  0.00    +0.000 HD
ENDBRANCH  25  26
ENDBRANCH  21  25
ENDBRANCH   1  21
TORSDOF 5
ENDMDL
MODEL 7
REMARK VINA RESULT:      -7.6      2.705      3.847
REMARK  Name = 
REMARK  5 active torsions:
REMARK  status: ('A' for Active; 'I' for Inactive)
REMARK    1  A    between atoms: N_1  and  C_2
REMARK    2  A    between atoms: C_2  and  C_3
REMARK    3  A    between atoms: C_3  and  C_4
REMARK    4  A    between atoms: C_8  and  C_9
REMARK    5  A    between atoms: C_16  and  C_17
REMARK                            x       y       z     vdW  Elec       q    Type
REMARK                         _______ _______ _______ _____ _____    ______ ____
ROOT
ATOM      1  C   UNL     1       0.708   9.271  19.606  0.00  0.00    +0.000 A 
ATOM      2  C   UNL     1       0.559   8.989  20.968  0.00  0.00    +0.000 A 
ATOM      3  C   UNL     1       1.296   7.978  21.569  0.00  0.00    +0.000 A 
ATOM      4  C   UNL     1       2.194   7.225  20.810  0.00  0.00    +0.000 A 
ATOM      5  C   UNL     1       2.231   7.314  19.420  0.00  0.00    +0.000 A 
ATOM      6  C   UNL     1       1.452   8.341  18.850  0.00  0.00    +0.000 A 
ENDROOT
BRANCH   5   7
ATOM      7  C   UNL     1       3.108   6.482  18.570  0.00  0.00    +0.000 A 
ATOM      8  C   UNL     1       3.900   7.106  17.573  0.00  0.00    +0.000 A 
ATOM      9  C   UNL     1       4.715   6.364  16.732  0.00  0.00    +0.000 A 
ATOM     10  N   UNL     1       4.849   5.035  16.790  0.00  0.00    +0.000 NA
ATOM     11  C   UNL     1       4.102   4.465  17.750  0.00  0.00    +0.000 A 
ATOM     12  N   UNL     1       4.091   3.130  17.991  0.00  0.00    +0.000 N 
ATOM     13  N   UNL     1       3.276   2.768  18.985  0.00  0.00    +0.000 NA
ATOM     14  C   UNL     1       2.706   3.927  19.396  0.00  0.00    +0.000 A 
ATOM     15  C   UNL     1       3.225   5.063  18.658  0.00  0.00    +0.000 A 
ATOM     16  H   UNL     1       4.635   2.426  17.506  0.00  0.00    +0.000 HD
BRANCH  14  17
ATOM     17  C   UNL     1       1.683   3.863  20.503  0.00  0.00    +0.000 C 
ATOM     18  F   UNL     1       2.163   4.316  21.696  0.00  0.00    +0.000 F 
ATOM     19  F   UNL     1       0.592   4.636  20.244  0.00  0.00    +0.000 F 
ATOM     20  F   UNL     1       1.241   2.601  20.737  0.00  0.00    +0.000 F 
ENDBRANCH  14  17
ENDBRANCH   5   7
BRANCH   1  21
ATOM     21  C   UNL     1       0.163  10.641  18.939  0.00  0.00    +0.000 C 
ATOM     22  C   UNL     1      -1.223  11.177  19.485  0.00  0.00    +0.000 C 
ATOM     23  C   UNL     1      -1.910  10.304  18.417  0.00  0.00    +0.000 C 
ATOM     24  C   UNL     1      -0.624  10.448  17.580  0.00  0.00    +0.000 C 
BRANCH  21  25
ATOM     25  C   UNL     1       1.277  11.693  18.842  0.00  0.00    +0.000 C 
BRANCH  25  26
ATOM     26  N   UNL     1       2.151  11.470  17.687  0.00  0.00    +0.000 NA
ATOM     27  H   UNL     1       2.217  10.469  17.511  0.00  0.00    +0.000 HD
ATOM     28  H   UNL     1       3.098  11.763  17.932  0.00  0.00    +0.000 HD
ENDBRANCH  25  26
ENDBRANCH  21  25
ENDBRANCH   1  21
TORSDOF 5
ENDMDL
MODEL 8
REMARK VINA RESULT:      -7.5      3.460      5.786
REMARK  Name = 
REMARK  5 active torsions:
REMARK  status: ('A' for Active; 'I' for Inactive)
REMARK    1  A    between atoms: N_1  and  C_2
REMARK    2  A    between atoms: C_2  and  C_3
REMARK    3  A    between atoms: C_3  and  C_4
REMARK    4  A    between atoms: C_8  and  C_9
REMARK    5  A    between atoms: C_16  and  C_17
REMARK                            x       y       z     vdW  Elec       q    Type
REMARK                         _______ _______ _______ _____ _____    ______ ____
ROOT
ATOM      1  C   UNL     1       2.627   3.336  18.896  0.00  0.00    +0.000 A 
ATOM      2  C   UNL     1       2.596   1.937  18.877  0.00  0.00    +0.000 A 
ATOM      3  C   UNL     1       3.480   1.219  18.083  0.00  0.00    +0.000 A 
ATOM      4  C   UNL     1       4.407   1.893  17.287  0.00  0.00    +0.000 A 
ATOM      5  C   UNL     1       4.347   3.273  17.101  0.00  0.00    +0.000 A 
ATOM      6  C   UNL     1       3.422   3.961  17.913  0.00  0.00    +0.000 A 
ENDROOT
BRANCH   5   7
ATOM      7  C   UNL     1       5.257   4.019  16.209  0.00  0.00    +0.000 A 
ATOM      8  C   UNL     1       5.214   3.773  14.813  0.00  0.00    +0.000 A 
ATOM      9  C   UNL     1       6.070   4.427  13.940  0.00  0.00    +0.000 A 
ATOM     10  N   UNL     1       6.974   5.341  14.310  0.00  0.00    +0.000 NA
ATOM     11  C   UNL     1       6.989   5.569  15.634  0.00  0.00    +0.000 A 
ATOM     12  N   UNL     1       7.820   6.462  16.226  0.00  0.00    +0.000 N 
ATOM     13  N   UNL     1       7.679   6.534  17.552  0.00  0.00    +0.000 NA
ATOM     14  C   UNL     1       6.722   5.620  17.842  0.00  0.00    +0.000 A 
ATOM     15  C   UNL     1       6.213   4.987  16.639  0.00  0.00    +0.000 A 
ATOM     16  H   UNL     1       8.497   7.056  15.760  0.00  0.00    +0.000 HD
BRANCH  14  17
ATOM     17  C   UNL     1       6.347   5.417  19.289  0.00  0.00    +0.000 C 
ATOM     18  F   UNL     1       6.127   4.108  19.601  0.00  0.00    +0.000 F 
ATOM     19  F   UNL     1       7.329   5.824  20.140  0.00  0.00    +0.000 F 
ATOM     20  F   UNL     1       5.211   6.075  19.634  0.00  0.00    +0.000 F 
ENDBRANCH  14  17
ENDBRANCH   5   7
BRANCH   1  21
ATOM     21  C   UNL     1       1.890   4.204  20.046  0.00  0.00    +0.000 C 
ATOM     22  C   UNL     1       2.349   3.918  21.534  0.00  0.00    +0.000 C 
ATOM     23  C   UNL     1       1.276   2.813  21.586  0.00  0.00    +0.000 C 
ATOM     24  C   UNL     1       0.500   3.620  20.527  0.00  0.00    +0.000 C 
BRANCH  21  25
ATOM     25  C   UNL     1       1.814   5.688  19.659  0.00  0.00    +0.000 C 
BRANCH  25  26
ATOM     26  N   UNL     1       2.150   6.570  20.781  0.00  0.00    +0.000 NA
ATOM     27  H   UNL     1       1.312   6.728  21.338  0.00  0.00    +0.000 HD
ATOM     28  H   UNL     1       2.403   7.487  20.410  0.00  0.00    +0.000 HD
ENDBRANCH  25  26
ENDBRANCH  21  25
ENDBRANCH   1  21
TORSDOF 5
ENDMDL
MODEL 9
REMARK VINA RESULT:      -7.5      2.962      7.179
REMARK  Name = 
REMARK  5 active torsions:
REMARK  status: ('A' for Active; 'I' for Inactive)
REMARK    1  A    between atoms: N_1  and  C_2
REMARK    2  A    between atoms: C_2  and  C_3
REMARK    3  A    between atoms: C_3  and  C_4
REMARK    4  A    between atoms: C_8  and  C_9
REMARK    5  A    between atoms: C_16  and  C_17
REMARK                            x       y       z     vdW  Elec       q    Type
REMARK                         _______ _______ _______ _____ _____    ______ ____
ROOT
ATOM      1  C   UNL     1       2.353   6.634  19.160  0.00  0.00    +0.000 A 
ATOM      2  C   UNL     1       2.669   7.307  17.975  0.00  0.00    +0.000 A 
ATOM      3  C   UNL     1       2.415   8.666  17.841  0.00  0.00    +0.000 A 
ATOM      4  C   UNL     1       1.831   9.372  18.894  0.00  0.00    +0.000 A 
ATOM      5  C   UNL     1       1.303   8.722  20.007  0.00  0.00    +0.000 A 
ATOM      6  C   UNL     1       1.567   7.340  20.094  0.00  0.00    +0.000 A 
ENDROOT
BRANCH   5   7
ATOM      7  C   UNL     1       0.607   9.420  21.109  0.00  0.00    +0.000 A 
ATOM      8  C   UNL     1       0.876   9.040  22.448  0.00  0.00    +0.000 A 
ATOM      9  C   UNL     1       0.225   9.645  23.512  0.00  0.00    +0.000 A 
ATOM     10  N   UNL     1      -0.672  10.629  23.388  0.00  0.00    +0.000 NA
ATOM     11  C   UNL     1      -0.902  10.984  22.113  0.00  0.00    +0.000 A 
ATOM     12  N   UNL     1      -1.768  11.965  21.757  0.00  0.00    +0.000 N 
ATOM     13  N   UNL     1      -1.854  12.157  20.438  0.00  0.00    +0.000 NA
ATOM     14  C   UNL     1      -1.019  11.232  19.906  0.00  0.00    +0.000 A 
ATOM     15  C   UNL     1      -0.348  10.466  20.939  0.00  0.00    +0.000 A 
ATOM     16  H   UNL     1      -2.317  12.541  22.386  0.00  0.00    +0.000 HD
BRANCH  14  17
ATOM     17  C   UNL     1      -0.912  11.152  18.403  0.00  0.00    +0.000 C 
ATOM     18  F   UNL     1      -1.863  11.891  17.764  0.00  0.00    +0.000 F 
ATOM     19  F   UNL     1       0.277  11.630  17.943  0.00  0.00    +0.000 F 
ATOM     20  F   UNL     1      -1.050   9.886  17.934  0.00  0.00    +0.000 F 
ENDBRANCH  14  17
ENDBRANCH   5   7
BRANCH   1  21
ATOM     21  C   UNL     1       2.943   5.168  19.507  0.00  0.00    +0.000 C 
ATOM     22  C   UNL     1       2.205   3.942  18.827  0.00  0.00    +0.000 C 
ATOM     23  C   UNL     1       1.255   3.922  20.040  0.00  0.00    +0.000 C 
ATOM     24  C   UNL     1       2.405   4.541  20.857  0.00  0.00    +0.000 C 
BRANCH  21  25
ATOM     25  C   UNL     1       4.475   5.146  19.405  0.00  0.00    +0.000 C 
BRANCH  25  26
ATOM     26  N   UNL     1       5.007   3.782  19.361  0.00  0.00    +0.000 NA
ATOM     27  H   UNL     1       5.196   3.532  18.392  0.00  0.00    +0.000 HD
ATOM     28  H   UNL     1       4.277   3.136  19.667  0.00  0.00    +0.000 HD
ENDBRANCH  25  26
ENDBRANCH  21  25
ENDBRANCH   1  21
TORSDOF 5
ENDMDL
