MODEL 1
REMARK VINA RESULT:      -7.8      0.000      0.000
REMARK  Name = 
REMARK  12 active torsions:
REMARK  status: ('A' for Active; 'I' for Inactive)
REMARK    1  A    between atoms: C_1  and  C_2
REMARK    2  A    between atoms: C_2  and  N_3
REMARK    3  A    between atoms: N_3  and  C_4
REMARK    4  A    between atoms: N_3  and  C_18
REMARK    5  A    between atoms: C_4  and  C_5
REMARK    6  A    between atoms: C_5  and  O_6
REMARK    7  A    between atoms: O_6  and  C_7
REMARK    8  A    between atoms: C_7  and  C_9
REMARK    9  A    between atoms: C_10  and  C_11
REMARK   10  A    between atoms: C_14  and  O_15
REMARK   11  A    between atoms: C_18  and  C_19
REMARK   12  A    between atoms: C_25  and  O_26
REMARK                            x       y       z     vdW  Elec       q    Type
REMARK                         _______ _______ _______ _____ _____    ______ ____
ROOT
ATOM      1  C   UNL     1       4.459   7.316  17.091  0.00  0.00    +0.000 C 
ENDROOT
BRANCH   1   2
ATOM      2  N   UNL     1       3.412   6.640  17.886  0.00  0.00    +0.000 NA
BRANCH   2   4
ATOM      3  C   UNL     1       2.019   8.746  17.757  0.00  0.00    +0.000 C 
ATOM      4  C   UNL     1       2.529   7.582  18.602  0.00  0.00    +0.000 C 
ENDBRANCH   2   4
BRANCH   2   5
ATOM      5  C   UNL     1       4.035   5.680  18.823  0.00  0.00    +0.000 C 
BRANCH   5   6
ATOM      6  C   UNL     1       3.286   4.378  18.990  0.00  0.00    +0.000 A 
ATOM      7  C   UNL     1       2.703   4.057  20.228  0.00  0.00    +0.000 A 
ATOM      8  C   UNL     1       1.990   2.870  20.378  0.00  0.00    +0.000 A 
ATOM      9 CL   UNL     1       1.267   2.490  21.893  0.00  0.00    +0.000 Cl
ATOM     10  C   UNL     1       1.855   1.984  19.310  0.00  0.00    +0.000 A 
ATOM     11  C   UNL     1       2.443   2.282  18.080  0.00  0.00    +0.000 A 
ATOM     12  C   UNL     1       3.154   3.472  17.930  0.00  0.00    +0.000 A 
BRANCH  12  13
ATOM     13  O   UNL     1       3.746   3.760  16.730  0.00  0.00    +0.000 OA
ATOM     14  H   UNL     1       3.142   3.517  16.011  0.00  0.00    +0.000 HD
ENDBRANCH  12  13
ENDBRANCH   5   6
ENDBRANCH   2   5
ENDBRANCH   1   2
BRANCH   1  15
ATOM     15  C   UNL     1       5.836   6.626  17.036  0.00  0.00    +0.000 C 
BRANCH  15  16
ATOM     16  O   UNL     1       6.891   7.580  16.849  0.00  0.00    +0.000 OA
BRANCH  16  17
ATOM     17  C   UNL     1       7.742   7.669  17.896  0.00  0.00    +0.000 C 
ATOM     18  O   UNL     1       8.045   6.776  18.671  0.00  0.00    +0.000 OA
BRANCH  17  19
ATOM     19  C   UNL     1       8.264   9.044  17.943  0.00  0.00    +0.000 C 
ATOM     20  C   UNL     1       9.031   9.404  18.983  0.00  0.00    +0.000 C 
BRANCH  20  21
ATOM     21  C   UNL     1       9.619  10.734  19.153  0.00  0.00    +0.000 A 
ATOM     22  C   UNL     1       9.820  11.312  20.414  0.00  0.00    +0.000 A 
ATOM     23  C   UNL     1      10.422  12.566  20.532  0.00  0.00    +0.000 A 
ATOM     24  C   UNL     1      10.834  13.238  19.387  0.00  0.00    +0.000 A 
ATOM     25  C   UNL     1      10.653  12.679  18.129  0.00  0.00    +0.000 A 
ATOM     26  C   UNL     1      10.050  11.426  18.012  0.00  0.00    +0.000 A 
BRANCH  24  27
ATOM     27  O   UNL     1      11.434  14.459  19.460  0.00  0.00    +0.000 OA
ATOM     28  H   UNL     1      10.752  15.127  19.640  0.00  0.00    +0.000 HD
ENDBRANCH  24  27
ENDBRANCH  20  21
ENDBRANCH  17  19
ENDBRANCH  16  17
ENDBRANCH  15  16
ENDBRANCH   1  15
TORSDOF 11
ENDMDL
MODEL 2
REMARK VINA RESULT:      -7.6      1.813      2.791
REMARK  Name = 
REMARK  12 active torsions:
REMARK  status: ('A' for Active; 'I' for Inactive)
REMARK    1  A    between atoms: C_1  and  C_2
REMARK    2  A    between atoms: C_2  and  N_3
REMARK    3  A    between atoms: N_3  and  C_4
REMARK    4  A    between atoms: N_3  and  C_18
REMARK    5  A    between atoms: C_4  and  C_5
REMARK    6  A    between atoms: C_5  and  O_6
REMARK    7  A    between atoms: O_6  and  C_7
REMARK    8  A    between atoms: C_7  and  C_9
REMARK    9  A    between atoms: C_10  and  C_11
REMARK   10  A    between atoms: C_14  and  O_15
REMARK   11  A    between atoms: C_18  and  C_19
REMARK   12  A    between atoms: C_25  and  O_26
REMARK                            x       y       z     vdW  Elec       q    Type
REMARK                         _______ _______ _______ _____ _____    ______ ____
ROOT
ATOM      1  C   UNL     1       6.031   4.721  18.227  0.00  0.00    +0.000 C 
ENDROOT
BRANCH   1   2
ATOM      2  N   UNL     1       5.045   4.702  17.124  0.00  0.00    +0.000 NA
BRANCH   2   4
ATOM      3  C   UNL     1       5.891   3.790  14.923  0.00  0.00    +0.000 C 
ATOM      4  C   UNL     1       5.642   5.007  15.809  0.00  0.00    +0.000 C 
ENDBRANCH   2   4
BRANCH   2   5
ATOM      5  C   UNL     1       3.933   5.628  17.431  0.00  0.00    +0.000 C 
BRANCH   5   6
ATOM      6  C   UNL     1       2.910   5.092  18.406  0.00  0.00    +0.000 A 
ATOM      7  C   UNL     1       2.227   3.898  18.121  0.00  0.00    +0.000 A 
ATOM      8  C   UNL     1       1.302   3.387  19.028  0.00  0.00    +0.000 A 
ATOM      9 CL   UNL     1       0.479   1.917  18.679  0.00  0.00    +0.000 Cl
ATOM     10  C   UNL     1       1.038   4.057  20.223  0.00  0.00    +0.000 A 
ATOM     11  C   UNL     1       1.696   5.252  20.511  0.00  0.00    +0.000 A 
ATOM     12  C   UNL     1       2.623   5.761  19.603  0.00  0.00    +0.000 A 
BRANCH  12  13
ATOM     13  O   UNL     1       3.260   6.942  19.875  0.00  0.00    +0.000 OA
ATOM     14  H   UNL     1       2.599   7.649  19.950  0.00  0.00    +0.000 HD
ENDBRANCH  12  13
ENDBRANCH   5   6
ENDBRANCH   2   5
ENDBRANCH   1   2
BRANCH   1  15
ATOM     15  C   UNL     1       7.456   5.188  17.868  0.00  0.00    +0.000 C 
BRANCH  15  16
ATOM     16  O   UNL     1       7.813   6.373  18.594  0.00  0.00    +0.000 OA
BRANCH  16  17
ATOM     17  C   UNL     1       7.760   7.505  17.855  0.00  0.00    +0.000 C 
ATOM     18  O   UNL     1       7.177   7.659  16.794  0.00  0.00    +0.000 OA
BRANCH  17  19
ATOM     19  C   UNL     1       8.525   8.544  18.561  0.00  0.00    +0.000 C 
ATOM     20  C   UNL     1       8.577   9.775  18.029  0.00  0.00    +0.000 C 
BRANCH  20  21
ATOM     21  C   UNL     1       9.296  10.903  18.626  0.00  0.00    +0.000 A 
ATOM     22  C   UNL     1       9.560  12.085  17.922  0.00  0.00    +0.000 A 
ATOM     23  C   UNL     1      10.212  13.151  18.543  0.00  0.00    +0.000 A 
ATOM     24  C   UNL     1      10.591  13.039  19.876  0.00  0.00    +0.000 A 
ATOM     25  C   UNL     1      10.329  11.880  20.595  0.00  0.00    +0.000 A 
ATOM     26  C   UNL     1       9.679  10.814  19.972  0.00  0.00    +0.000 A 
BRANCH  24  27
ATOM     27  O   UNL     1      11.221  14.060  20.522  0.00  0.00    +0.000 OA
ATOM     28  H   UNL     1      11.856  13.681  21.151  0.00  0.00    +0.000 HD
ENDBRANCH  24  27
ENDBRANCH  20  21
ENDBRANCH  17  19
ENDBRANCH  16  17
ENDBRANCH  15  16
ENDBRANCH   1  15
TORSDOF 11
ENDMDL
MODEL 3
REMARK VINA RESULT:      -7.2      2.207      3.365
REMARK  Name = 
REMARK  12 active torsions:
REMARK  status: ('A' for Active; 'I' for Inactive)
REMARK    1  A    between atoms: C_1  and  C_2
REMARK    2  A    between atoms: C_2  and  N_3
REMARK    3  A    between atoms: N_3  and  C_4
REMARK    4  A    between atoms: N_3  and  C_18
REMARK    5  A    between atoms: C_4  and  C_5
REMARK    6  A    between atoms: C_5  and  O_6
REMARK    7  A    between atoms: O_6  and  C_7
REMARK    8  A    between atoms: C_7  and  C_9
REMARK    9  A    between atoms: C_10  and  C_11
REMARK   10  A    between atoms: C_14  and  O_15
REMARK   11  A    between atoms: C_18  and  C_19
REMARK   12  A    between atoms: C_25  and  O_26
REMARK                            x       y       z     vdW  Elec       q    Type
REMARK                         _______ _______ _______ _____ _____    ______ ____
ROOT
ATOM      1  C   UNL     1       5.890   4.617  18.195  0.00  0.00    +0.000 C 
ENDROOT
BRANCH   1   2
ATOM      2  N   UNL     1       5.167   3.983  17.071  0.00  0.00    +0.000 NA
BRANCH   2   4
ATOM      3  C   UNL     1       6.019   3.944  14.691  0.00  0.00    +0.000 C 
ATOM      4  C   UNL     1       5.312   4.718  15.800  0.00  0.00    +0.000 C 
ENDBRANCH   2   4
BRANCH   2   5
ATOM      5  C   UNL     1       3.740   3.812  17.425  0.00  0.00    +0.000 C 
BRANCH   5   6
ATOM      6  C   UNL     1       3.159   4.921  18.273  0.00  0.00    +0.000 A 
ATOM      7  C   UNL     1       2.992   6.206  17.729  0.00  0.00    +0.000 A 
ATOM      8  C   UNL     1       2.433   7.223  18.498  0.00  0.00    +0.000 A 
ATOM      9 CL   UNL     1       2.218   8.791  17.821  0.00  0.00    +0.000 Cl
ATOM     10  C   UNL     1       2.041   6.983  19.815  0.00  0.00    +0.000 A 
ATOM     11  C   UNL     1       2.217   5.716  20.373  0.00  0.00    +0.000 A 
ATOM     12  C   UNL     1       2.774   4.698  19.601  0.00  0.00    +0.000 A 
BRANCH  12  13
ATOM     13  O   UNL     1       2.963   3.459  20.150  0.00  0.00    +0.000 OA
ATOM     14  H   UNL     1       3.490   3.546  20.960  0.00  0.00    +0.000 HD
ENDBRANCH  12  13
ENDBRANCH   5   6
ENDBRANCH   2   5
ENDBRANCH   1   2
BRANCH   1  15
ATOM     15  C   UNL     1       7.361   5.000  17.939  0.00  0.00    +0.000 C 
BRANCH  15  16
ATOM     16  O   UNL     1       7.712   6.207  18.629  0.00  0.00    +0.000 OA
BRANCH  16  17
ATOM     17  C   UNL     1       7.729   7.305  17.840  0.00  0.00    +0.000 C 
ATOM     18  O   UNL     1       7.222   7.420  16.736  0.00  0.00    +0.000 OA
BRANCH  17  19
ATOM     19  C   UNL     1       8.463   8.364  18.550  0.00  0.00    +0.000 C 
ATOM     20  C   UNL     1       8.452   9.605  18.040  0.00  0.00    +0.000 C 
BRANCH  20  21
ATOM     21  C   UNL     1       9.133  10.752  18.644  0.00  0.00    +0.000 A 
ATOM     22  C   UNL     1       9.350  11.950  17.950  0.00  0.00    +0.000 A 
ATOM     23  C   UNL     1       9.967  13.033  18.578  0.00  0.00    +0.000 A 
ATOM     24  C   UNL     1      10.359  12.920  19.907  0.00  0.00    +0.000 A 
ATOM     25  C   UNL     1      10.145  11.746  20.616  0.00  0.00    +0.000 A 
ATOM     26  C   UNL     1       9.529  10.664  19.987  0.00  0.00    +0.000 A 
BRANCH  24  27
ATOM     27  O   UNL     1      10.956  13.957  20.559  0.00  0.00    +0.000 OA
ATOM     28  H   UNL     1      10.666  13.947  21.486  0.00  0.00    +0.000 HD
ENDBRANCH  24  27
ENDBRANCH  20  21
ENDBRANCH  17  19
ENDBRANCH  16  17
ENDBRANCH  15  16
ENDBRANCH   1  15
TORSDOF 11
ENDMDL
MODEL 4
REMARK VINA RESULT:      -7.2      4.433      7.046
REMARK  Name = 
REMARK  12 active torsions:
REMARK  status: ('A' for Active; 'I' for Inactive)
REMARK    1  A    between atoms: C_1  and  C_2
REMARK    2  A    between atoms: C_2  and  N_3
REMARK    3  A    between atoms: N_3  and  C_4
REMARK    4  A    between atoms: N_3  and  C_18
REMARK    5  A    between atoms: C_4  and  C_5
REMARK    6  A    between atoms: C_5  and  O_6
REMARK    7  A    between atoms: O_6  and  C_7
REMARK    8  A    between atoms: C_7  and  C_9
REMARK    9  A    between atoms: C_10  and  C_11
REMARK   10  A    between atoms: C_14  and  O_15
REMARK   11  A    between atoms: C_18  and  C_19
REMARK   12  A    between atoms: C_25  and  O_26
REMARK                            x       y       z     vdW  Elec       q    Type
REMARK                         _______ _______ _______ _____ _____    ______ ____
ROOT
ATOM      1  C   UNL     1       3.786   2.091  18.653  0.00  0.00    +0.000 C 
ENDROOT
BRANCH   1   2
ATOM      2  N   UNL     1       3.583   3.314  17.846  0.00  0.00    +0.000 NA
BRANCH   2   4
ATOM      3  C   UNL     1       1.317   4.374  17.480  0.00  0.00    +0.000 C 
ATOM      4  C   UNL     1       2.322   3.299  17.078  0.00  0.00    +0.000 C 
ENDBRANCH   2   4
BRANCH   2   5
ATOM      5  C   UNL     1       4.745   3.525  16.955  0.00  0.00    +0.000 C 
BRANCH   5   6
ATOM      6  C   UNL     1       5.656   4.662  17.358  0.00  0.00    +0.000 A 
ATOM      7  C   UNL     1       6.392   4.582  18.553  0.00  0.00    +0.000 A 
ATOM      8  C   UNL     1       7.252   5.616  18.915  0.00  0.00    +0.000 A 
ATOM      9 CL   UNL     1       8.161   5.505  20.372  0.00  0.00    +0.000 Cl
ATOM     10  C   UNL     1       7.387   6.742  18.103  0.00  0.00    +0.000 A 
ATOM     11  C   UNL     1       6.650   6.842  16.923  0.00  0.00    +0.000 A 
ATOM     12  C   UNL     1       5.791   5.806  16.561  0.00  0.00    +0.000 A 
BRANCH  12  13
ATOM     13  O   UNL     1       5.055   5.907  15.412  0.00  0.00    +0.000 OA
ATOM     14  H   UNL     1       5.543   6.444  14.768  0.00  0.00    +0.000 HD
ENDBRANCH  12  13
ENDBRANCH   5   6
ENDBRANCH   2   5
ENDBRANCH   1   2
BRANCH   1  15
ATOM     15  C   UNL     1       3.830   2.273  20.183  0.00  0.00    +0.000 C 
BRANCH  15  16
ATOM     16  O   UNL     1       3.636   3.647  20.549  0.00  0.00    +0.000 OA
BRANCH  16  17
ATOM     17  C   UNL     1       2.470   3.884  21.192  0.00  0.00    +0.000 C 
ATOM     18  O   UNL     1       1.985   3.220  22.095  0.00  0.00    +0.000 OA
BRANCH  17  19
ATOM     19  C   UNL     1       1.877   5.103  20.624  0.00  0.00    +0.000 C 
ATOM     20  C   UNL     1       2.696   6.083  20.212  0.00  0.00    +0.000 C 
BRANCH  20  21
ATOM     21  C   UNL     1       2.243   7.345  19.623  0.00  0.00    +0.000 A 
ATOM     22  C   UNL     1       2.483   7.680  18.283  0.00  0.00    +0.000 A 
ATOM     23  C   UNL     1       1.997   8.877  17.753  0.00  0.00    +0.000 A 
ATOM     24  C   UNL     1       1.260   9.734  18.562  0.00  0.00    +0.000 A 
ATOM     25  C   UNL     1       1.003   9.416  19.888  0.00  0.00    +0.000 A 
ATOM     26  C   UNL     1       1.490   8.221  20.418  0.00  0.00    +0.000 A 
BRANCH  24  27
ATOM     27  O   UNL     1       0.761  10.907  18.079  0.00  0.00    +0.000 OA
ATOM     28  H   UNL     1       1.503  11.464  17.794  0.00  0.00    +0.000 HD
ENDBRANCH  24  27
ENDBRANCH  20  21
ENDBRANCH  17  19
ENDBRANCH  16  17
ENDBRANCH  15  16
ENDBRANCH   1  15
TORSDOF 11
ENDMDL
MODEL 5
REMARK VINA RESULT:      -7.2      1.727      2.603
REMARK  Name = 
REMARK  12 active torsions:
REMARK  status: ('A' for Active; 'I' for Inactive)
REMARK    1  A    between atoms: C_1  and  C_2
REMARK    2  A    between atoms: C_2  and  N_3
REMARK    3  A    between atoms: N_3  and  C_4
REMARK    4  A    between atoms: N_3  and  C_18
REMARK    5  A    between atoms: C_4  and  C_5
REMARK    6  A    between atoms: C_5  and  O_6
REMARK    7  A    between atoms: O_6  and  C_7
REMARK    8  A    between atoms: C_7  and  C_9
REMARK    9  A    between atoms: C_10  and  C_11
REMARK   10  A    between atoms: C_14  and  O_15
REMARK   11  A    between atoms: C_18  and  C_19
REMARK   12  A    between atoms: C_25  and  O_26
REMARK                            x       y       z     vdW  Elec       q    Type
REMARK                         _______ _______ _______ _____ _____    ______ ____
ROOT
ATOM      1  C   UNL     1       5.553   5.218  17.347  0.00  0.00    +0.000 C 
ENDROOT
BRANCH   1   2
ATOM      2  N   UNL     1       4.985   4.249  16.385  0.00  0.00    +0.000 NA
BRANCH   2   4
ATOM      3  C   UNL     1       6.495   3.993  14.374  0.00  0.00    +0.000 C 
ATOM      4  C   UNL     1       5.239   4.614  14.978  0.00  0.00    +0.000 C 
ENDBRANCH   2   4
BRANCH   2   5
ATOM      5  C   UNL     1       3.537   4.082  16.637  0.00  0.00    +0.000 C 
BRANCH   5   6
ATOM      6  C   UNL     1       3.157   3.944  18.094  0.00  0.00    +0.000 A 
ATOM      7  C   UNL     1       2.522   5.008  18.757  0.00  0.00    +0.000 A 
ATOM      8  C   UNL     1       2.148   4.875  20.092  0.00  0.00    +0.000 A 
ATOM      9 CL   UNL     1       1.358   6.177  20.895  0.00  0.00    +0.000 Cl
ATOM     10  C   UNL     1       2.404   3.693  20.786  0.00  0.00    +0.000 A 
ATOM     11  C   UNL     1       3.049   2.635  20.144  0.00  0.00    +0.000 A 
ATOM     12  C   UNL     1       3.421   2.768  18.808  0.00  0.00    +0.000 A 
BRANCH  12  13
ATOM     13  O   UNL     1       4.067   1.739  18.179  0.00  0.00    +0.000 OA
ATOM     14  H   UNL     1       3.417   1.069  17.916  0.00  0.00    +0.000 HD
ENDBRANCH  12  13
ENDBRANCH   5   6
ENDBRANCH   2   5
ENDBRANCH   1   2
BRANCH   1  15
ATOM     15  C   UNL     1       5.828   6.638  16.813  0.00  0.00    +0.000 C 
BRANCH  15  16
ATOM     16  O   UNL     1       7.236   6.895  16.719  0.00  0.00    +0.000 OA
BRANCH  16  17
ATOM     17  C   UNL     1       7.787   7.362  17.863  0.00  0.00    +0.000 C 
ATOM     18  O   UNL     1       8.052   6.714  18.863  0.00  0.00    +0.000 OA
BRANCH  17  19
ATOM     19  C   UNL     1       8.029   8.802  17.696  0.00  0.00    +0.000 C 
ATOM     20  C   UNL     1       8.883   9.410  18.534  0.00  0.00    +0.000 C 
BRANCH  20  21
ATOM     21  C   UNL     1       9.221  10.834  18.479  0.00  0.00    +0.000 A 
ATOM     22  C   UNL     1       8.455  11.763  17.762  0.00  0.00    +0.000 A 
ATOM     23  C   UNL     1       8.790  13.118  17.771  0.00  0.00    +0.000 A 
ATOM     24  C   UNL     1       9.888  13.546  18.508  0.00  0.00    +0.000 A 
ATOM     25  C   UNL     1      10.655  12.644  19.233  0.00  0.00    +0.000 A 
ATOM     26  C   UNL     1      10.320  11.289  19.222  0.00  0.00    +0.000 A 
BRANCH  24  27
ATOM     27  O   UNL     1      10.243  14.861  18.550  0.00  0.00    +0.000 OA
ATOM     28  H   UNL     1       9.818  15.270  19.322  0.00  0.00    +0.000 HD
ENDBRANCH  24  27
ENDBRANCH  20  21
ENDBRANCH  17  19
ENDBRANCH  16  17
ENDBRANCH  15  16
ENDBRANCH   1  15
TORSDOF 11
ENDMDL
MODEL 6
REMARK VINA RESULT:      -7.1      1.390      1.727
REMARK  Name = 
REMARK  12 active torsions:
REMARK  status: ('A' for Active; 'I' for Inactive)
REMARK    1  A    between atoms: C_1  and  C_2
REMARK    2  A    between atoms: C_2  and  N_3
REMARK    3  A    between atoms: N_3  and  C_4
REMARK    4  A    between atoms: N_3  and  C_18
REMARK    5  A    between atoms: C_4  and  C_5
REMARK    6  A    between atoms: C_5  and  O_6
REMARK    7  A    between atoms: O_6  and  C_7
REMARK    8  A    between atoms: C_7  and  C_9
REMARK    9  A    between atoms: C_10  and  C_11
REMARK   10  A    between atoms: C_14  and  O_15
REMARK   11  A    between atoms: C_18  and  C_19
REMARK   12  A    between atoms: C_25  and  O_26
REMARK                            x       y       z     vdW  Elec       q    Type
REMARK                         _______ _______ _______ _____ _____    ______ ____
ROOT
ATOM      1  C   UNL     1       4.580   6.483  17.811  0.00  0.00    +0.000 C 
ENDROOT
BRANCH   1   2
ATOM      2  N   UNL     1       3.143   6.836  17.813  0.00  0.00    +0.000 NA
BRANCH   2   4
ATOM      3  C   UNL     1       1.435   8.693  17.963  0.00  0.00    +0.000 C 
ATOM      4  C   UNL     1       2.905   8.290  17.900  0.00  0.00    +0.000 C 
ENDBRANCH   2   4
BRANCH   2   5
ATOM      5  C   UNL     1       2.453   6.119  18.908  0.00  0.00    +0.000 C 
BRANCH   5   6
ATOM      6  C   UNL     1       2.606   4.616  18.878  0.00  0.00    +0.000 A 
ATOM      7  C   UNL     1       3.499   3.984  19.761  0.00  0.00    +0.000 A 
ATOM      8  C   UNL     1       3.625   2.597  19.755  0.00  0.00    +0.000 A 
ATOM      9 CL   UNL     1       4.710   1.829  20.847  0.00  0.00    +0.000 Cl
ATOM     10  C   UNL     1       2.875   1.821  18.871  0.00  0.00    +0.000 A 
ATOM     11  C   UNL     1       1.997   2.437  17.978  0.00  0.00    +0.000 A 
ATOM     12  C   UNL     1       1.870   3.824  17.987  0.00  0.00    +0.000 A 
BRANCH  12  13
ATOM     13  O   UNL     1       1.022   4.432  17.102  0.00  0.00    +0.000 OA
ATOM     14  H   UNL     1       1.410   5.275  16.818  0.00  0.00    +0.000 HD
ENDBRANCH  12  13
ENDBRANCH   5   6
ENDBRANCH   2   5
ENDBRANCH   1   2
BRANCH   1  15
ATOM     15  C   UNL     1       5.311   6.579  16.458  0.00  0.00    +0.000 C 
BRANCH  15  16
ATOM     16  O   UNL     1       6.521   7.340  16.572  0.00  0.00    +0.000 OA
BRANCH  16  17
ATOM     17  C   UNL     1       7.453   6.773  17.372  0.00  0.00    +0.000 C 
ATOM     18  O   UNL     1       7.733   5.587  17.440  0.00  0.00    +0.000 OA
BRANCH  17  19
ATOM     19  C   UNL     1       8.093   7.841  18.153  0.00  0.00    +0.000 C 
ATOM     20  C   UNL     1       8.113   9.083  17.645  0.00  0.00    +0.000 C 
BRANCH  20  21
ATOM     21  C   UNL     1       8.711  10.240  18.316  0.00  0.00    +0.000 A 
ATOM     22  C   UNL     1       8.666  11.531  17.773  0.00  0.00    +0.000 A 
ATOM     23  C   UNL     1       9.213  12.612  18.466  0.00  0.00    +0.000 A 
ATOM     24  C   UNL     1       9.796  12.403  19.711  0.00  0.00    +0.000 A 
ATOM     25  C   UNL     1       9.842  11.133  20.271  0.00  0.00    +0.000 A 
ATOM     26  C   UNL     1       9.296  10.053  19.577  0.00  0.00    +0.000 A 
BRANCH  24  27
ATOM     27  O   UNL     1      10.332  13.433  20.423  0.00  0.00    +0.000 OA
ATOM     28  H   UNL     1      11.280  13.259  20.550  0.00  0.00    +0.000 HD
ENDBRANCH  24  27
ENDBRANCH  20  21
ENDBRANCH  17  19
ENDBRANCH  16  17
ENDBRANCH  15  16
ENDBRANCH   1  15
TORSDOF 11
ENDMDL
MODEL 7
REMARK VINA RESULT:      -7.1      2.028      2.473
REMARK  Name = 
REMARK  12 active torsions:
REMARK  status: ('A' for Active; 'I' for Inactive)
REMARK    1  A    between atoms: C_1  and  C_2
REMARK    2  A    between atoms: C_2  and  N_3
REMARK    3  A    between atoms: N_3  and  C_4
REMARK    4  A    between atoms: N_3  and  C_18
REMARK    5  A    between atoms: C_4  and  C_5
REMARK    6  A    between atoms: C_5  and  O_6
REMARK    7  A    between atoms: O_6  and  C_7
REMARK    8  A    between atoms: C_7  and  C_9
REMARK    9  A    between atoms: C_10  and  C_11
REMARK   10  A    between atoms: C_14  and  O_15
REMARK   11  A    between atoms: C_18  and  C_19
REMARK   12  A    between atoms: C_25  and  O_26
REMARK                            x       y       z     vdW  Elec       q    Type
REMARK                         _______ _______ _______ _____ _____    ______ ____
ROOT
ATOM      1  C   UNL     1       6.704   4.199  16.530  0.00  0.00    +0.000 C 
ENDROOT
BRANCH   1   2
ATOM      2  N   UNL     1       5.450   3.932  17.267  0.00  0.00    +0.000 NA
BRANCH   2   4
ATOM      3  C   UNL     1       3.063   3.492  16.562  0.00  0.00    +0.000 C 
ATOM      4  C   UNL     1       4.252   4.448  16.578  0.00  0.00    +0.000 C 
ENDBRANCH   2   4
BRANCH   2   5
ATOM      5  C   UNL     1       5.550   4.478  18.639  0.00  0.00    +0.000 C 
BRANCH   5   6
ATOM      6  C   UNL     1       4.338   4.234  19.509  0.00  0.00    +0.000 A 
ATOM      7  C   UNL     1       3.470   5.295  19.816  0.00  0.00    +0.000 A 
ATOM      8  C   UNL     1       2.338   5.070  20.597  0.00  0.00    +0.000 A 
ATOM      9 CL   UNL     1       1.272   6.371  20.958  0.00  0.00    +0.000 Cl
ATOM     10  C   UNL     1       2.059   3.794  21.087  0.00  0.00    +0.000 A 
ATOM     11  C   UNL     1       2.921   2.735  20.803  0.00  0.00    +0.000 A 
ATOM     12  C   UNL     1       4.052   2.961  20.021  0.00  0.00    +0.000 A 
BRANCH  12  13
ATOM     13  O   UNL     1       4.909   1.929  19.753  0.00  0.00    +0.000 OA
ATOM     14  H   UNL     1       5.323   1.637  20.581  0.00  0.00    +0.000 HD
ENDBRANCH  12  13
ENDBRANCH   5   6
ENDBRANCH   2   5
ENDBRANCH   1   2
BRANCH   1  15
ATOM     15  C   UNL     1       6.871   5.616  15.945  0.00  0.00    +0.000 C 
BRANCH  15  16
ATOM     16  O   UNL     1       7.768   6.405  16.739  0.00  0.00    +0.000 OA
BRANCH  16  17
ATOM     17  C   UNL     1       7.176   7.448  17.364  0.00  0.00    +0.000 C 
ATOM     18  O   UNL     1       5.981   7.698  17.397  0.00  0.00    +0.000 OA
BRANCH  17  19
ATOM     19  C   UNL     1       8.226   8.240  18.020  0.00  0.00    +0.000 C 
ATOM     20  C   UNL     1       8.194   9.576  17.896  0.00  0.00    +0.000 C 
BRANCH  20  21
ATOM     21  C   UNL     1       9.170  10.486  18.499  0.00  0.00    +0.000 A 
ATOM     22  C   UNL     1       9.384  10.551  19.882  0.00  0.00    +0.000 A 
ATOM     23  C   UNL     1      10.355  11.403  20.411  0.00  0.00    +0.000 A 
ATOM     24  C   UNL     1      11.121  12.184  19.553  0.00  0.00    +0.000 A 
ATOM     25  C   UNL     1      10.931  12.127  18.179  0.00  0.00    +0.000 A 
ATOM     26  C   UNL     1       9.960  11.276  17.651  0.00  0.00    +0.000 A 
BRANCH  24  27
ATOM     27  O   UNL     1      12.085  13.022  20.029  0.00  0.00    +0.000 OA
ATOM     28  H   UNL     1      12.076  12.981  20.999  0.00  0.00    +0.000 HD
ENDBRANCH  24  27
ENDBRANCH  20  21
ENDBRANCH  17  19
ENDBRANCH  16  17
ENDBRANCH  15  16
ENDBRANCH   1  15
TORSDOF 11
ENDMDL
MODEL 8
REMARK VINA RESULT:      -7.1      2.390      3.890
REMARK  Name = 
REMARK  12 active torsions:
REMARK  status: ('A' for Active; 'I' for Inactive)
REMARK    1  A    between atoms: C_1  and  C_2
REMARK    2  A    between atoms: C_2  and  N_3
REMARK    3  A    between atoms: N_3  and  C_4
REMARK    4  A    between atoms: N_3  and  C_18
REMARK    5  A    between atoms: C_4  and  C_5
REMARK    6  A    between atoms: C_5  and  O_6
REMARK    7  A    between atoms: O_6  and  C_7
REMARK    8  A    between atoms: C_7  and  C_9
REMARK    9  A    between atoms: C_10  and  C_11
REMARK   10  A    between atoms: C_14  and  O_15
REMARK   11  A    between atoms: C_18  and  C_19
REMARK   12  A    between atoms: C_25  and  O_26
REMARK                            x       y       z     vdW  Elec       q    Type
REMARK                         _______ _______ _______ _____ _____    ______ ____
ROOT
ATOM      1  C   UNL     1       4.964   4.968  19.130  0.00  0.00    +0.000 C 
ENDROOT
BRANCH   1   2
ATOM      2  N   UNL     1       3.745   4.211  18.772  0.00  0.00    +0.000 NA
BRANCH   2   4
ATOM      3  C   UNL     1       3.603   1.687  18.724  0.00  0.00    +0.000 C 
ATOM      4  C   UNL     1       4.032   2.972  18.022  0.00  0.00    +0.000 C 
ENDBRANCH   2   4
BRANCH   2   5
ATOM      5  C   UNL     1       2.816   5.083  18.021  0.00  0.00    +0.000 C 
BRANCH   5   6
ATOM      6  C   UNL     1       2.364   6.320  18.764  0.00  0.00    +0.000 A 
ATOM      7  C   UNL     1       2.389   7.571  18.124  0.00  0.00    +0.000 A 
ATOM      8  C   UNL     1       1.950   8.709  18.797  0.00  0.00    +0.000 A 
ATOM      9 CL   UNL     1       1.971  10.236  18.004  0.00  0.00    +0.000 Cl
ATOM     10  C   UNL     1       1.489   8.622  20.110  0.00  0.00    +0.000 A 
ATOM     11  C   UNL     1       1.475   7.389  20.763  0.00  0.00    +0.000 A 
ATOM     12  C   UNL     1       1.912   6.250  20.088  0.00  0.00    +0.000 A 
BRANCH  12  13
ATOM     13  O   UNL     1       1.914   5.042  20.730  0.00  0.00    +0.000 OA
ATOM     14  H   UNL     1       2.338   5.143  21.597  0.00  0.00    +0.000 HD
ENDBRANCH  12  13
ENDBRANCH   5   6
ENDBRANCH   2   5
ENDBRANCH   1   2
BRANCH   1  15
ATOM     15  C   UNL     1       5.982   5.209  17.998  0.00  0.00    +0.000 C 
BRANCH  15  16
ATOM     16  O   UNL     1       7.121   5.942  18.470  0.00  0.00    +0.000 OA
BRANCH  16  17
ATOM     17  C   UNL     1       7.615   6.826  17.573  0.00  0.00    +0.000 C 
ATOM     18  O   UNL     1       7.572   6.735  16.356  0.00  0.00    +0.000 OA
BRANCH  17  19
ATOM     19  C   UNL     1       8.213   7.944  18.318  0.00  0.00    +0.000 C 
ATOM     20  C   UNL     1       8.224   9.160  17.750  0.00  0.00    +0.000 C 
BRANCH  20  21
ATOM     21  C   UNL     1       8.781  10.360  18.379  0.00  0.00    +0.000 A 
ATOM     22  C   UNL     1       8.634  11.638  17.824  0.00  0.00    +0.000 A 
ATOM     23  C   UNL     1       9.145  12.760  18.479  0.00  0.00    +0.000 A 
ATOM     24  C   UNL     1       9.796  12.603  19.698  0.00  0.00    +0.000 A 
ATOM     25  C   UNL     1       9.943  11.347  20.269  0.00  0.00    +0.000 A 
ATOM     26  C   UNL     1       9.433  10.226  19.614  0.00  0.00    +0.000 A 
BRANCH  24  27
ATOM     27  O   UNL     1      10.300  13.674  20.373  0.00  0.00    +0.000 OA
ATOM     28  H   UNL     1       9.991  13.631  21.293  0.00  0.00    +0.000 HD
ENDBRANCH  24  27
ENDBRANCH  20  21
ENDBRANCH  17  19
ENDBRANCH  16  17
ENDBRANCH  15  16
ENDBRANCH   1  15
TORSDOF 11
ENDMDL
MODEL 9
REMARK VINA RESULT:      -7.1      1.880      2.598
REMARK  Name = 
REMARK  12 active torsions:
REMARK  status: ('A' for Active; 'I' for Inactive)
REMARK    1  A    between atoms: C_1  and  C_2
REMARK    2  A    between atoms: C_2  and  N_3
REMARK    3  A    between atoms: N_3  and  C_4
REMARK    4  A    between atoms: N_3  and  C_18
REMARK    5  A    between atoms: C_4  and  C_5
REMARK    6  A    between atoms: C_5  and  O_6
REMARK    7  A    between atoms: O_6  and  C_7
REMARK    8  A    between atoms: C_7  and  C_9
REMARK    9  A    between atoms: C_10  and  C_11
REMARK   10  A    between atoms: C_14  and  O_15
REMARK   11  A    between atoms: C_18  and  C_19
REMARK   12  A    between atoms: C_25  and  O_26
REMARK                            x       y       z     vdW  Elec       q    Type
REMARK                         _______ _______ _______ _____ _____    ______ ____
ROOT
ATOM      1  C   UNL     1       5.493   5.814  16.428  0.00  0.00    +0.000 C 
ENDROOT
BRANCH   1   2
ATOM      2  N   UNL     1       5.336   4.344  16.468  0.00  0.00    +0.000 NA
BRANCH   2   4
ATOM      3  C   UNL     1       5.602   4.038  13.973  0.00  0.00    +0.000 C 
ATOM      4  C   UNL     1       6.056   3.655  15.378  0.00  0.00    +0.000 C 
ENDBRANCH   2   4
BRANCH   2   5
ATOM      5  C   UNL     1       3.899   3.993  16.461  0.00  0.00    +0.000 C 
BRANCH   5   6
ATOM      6  C   UNL     1       3.360   3.496  17.782  0.00  0.00    +0.000 A 
ATOM      7  C   UNL     1       4.213   2.842  18.688  0.00  0.00    +0.000 A 
ATOM      8  C   UNL     1       3.725   2.406  19.917  0.00  0.00    +0.000 A 
ATOM      9 CL   UNL     1       4.779   1.618  21.027  0.00  0.00    +0.000 Cl
ATOM     10  C   UNL     1       2.388   2.604  20.260  0.00  0.00    +0.000 A 
ATOM     11  C   UNL     1       1.526   3.236  19.363  0.00  0.00    +0.000 A 
ATOM     12  C   UNL     1       2.015   3.675  18.135  0.00  0.00    +0.000 A 
BRANCH  12  13
ATOM     13  O   UNL     1       1.169   4.281  17.246  0.00  0.00    +0.000 OA
ATOM     14  H   UNL     1       1.673   4.551  16.462  0.00  0.00    +0.000 HD
ENDBRANCH  12  13
ENDBRANCH   5   6
ENDBRANCH   2   5
ENDBRANCH   1   2
BRANCH   1  15
ATOM     15  C   UNL     1       6.935   6.355  16.503  0.00  0.00    +0.000 C 
BRANCH  15  16
ATOM     16  O   UNL     1       6.967   7.674  17.065  0.00  0.00    +0.000 OA
BRANCH  16  17
ATOM     17  C   UNL     1       7.891   7.833  18.040  0.00  0.00    +0.000 C 
ATOM     18  O   UNL     1       8.272   6.984  18.831  0.00  0.00    +0.000 OA
BRANCH  17  19
ATOM     19  C   UNL     1       8.378   9.219  17.984  0.00  0.00    +0.000 C 
ATOM     20  C   UNL     1       9.175   9.659  18.970  0.00  0.00    +0.000 C 
BRANCH  20  21
ATOM     21  C   UNL     1       9.735  11.010  19.038  0.00  0.00    +0.000 A 
ATOM     22  C   UNL     1       9.710  11.892  17.949  0.00  0.00    +0.000 A 
ATOM     23  C   UNL     1      10.219  13.186  18.070  0.00  0.00    +0.000 A 
ATOM     24  C   UNL     1      10.744  13.603  19.289  0.00  0.00    +0.000 A 
ATOM     25  C   UNL     1      10.769  12.749  20.383  0.00  0.00    +0.000 A 
ATOM     26  C   UNL     1      10.261  11.455  20.260  0.00  0.00    +0.000 A 
BRANCH  24  27
ATOM     27  O   UNL     1      11.241  14.861  19.451  0.00  0.00    +0.000 OA
ATOM     28  H   UNL     1      11.029  15.381  18.658  0.00  0.00    +0.000 HD
ENDBRANCH  24  27
ENDBRANCH  20  21
ENDBRANCH  17  19
ENDBRANCH  16  17
ENDBRANCH  15  16
ENDBRANCH   1  15
TORSDOF 11
ENDMDL
