MODEL 1
REMARK VINA RESULT:      -7.2      0.000      0.000
REMARK  Name = 
REMARK  7 active torsions:
REMARK  status: ('A' for Active; 'I' for Inactive)
REMARK    1  A    between atoms: C_1  and  O_2
REMARK    2  A    between atoms: O_2  and  C_3
REMARK    3  A    between atoms: C_3  and  C_5
REMARK    4  A    between atoms: C_5  and  N_6
REMARK    5  A    between atoms: N_18  and  C_19
REMARK    6  A    between atoms: C_19  and  C_20
REMARK    7  A    between atoms: C_19  and  C_21
REMARK                            x       y       z     vdW  Elec       q    Type
REMARK                         _______ _______ _______ _____ _____    ______ ____
ROOT
ATOM      1  N   UNL     1      -5.183  12.426  20.198  0.00  0.00    +0.000 N 
ATOM      2  C   UNL     1      -4.856  12.721  21.517  0.00  0.00    +0.000 C 
ATOM      3  O   UNL     1      -5.625  12.503  22.451  0.00  0.00    +0.000 OA
ATOM      4  C   UNL     1      -3.440  13.363  21.680  0.00  0.00    +0.000 C 
ATOM      5  C   UNL     1      -4.427  14.761  21.848  0.00  0.00    +0.000 C 
ATOM      6  C   UNL     1      -4.375  15.722  20.697  0.00  0.00    +0.000 C 
ATOM      7  O   UNL     1      -5.263  16.041  19.936  0.00  0.00    +0.000 OA
ATOM      8  N   UNL     1      -3.115  16.319  20.520  0.00  0.00    +0.000 N 
ATOM      9  C   UNL     1      -2.073  15.519  20.894  0.00  0.00    +0.000 A 
ATOM     10  C   UNL     1      -2.222  14.286  21.516  0.00  0.00    +0.000 A 
ATOM     11  N   UNL     1      -0.967  13.971  21.981  0.00  0.00    +0.000 NA
ATOM     12  N   UNL     1      -0.072  14.715  21.328  0.00  0.00    +0.000 NA
ATOM     13  N   UNL     1      -0.757  15.537  20.490  0.00  0.00    +0.000 N 
ATOM     14  C   UNL     1      -2.964  12.567  20.347  0.00  0.00    +0.000 A 
ATOM     15  C   UNL     1      -1.702  12.011  20.039  0.00  0.00    +0.000 A 
ATOM     16  C   UNL     1      -1.505  11.304  18.849  0.00  0.00    +0.000 A 
ATOM     17 CL   UNL     1       0.077  10.757  18.448  0.00  0.00    +0.000 Cl
ATOM     18  C   UNL     1      -2.566  11.024  17.998  0.00  0.00    +0.000 A 
ATOM     19  C   UNL     1      -3.855  11.452  18.346  0.00  0.00    +0.000 A 
ATOM     20  C   UNL     1      -4.007  12.183  19.519  0.00  0.00    +0.000 A 
ATOM     21  H   UNL     1      -3.013  17.207  20.045  0.00  0.00    +0.000 HD
ENDROOT
BRANCH  13  22
ATOM     22  C   UNL     1      -0.345  15.649  19.073  0.00  0.00    +0.000 C 
ATOM     23  C   UNL     1      -0.726  16.988  18.410  0.00  0.00    +0.000 C 
BRANCH  22  24
ATOM     24  C   UNL     1       1.111  15.278  18.890  0.00  0.00    +0.000 A 
ATOM     25  C   UNL     1       2.075  16.296  19.010  0.00  0.00    +0.000 A 
ATOM     26  C   UNL     1       3.413  16.052  18.707  0.00  0.00    +0.000 A 
ATOM     27  C   UNL     1       3.805  14.782  18.297  0.00  0.00    +0.000 A 
ATOM     28 CL   UNL     1       5.420  14.515  17.774  0.00  0.00    +0.000 Cl
ATOM     29  C   UNL     1       2.884  13.738  18.270  0.00  0.00    +0.000 A 
ATOM     30  C   UNL     1       1.540  13.980  18.572  0.00  0.00    +0.000 A 
ENDBRANCH  22  24
ENDBRANCH  13  22
BRANCH   1  31
ATOM     31  C   UNL     1      -6.500  12.029  19.716  0.00  0.00    +0.000 C 
BRANCH  31  32
ATOM     32  C   UNL     1      -6.958  10.562  19.709  0.00  0.00    +0.000 C 
ATOM     33  O   UNL     1      -6.936   9.880  18.689  0.00  0.00    +0.000 OA
BRANCH  32  35
ATOM     34  C   UNL     1      -7.917   8.801  20.926  0.00  0.00    +0.000 C 
ATOM     35  O   UNL     1      -7.347  10.117  20.934  0.00  0.00    +0.000 OA
ENDBRANCH  32  35
ENDBRANCH  31  32
ENDBRANCH   1  31
TORSDOF 5
ENDMDL
MODEL 2
REMARK VINA RESULT:      -7.1      1.910      2.620
REMARK  Name = 
REMARK  7 active torsions:
REMARK  status: ('A' for Active; 'I' for Inactive)
REMARK    1  A    between atoms: C_1  and  O_2
REMARK    2  A    between atoms: O_2  and  C_3
REMARK    3  A    between atoms: C_3  and  C_5
REMARK    4  A    between atoms: C_5  and  N_6
REMARK    5  A    between atoms: N_18  and  C_19
REMARK    6  A    between atoms: C_19  and  C_20
REMARK    7  A    between atoms: C_19  and  C_21
REMARK                            x       y       z     vdW  Elec       q    Type
REMARK                         _______ _______ _______ _____ _____    ______ ____
ROOT
ATOM      1  N   UNL     1      -4.083  12.837  21.586  0.00  0.00    +0.000 N 
ATOM      2  C   UNL     1      -3.336  12.398  22.674  0.00  0.00    +0.000 C 
ATOM      3  O   UNL     1      -3.844  12.157  23.768  0.00  0.00    +0.000 OA
ATOM      4  C   UNL     1      -1.810  12.263  22.369  0.00  0.00    +0.000 C 
ATOM      5  C   UNL     1      -1.812  13.738  23.252  0.00  0.00    +0.000 C 
ATOM      6  C   UNL     1      -1.535  14.970  22.440  0.00  0.00    +0.000 C 
ATOM      7  O   UNL     1      -2.266  15.911  22.219  0.00  0.00    +0.000 OA
ATOM      8  N   UNL     1      -0.242  15.002  21.892  0.00  0.00    +0.000 N 
ATOM      9  C   UNL     1       0.260  13.765  21.598  0.00  0.00    +0.000 A 
ATOM     10  C   UNL     1      -0.371  12.572  21.924  0.00  0.00    +0.000 A 
ATOM     11  N   UNL     1       0.586  11.603  21.732  0.00  0.00    +0.000 NA
ATOM     12  N   UNL     1       1.546  12.103  20.952  0.00  0.00    +0.000 NA
ATOM     13  N   UNL     1       1.231  13.399  20.694  0.00  0.00    +0.000 N 
ATOM     14  C   UNL     1      -2.181  11.968  20.816  0.00  0.00    +0.000 A 
ATOM     15  C   UNL     1      -1.540  11.118  19.887  0.00  0.00    +0.000 A 
ATOM     16  C   UNL     1      -2.054  10.953  18.597  0.00  0.00    +0.000 A 
ATOM     17 CL   UNL     1      -1.172  10.017  17.454  0.00  0.00    +0.000 Cl
ATOM     18  C   UNL     1      -3.270  11.517  18.233  0.00  0.00    +0.000 A 
ATOM     19  C   UNL     1      -3.993  12.257  19.179  0.00  0.00    +0.000 A 
ATOM     20  C   UNL     1      -3.433  12.431  20.440  0.00  0.00    +0.000 A 
ATOM     21  H   UNL     1       0.202  15.875  21.636  0.00  0.00    +0.000 HD
ENDROOT
BRANCH  13  22
ATOM     22  C   UNL     1       1.274  13.902  19.302  0.00  0.00    +0.000 C 
ATOM     23  C   UNL     1      -0.069  14.460  18.792  0.00  0.00    +0.000 C 
BRANCH  22  24
ATOM     24  C   UNL     1       2.439  14.847  19.093  0.00  0.00    +0.000 A 
ATOM     25  C   UNL     1       3.203  14.708  17.920  0.00  0.00    +0.000 A 
ATOM     26  C   UNL     1       4.373  15.443  17.739  0.00  0.00    +0.000 A 
ATOM     27  C   UNL     1       4.783  16.338  18.722  0.00  0.00    +0.000 A 
ATOM     28 CL   UNL     1       6.300  17.130  18.575  0.00  0.00    +0.000 Cl
ATOM     29  C   UNL     1       3.986  16.562  19.842  0.00  0.00    +0.000 A 
ATOM     30  C   UNL     1       2.813  15.824  20.028  0.00  0.00    +0.000 A 
ENDBRANCH  22  24
ENDBRANCH  13  22
BRANCH   1  31
ATOM     31  C   UNL     1      -5.478  13.262  21.627  0.00  0.00    +0.000 C 
BRANCH  31  32
ATOM     32  C   UNL     1      -6.624  12.273  21.890  0.00  0.00    +0.000 C 
ATOM     33  O   UNL     1      -6.787  11.271  21.201  0.00  0.00    +0.000 OA
BRANCH  32  35
ATOM     34  C   UNL     1      -7.011  13.851  23.581  0.00  0.00    +0.000 C 
ATOM     35  O   UNL     1      -7.390  12.615  22.960  0.00  0.00    +0.000 OA
ENDBRANCH  32  35
ENDBRANCH  31  32
ENDBRANCH   1  31
TORSDOF 5
ENDMDL
MODEL 3
REMARK VINA RESULT:      -6.8      2.390      3.314
REMARK  Name = 
REMARK  7 active torsions:
REMARK  status: ('A' for Active; 'I' for Inactive)
REMARK    1  A    between atoms: C_1  and  O_2
REMARK    2  A    between atoms: O_2  and  C_3
REMARK    3  A    between atoms: C_3  and  C_5
REMARK    4  A    between atoms: C_5  and  N_6
REMARK    5  A    between atoms: N_18  and  C_19
REMARK    6  A    between atoms: C_19  and  C_20
REMARK    7  A    between atoms: C_19  and  C_21
REMARK                            x       y       z     vdW  Elec       q    Type
REMARK                         _______ _______ _______ _____ _____    ______ ____
ROOT
ATOM      1  N   UNL     1      -3.945  12.834  21.875  0.00  0.00    +0.000 N 
ATOM      2  C   UNL     1      -3.138  12.325  22.887  0.00  0.00    +0.000 C 
ATOM      3  O   UNL     1      -3.579  12.036  23.999  0.00  0.00    +0.000 OA
ATOM      4  C   UNL     1      -1.638  12.180  22.476  0.00  0.00    +0.000 C 
ATOM      5  C   UNL     1      -1.551  13.606  23.431  0.00  0.00    +0.000 C 
ATOM      6  C   UNL     1      -1.302  14.874  22.667  0.00  0.00    +0.000 C 
ATOM      7  O   UNL     1      -2.027  15.838  22.543  0.00  0.00    +0.000 OA
ATOM      8  N   UNL     1      -0.047  14.913  22.036  0.00  0.00    +0.000 N 
ATOM      9  C   UNL     1       0.408  13.684  21.647  0.00  0.00    +0.000 A 
ATOM     10  C   UNL     1      -0.225  12.487  21.952  0.00  0.00    +0.000 A 
ATOM     11  N   UNL     1       0.697  11.512  21.648  0.00  0.00    +0.000 NA
ATOM     12  N   UNL     1       1.615  12.036  20.834  0.00  0.00    +0.000 NA
ATOM     13  N   UNL     1       1.311  13.349  20.663  0.00  0.00    +0.000 N 
ATOM     14  C   UNL     1      -2.116  11.973  20.938  0.00  0.00    +0.000 A 
ATOM     15  C   UNL     1      -1.554  11.162  19.926  0.00  0.00    +0.000 A 
ATOM     16  C   UNL     1      -2.154  11.074  18.666  0.00  0.00    +0.000 A 
ATOM     17 CL   UNL     1      -1.368  10.183  17.421  0.00  0.00    +0.000 Cl
ATOM     18  C   UNL     1      -3.379  11.677  18.412  0.00  0.00    +0.000 A 
ATOM     19  C   UNL     1      -4.023  12.379  19.441  0.00  0.00    +0.000 A 
ATOM     20  C   UNL     1      -3.379  12.477  20.670  0.00  0.00    +0.000 A 
ATOM     21  H   UNL     1       0.397  15.790  21.797  0.00  0.00    +0.000 HD
ENDROOT
BRANCH  13  22
ATOM     22  C   UNL     1       1.274  13.923  19.300  0.00  0.00    +0.000 C 
ATOM     23  C   UNL     1      -0.088  14.530  18.909  0.00  0.00    +0.000 C 
BRANCH  22  24
ATOM     24  C   UNL     1       2.442  14.857  19.063  0.00  0.00    +0.000 A 
ATOM     25  C   UNL     1       3.503  14.401  18.260  0.00  0.00    +0.000 A 
ATOM     26  C   UNL     1       4.671  15.150  18.127  0.00  0.00    +0.000 A 
ATOM     27  C   UNL     1       4.782  16.373  18.781  0.00  0.00    +0.000 A 
ATOM     28 CL   UNL     1       6.273  17.226  18.746  0.00  0.00    +0.000 Cl
ATOM     29  C   UNL     1       3.704  16.887  19.497  0.00  0.00    +0.000 A 
ATOM     30  C   UNL     1       2.532  16.136  19.634  0.00  0.00    +0.000 A 
ENDBRANCH  22  24
ENDBRANCH  13  22
BRANCH   1  31
ATOM     31  C   UNL     1      -5.324  13.281  22.029  0.00  0.00    +0.000 C 
BRANCH  31  32
ATOM     32  C   UNL     1      -5.675  14.731  22.397  0.00  0.00    +0.000 C 
ATOM     33  O   UNL     1      -6.389  15.427  21.682  0.00  0.00    +0.000 OA
BRANCH  32  35
ATOM     34  C   UNL     1      -5.764  16.289  24.149  0.00  0.00    +0.000 C 
ATOM     35  O   UNL     1      -5.143  15.124  23.586  0.00  0.00    +0.000 OA
ENDBRANCH  32  35
ENDBRANCH  31  32
ENDBRANCH   1  31
TORSDOF 5
ENDMDL
MODEL 4
REMARK VINA RESULT:      -6.8      1.373      1.880
REMARK  Name = 
REMARK  7 active torsions:
REMARK  status: ('A' for Active; 'I' for Inactive)
REMARK    1  A    between atoms: C_1  and  O_2
REMARK    2  A    between atoms: O_2  and  C_3
REMARK    3  A    between atoms: C_3  and  C_5
REMARK    4  A    between atoms: C_5  and  N_6
REMARK    5  A    between atoms: N_18  and  C_19
REMARK    6  A    between atoms: C_19  and  C_20
REMARK    7  A    between atoms: C_19  and  C_21
REMARK                            x       y       z     vdW  Elec       q    Type
REMARK                         _______ _______ _______ _____ _____    ______ ____
ROOT
ATOM      1  N   UNL     1      -4.284  12.628  20.406  0.00  0.00    +0.000 N 
ATOM      2  C   UNL     1      -3.833  12.596  21.721  0.00  0.00    +0.000 C 
ATOM      3  O   UNL     1      -4.595  12.454  22.676  0.00  0.00    +0.000 OA
ATOM      4  C   UNL     1      -2.286  12.774  21.854  0.00  0.00    +0.000 C 
ATOM      5  C   UNL     1      -2.811  14.346  22.309  0.00  0.00    +0.000 C 
ATOM      6  C   UNL     1      -2.524  15.430  21.311  0.00  0.00    +0.000 C 
ATOM      7  O   UNL     1      -3.309  16.109  20.684  0.00  0.00    +0.000 OA
ATOM      8  N   UNL     1      -1.153  15.665  21.116  0.00  0.00    +0.000 N 
ATOM      9  C   UNL     1      -0.378  14.552  21.278  0.00  0.00    +0.000 A 
ATOM     10  C   UNL     1      -0.858  13.327  21.723  0.00  0.00    +0.000 A 
ATOM     11  N   UNL     1       0.267  12.596  22.027  0.00  0.00    +0.000 NA
ATOM     12  N   UNL     1       1.314  13.153  21.416  0.00  0.00    +0.000 NA
ATOM     13  N   UNL     1       0.868  14.262  20.769  0.00  0.00    +0.000 N 
ATOM     14  C   UNL     1      -2.118  12.108  20.383  0.00  0.00    +0.000 A 
ATOM     15  C   UNL     1      -1.088  11.275  19.889  0.00  0.00    +0.000 A 
ATOM     16  C   UNL     1      -1.155  10.748  18.595  0.00  0.00    +0.000 A 
ATOM     17 CL   UNL     1       0.178   9.849  17.984  0.00  0.00    +0.000 Cl
ATOM     18  C   UNL     1      -2.285  10.925  17.807  0.00  0.00    +0.000 A 
ATOM     19  C   UNL     1      -3.377  11.637  18.324  0.00  0.00    +0.000 A 
ATOM     20  C   UNL     1      -3.260  12.178  19.601  0.00  0.00    +0.000 A 
ATOM     21  H   UNL     1      -0.813  16.554  20.770  0.00  0.00    +0.000 HD
ENDROOT
BRANCH  13  22
ATOM     22  C   UNL     1       1.238  14.486  19.353  0.00  0.00    +0.000 C 
ATOM     23  C   UNL     1       0.205  15.304  18.555  0.00  0.00    +0.000 C 
BRANCH  22  24
ATOM     24  C   UNL     1       2.652  15.012  19.229  0.00  0.00    +0.000 A 
ATOM     25  C   UNL     1       3.063  16.025  20.115  0.00  0.00    +0.000 A 
ATOM     26  C   UNL     1       4.295  16.656  19.957  0.00  0.00    +0.000 A 
ATOM     27  C   UNL     1       5.139  16.267  18.921  0.00  0.00    +0.000 A 
ATOM     28 CL   UNL     1       6.587  17.143  18.628  0.00  0.00    +0.000 Cl
ATOM     29  C   UNL     1       4.793  15.199  18.098  0.00  0.00    +0.000 A 
ATOM     30  C   UNL     1       3.556  14.566  18.253  0.00  0.00    +0.000 A 
ENDBRANCH  22  24
ENDBRANCH  13  22
BRANCH   1  31
ATOM     31  C   UNL     1      -5.679  12.707  19.986  0.00  0.00    +0.000 C 
BRANCH  31  32
ATOM     32  C   UNL     1      -6.582  11.465  19.920  0.00  0.00    +0.000 C 
ATOM     33  O   UNL     1      -6.961  10.884  20.932  0.00  0.00    +0.000 OA
BRANCH  32  35
ATOM     34  C   UNL     1      -7.033  12.231  17.749  0.00  0.00    +0.000 C 
ATOM     35  O   UNL     1      -6.922  11.119  18.649  0.00  0.00    +0.000 OA
ENDBRANCH  32  35
ENDBRANCH  31  32
ENDBRANCH   1  31
TORSDOF 5
ENDMDL
MODEL 5
REMARK VINA RESULT:      -6.7      7.400     11.440
REMARK  Name = 
REMARK  7 active torsions:
REMARK  status: ('A' for Active; 'I' for Inactive)
REMARK    1  A    between atoms: C_1  and  O_2
REMARK    2  A    between atoms: O_2  and  C_3
REMARK    3  A    between atoms: C_3  and  C_5
REMARK    4  A    between atoms: C_5  and  N_6
REMARK    5  A    between atoms: N_18  and  C_19
REMARK    6  A    between atoms: C_19  and  C_20
REMARK    7  A    between atoms: C_19  and  C_21
REMARK                            x       y       z     vdW  Elec       q    Type
REMARK                         _______ _______ _______ _____ _____    ______ ____
ROOT
ATOM      1  N   UNL     1       6.122  15.368  20.992  0.00  0.00    +0.000 N 
ATOM      2  C   UNL     1       5.980  16.537  20.251  0.00  0.00    +0.000 C 
ATOM      3  O   UNL     1       4.892  17.087  20.091  0.00  0.00    +0.000 OA
ATOM      4  C   UNL     1       7.322  17.056  19.641  0.00  0.00    +0.000 C 
ATOM      5  C   UNL     1       6.609  16.350  18.245  0.00  0.00    +0.000 C 
ATOM      6  C   UNL     1       7.257  15.083  17.767  0.00  0.00    +0.000 C 
ATOM      7  O   UNL     1       6.789  13.966  17.715  0.00  0.00    +0.000 OA
ATOM      8  N   UNL     1       8.577  15.262  17.317  0.00  0.00    +0.000 N 
ATOM      9  C   UNL     1       9.244  16.265  17.963  0.00  0.00    +0.000 A 
ATOM     10  C   UNL     1       8.657  17.125  18.882  0.00  0.00    +0.000 A 
ATOM     11  N   UNL     1       9.570  18.139  19.049  0.00  0.00    +0.000 NA
ATOM     12  N   UNL     1      10.761  17.714  18.622  0.00  0.00    +0.000 NA
ATOM     13  N   UNL     1      10.596  16.455  18.136  0.00  0.00    +0.000 N 
ATOM     14  C   UNL     1       8.112  16.365  20.880  0.00  0.00    +0.000 A 
ATOM     15  C   UNL     1       9.277  16.797  21.553  0.00  0.00    +0.000 A 
ATOM     16  C   UNL     1       9.775  16.085  22.648  0.00  0.00    +0.000 A 
ATOM     17 CL   UNL     1      11.268  16.567  23.356  0.00  0.00    +0.000 Cl
ATOM     18  C   UNL     1       9.076  15.010  23.182  0.00  0.00    +0.000 A 
ATOM     19  C   UNL     1       7.849  14.641  22.613  0.00  0.00    +0.000 A 
ATOM     20  C   UNL     1       7.403  15.349  21.503  0.00  0.00    +0.000 A 
ATOM     21  H   UNL     1       9.004  14.617  16.665  0.00  0.00    +0.000 HD
ENDROOT
BRANCH  13  22
ATOM     22  C   UNL     1      11.519  15.378  18.558  0.00  0.00    +0.000 C 
ATOM     23  C   UNL     1      12.330  15.705  19.828  0.00  0.00    +0.000 C 
BRANCH  22  24
ATOM     24  C   UNL     1      10.814  14.040  18.620  0.00  0.00    +0.000 A 
ATOM     25  C   UNL     1      10.211  13.664  19.834  0.00  0.00    +0.000 A 
ATOM     26  C   UNL     1       9.678  12.387  20.001  0.00  0.00    +0.000 A 
ATOM     27  C   UNL     1       9.728  11.478  18.950  0.00  0.00    +0.000 A 
ATOM     28 CL   UNL     1       9.214   9.857  19.199  0.00  0.00    +0.000 Cl
ATOM     29  C   UNL     1      10.229  11.866  17.710  0.00  0.00    +0.000 A 
ATOM     30  C   UNL     1      10.766  13.146  17.540  0.00  0.00    +0.000 A 
ENDBRANCH  22  24
ENDBRANCH  13  22
BRANCH   1  31
ATOM     31  C   UNL     1       5.032  14.539  21.492  0.00  0.00    +0.000 C 
BRANCH  31  32
ATOM     32  C   UNL     1       4.233  14.915  22.750  0.00  0.00    +0.000 C 
ATOM     33  O   UNL     1       4.575  14.548  23.869  0.00  0.00    +0.000 OA
BRANCH  32  35
ATOM     34  C   UNL     1       2.097  15.028  21.787  0.00  0.00    +0.000 C 
ATOM     35  O   UNL     1       3.155  15.701  22.484  0.00  0.00    +0.000 OA
ENDBRANCH  32  35
ENDBRANCH  31  32
ENDBRANCH   1  31
TORSDOF 5
ENDMDL
MODEL 6
REMARK VINA RESULT:      -6.6      4.426      7.461
REMARK  Name = 
REMARK  7 active torsions:
REMARK  status: ('A' for Active; 'I' for Inactive)
REMARK    1  A    between atoms: C_1  and  O_2
REMARK    2  A    between atoms: O_2  and  C_3
REMARK    3  A    between atoms: C_3  and  C_5
REMARK    4  A    between atoms: C_5  and  N_6
REMARK    5  A    between atoms: N_18  and  C_19
REMARK    6  A    between atoms: C_19  and  C_20
REMARK    7  A    between atoms: C_19  and  C_21
REMARK                            x       y       z     vdW  Elec       q    Type
REMARK                         _______ _______ _______ _____ _____    ______ ____
ROOT
ATOM      1  N   UNL     1       1.420  15.535  21.429  0.00  0.00    +0.000 N 
ATOM      2  C   UNL     1       2.326  14.480  21.442  0.00  0.00    +0.000 C 
ATOM      3  O   UNL     1       3.531  14.649  21.622  0.00  0.00    +0.000 OA
ATOM      4  C   UNL     1       1.665  13.087  21.189  0.00  0.00    +0.000 C 
ATOM      5  C   UNL     1       2.363  13.374  19.645  0.00  0.00    +0.000 C 
ATOM      6  C   UNL     1       1.386  13.675  18.547  0.00  0.00    +0.000 C 
ATOM      7  O   UNL     1       1.258  14.696  17.906  0.00  0.00    +0.000 OA
ATOM      8  N   UNL     1       0.531  12.601  18.245  0.00  0.00    +0.000 N 
ATOM      9  C   UNL     1       0.251  11.806  19.320  0.00  0.00    +0.000 A 
ATOM     10  C   UNL     1       0.845  11.945  20.567  0.00  0.00    +0.000 A 
ATOM     11  N   UNL     1       0.522  10.792  21.243  0.00  0.00    +0.000 NA
ATOM     12  N   UNL     1      -0.520  10.221  20.635  0.00  0.00    +0.000 NA
ATOM     13  N   UNL     1      -0.824  10.977  19.548  0.00  0.00    +0.000 N 
ATOM     14  C   UNL     1       0.293  13.658  21.844  0.00  0.00    +0.000 A 
ATOM     15  C   UNL     1      -0.674  12.986  22.625  0.00  0.00    +0.000 A 
ATOM     16  C   UNL     1      -1.770  13.676  23.152  0.00  0.00    +0.000 A 
ATOM     17 CL   UNL     1      -2.994  12.798  23.985  0.00  0.00    +0.000 Cl
ATOM     18  C   UNL     1      -1.876  15.055  23.029  0.00  0.00    +0.000 A 
ATOM     19  C   UNL     1      -0.860  15.764  22.371  0.00  0.00    +0.000 A 
ATOM     20  C   UNL     1       0.196  15.041  21.828  0.00  0.00    +0.000 A 
ATOM     21  H   UNL     1       0.084  12.520  17.340  0.00  0.00    +0.000 HD
ENDROOT
BRANCH  13  22
ATOM     22  C   UNL     1      -2.227  11.383  19.304  0.00  0.00    +0.000 C 
ATOM     23  C   UNL     1      -2.516  12.864  19.615  0.00  0.00    +0.000 C 
BRANCH  22  24
ATOM     24  C   UNL     1      -2.695  10.951  17.931  0.00  0.00    +0.000 A 
ATOM     25  C   UNL     1      -1.934   9.989  17.243  0.00  0.00    +0.000 A 
ATOM     26  C   UNL     1      -2.225   9.660  15.921  0.00  0.00    +0.000 A 
ATOM     27  C   UNL     1      -3.292  10.277  15.277  0.00  0.00    +0.000 A 
ATOM     28 CL   UNL     1      -3.560   9.992  13.604  0.00  0.00    +0.000 Cl
ATOM     29  C   UNL     1      -4.118  11.156  15.974  0.00  0.00    +0.000 A 
ATOM     30  C   UNL     1      -3.827  11.490  17.300  0.00  0.00    +0.000 A 
ENDBRANCH  22  24
ENDBRANCH  13  22
BRANCH   1  31
ATOM     31  C   UNL     1       1.763  16.952  21.417  0.00  0.00    +0.000 C 
BRANCH  31  32
ATOM     32  C   UNL     1       2.057  17.709  20.112  0.00  0.00    +0.000 C 
ATOM     33  O   UNL     1       3.096  17.538  19.483  0.00  0.00    +0.000 OA
BRANCH  32  35
ATOM     34  C   UNL     1      -0.045  17.874  19.084  0.00  0.00    +0.000 C 
ATOM     35  O   UNL     1       1.046  18.538  19.736  0.00  0.00    +0.000 OA
ENDBRANCH  32  35
ENDBRANCH  31  32
ENDBRANCH   1  31
TORSDOF 5
ENDMDL
MODEL 7
REMARK VINA RESULT:      -6.6      2.231      3.120
REMARK  Name = 
REMARK  7 active torsions:
REMARK  status: ('A' for Active; 'I' for Inactive)
REMARK    1  A    between atoms: C_1  and  O_2
REMARK    2  A    between atoms: O_2  and  C_3
REMARK    3  A    between atoms: C_3  and  C_5
REMARK    4  A    between atoms: C_5  and  N_6
REMARK    5  A    between atoms: N_18  and  C_19
REMARK    6  A    between atoms: C_19  and  C_20
REMARK    7  A    between atoms: C_19  and  C_21
REMARK                            x       y       z     vdW  Elec       q    Type
REMARK                         _______ _______ _______ _____ _____    ______ ____
ROOT
ATOM      1  N   UNL     1      -4.036  12.868  21.795  0.00  0.00    +0.000 N 
ATOM      2  C   UNL     1      -3.251  12.383  22.836  0.00  0.00    +0.000 C 
ATOM      3  O   UNL     1      -3.717  12.113  23.942  0.00  0.00    +0.000 OA
ATOM      4  C   UNL     1      -1.741  12.238  22.463  0.00  0.00    +0.000 C 
ATOM      5  C   UNL     1      -1.684  13.683  23.391  0.00  0.00    +0.000 C 
ATOM      6  C   UNL     1      -1.423  14.937  22.609  0.00  0.00    +0.000 C 
ATOM      7  O   UNL     1      -2.149  15.894  22.449  0.00  0.00    +0.000 OA
ATOM      8  N   UNL     1      -0.153  14.970  22.008  0.00  0.00    +0.000 N 
ATOM      9  C   UNL     1       0.317  13.737  21.654  0.00  0.00    +0.000 A 
ATOM     10  C   UNL     1      -0.318  12.542  21.967  0.00  0.00    +0.000 A 
ATOM     11  N   UNL     1       0.616  11.567  21.704  0.00  0.00    +0.000 NA
ATOM     12  N   UNL     1       1.551  12.079  20.902  0.00  0.00    +0.000 NA
ATOM     13  N   UNL     1       1.244  13.387  20.698  0.00  0.00    +0.000 N 
ATOM     14  C   UNL     1      -2.181  11.998  20.918  0.00  0.00    +0.000 A 
ATOM     15  C   UNL     1      -1.591  11.171  19.936  0.00  0.00    +0.000 A 
ATOM     16  C   UNL     1      -2.161  11.055  18.664  0.00  0.00    +0.000 A 
ATOM     17 CL   UNL     1      -1.341  10.145  17.456  0.00  0.00    +0.000 Cl
ATOM     18  C   UNL     1      -3.382  11.647  18.370  0.00  0.00    +0.000 A 
ATOM     19  C   UNL     1      -4.054  12.365  19.369  0.00  0.00    +0.000 A 
ATOM     20  C   UNL     1      -3.440  12.490  20.610  0.00  0.00    +0.000 A 
ATOM     21  H   UNL     1       0.292  15.845  21.762  0.00  0.00    +0.000 HD
ENDROOT
BRANCH  13  22
ATOM     22  C   UNL     1       1.237  13.934  19.323  0.00  0.00    +0.000 C 
ATOM     23  C   UNL     1      -0.121  14.517  18.884  0.00  0.00    +0.000 C 
BRANCH  22  24
ATOM     24  C   UNL     1       2.400  14.878  19.099  0.00  0.00    +0.000 A 
ATOM     25  C   UNL     1       3.416  14.479  18.212  0.00  0.00    +0.000 A 
ATOM     26  C   UNL     1       4.582  15.231  18.077  0.00  0.00    +0.000 A 
ATOM     27  C   UNL     1       4.736  16.399  18.815  0.00  0.00    +0.000 A 
ATOM     28 CL   UNL     1       6.231  17.245  18.770  0.00  0.00    +0.000 Cl
ATOM     29  C   UNL     1       3.699  16.862  19.621  0.00  0.00    +0.000 A 
ATOM     30  C   UNL     1       2.529  16.109  19.760  0.00  0.00    +0.000 A 
ENDBRANCH  22  24
ENDBRANCH  13  22
BRANCH   1  31
ATOM     31  C   UNL     1      -5.421  13.310  21.907  0.00  0.00    +0.000 C 
BRANCH  31  32
ATOM     32  C   UNL     1      -5.869  14.710  21.459  0.00  0.00    +0.000 C 
ATOM     33  O   UNL     1      -5.433  15.729  21.984  0.00  0.00    +0.000 OA
BRANCH  32  35
ATOM     34  C   UNL     1      -7.190  15.980  19.995  0.00  0.00    +0.000 C 
ATOM     35  O   UNL     1      -6.752  14.683  20.425  0.00  0.00    +0.000 OA
ENDBRANCH  32  35
ENDBRANCH  31  32
ENDBRANCH   1  31
TORSDOF 5
ENDMDL
MODEL 8
REMARK VINA RESULT:      -6.6      4.367      7.317
REMARK  Name = 
REMARK  7 active torsions:
REMARK  status: ('A' for Active; 'I' for Inactive)
REMARK    1  A    between atoms: C_1  and  O_2
REMARK    2  A    between atoms: O_2  and  C_3
REMARK    3  A    between atoms: C_3  and  C_5
REMARK    4  A    between atoms: C_5  and  N_6
REMARK    5  A    between atoms: N_18  and  C_19
REMARK    6  A    between atoms: C_19  and  C_20
REMARK    7  A    between atoms: C_19  and  C_21
REMARK                            x       y       z     vdW  Elec       q    Type
REMARK                         _______ _______ _______ _____ _____    ______ ____
ROOT
ATOM      1  N   UNL     1       0.915  15.461  21.721  0.00  0.00    +0.000 N 
ATOM      2  C   UNL     1       1.931  14.514  21.654  0.00  0.00    +0.000 C 
ATOM      3  O   UNL     1       3.108  14.793  21.877  0.00  0.00    +0.000 OA
ATOM      4  C   UNL     1       1.430  13.088  21.255  0.00  0.00    +0.000 C 
ATOM      5  C   UNL     1       2.112  13.597  19.762  0.00  0.00    +0.000 C 
ATOM      6  C   UNL     1       1.121  13.895  18.675  0.00  0.00    +0.000 C 
ATOM      7  O   UNL     1       0.890  14.954  18.131  0.00  0.00    +0.000 OA
ATOM      8  N   UNL     1       0.393  12.770  18.253  0.00  0.00    +0.000 N 
ATOM      9  C   UNL     1       0.188  11.848  19.241  0.00  0.00    +0.000 A 
ATOM     10  C   UNL     1       0.748  11.930  20.510  0.00  0.00    +0.000 A 
ATOM     11  N   UNL     1       0.545  10.688  21.066  0.00  0.00    +0.000 NA
ATOM     12  N   UNL     1      -0.421  10.070  20.383  0.00  0.00    +0.000 NA
ATOM     13  N   UNL     1      -0.793  10.890  19.365  0.00  0.00    +0.000 N 
ATOM     14  C   UNL     1      -0.004  13.442  21.930  0.00  0.00    +0.000 A 
ATOM     15  C   UNL     1      -0.902  12.597  22.621  0.00  0.00    +0.000 A 
ATOM     16  C   UNL     1      -2.074  13.110  23.186  0.00  0.00    +0.000 A 
ATOM     17 CL   UNL     1      -3.204  12.029  23.904  0.00  0.00    +0.000 Cl
ATOM     18  C   UNL     1      -2.328  14.475  23.192  0.00  0.00    +0.000 A 
ATOM     19  C   UNL     1      -1.388  15.350  22.627  0.00  0.00    +0.000 A 
ATOM     20  C   UNL     1      -0.252  14.801  22.043  0.00  0.00    +0.000 A 
ATOM     21  H   UNL     1      -0.031  12.729  17.335  0.00  0.00    +0.000 HD
ENDROOT
BRANCH  13  22
ATOM     22  C   UNL     1      -2.228  11.164  19.129  0.00  0.00    +0.000 C 
ATOM     23  C   UNL     1      -2.700  12.537  19.647  0.00  0.00    +0.000 C 
BRANCH  22  24
ATOM     24  C   UNL     1      -2.610  10.898  17.689  0.00  0.00    +0.000 A 
ATOM     25  C   UNL     1      -3.732  11.567  17.166  0.00  0.00    +0.000 A 
ATOM     26  C   UNL     1      -4.225  11.255  15.900  0.00  0.00    +0.000 A 
ATOM     27  C   UNL     1      -3.590  10.281  15.136  0.00  0.00    +0.000 A 
ATOM     28 CL   UNL     1      -4.281   9.783  13.644  0.00  0.00    +0.000 Cl
ATOM     29  C   UNL     1      -2.420   9.681  15.595  0.00  0.00    +0.000 A 
ATOM     30  C   UNL     1      -1.925   9.991  16.866  0.00  0.00    +0.000 A 
ENDBRANCH  22  24
ENDBRANCH  13  22
BRANCH   1  31
ATOM     31  C   UNL     1       1.100  16.901  21.851  0.00  0.00    +0.000 C 
BRANCH  31  32
ATOM     32  C   UNL     1       0.636  17.884  20.764  0.00  0.00    +0.000 C 
ATOM     33  O   UNL     1      -0.380  18.560  20.892  0.00  0.00    +0.000 OA
BRANCH  32  35
ATOM     34  C   UNL     1       0.880  18.475  18.507  0.00  0.00    +0.000 C 
ATOM     35  O   UNL     1       1.476  17.936  19.696  0.00  0.00    +0.000 OA
ENDBRANCH  32  35
ENDBRANCH  31  32
ENDBRANCH   1  31
TORSDOF 5
ENDMDL
MODEL 9
REMARK VINA RESULT:      -6.5      4.512      7.790
REMARK  Name = 
REMARK  7 active torsions:
REMARK  status: ('A' for Active; 'I' for Inactive)
REMARK    1  A    between atoms: C_1  and  O_2
REMARK    2  A    between atoms: O_2  and  C_3
REMARK    3  A    between atoms: C_3  and  C_5
REMARK    4  A    between atoms: C_5  and  N_6
REMARK    5  A    between atoms: N_18  and  C_19
REMARK    6  A    between atoms: C_19  and  C_20
REMARK    7  A    between atoms: C_19  and  C_21
REMARK                            x       y       z     vdW  Elec       q    Type
REMARK                         _______ _______ _______ _____ _____    ______ ____
ROOT
ATOM      1  N   UNL     1       1.717  15.823  21.285  0.00  0.00    +0.000 N 
ATOM      2  C   UNL     1       2.538  14.712  21.440  0.00  0.00    +0.000 C 
ATOM      3  O   UNL     1       3.750  14.808  21.625  0.00  0.00    +0.000 OA
ATOM      4  C   UNL     1       1.773  13.352  21.339  0.00  0.00    +0.000 C 
ATOM      5  C   UNL     1       2.510  13.400  19.787  0.00  0.00    +0.000 C 
ATOM      6  C   UNL     1       1.572  13.643  18.641  0.00  0.00    +0.000 C 
ATOM      7  O   UNL     1       1.532  14.587  17.882  0.00  0.00    +0.000 OA
ATOM      8  N   UNL     1       0.640  12.608  18.449  0.00  0.00    +0.000 N 
ATOM      9  C   UNL     1       0.286  11.970  19.604  0.00  0.00    +0.000 A 
ATOM     10  C   UNL     1       0.874  12.210  20.839  0.00  0.00    +0.000 A 
ATOM     11  N   UNL     1       0.454  11.173  21.638  0.00  0.00    +0.000 NA
ATOM     12  N   UNL     1      -0.622  10.616  21.080  0.00  0.00    +0.000 NA
ATOM     13  N   UNL     1      -0.854  11.258  19.905  0.00  0.00    +0.000 N 
ATOM     14  C   UNL     1       0.442  14.100  21.894  0.00  0.00    +0.000 A 
ATOM     15  C   UNL     1      -0.583  13.600  22.728  0.00  0.00    +0.000 A 
ATOM     16  C   UNL     1      -1.629  14.430  23.147  0.00  0.00    +0.000 A 
ATOM     17 CL   UNL     1      -2.927  13.752  24.051  0.00  0.00    +0.000 Cl
ATOM     18  C   UNL     1      -1.625  15.788  22.861  0.00  0.00    +0.000 A 
ATOM     19  C   UNL     1      -0.550  16.335  22.146  0.00  0.00    +0.000 A 
ATOM     20  C   UNL     1       0.454  15.474  21.713  0.00  0.00    +0.000 A 
ATOM     21  H   UNL     1       0.199  12.455  17.551  0.00  0.00    +0.000 HD
ENDROOT
BRANCH  13  22
ATOM     22  C   UNL     1      -2.217  11.738  19.586  0.00  0.00    +0.000 C 
ATOM     23  C   UNL     1      -2.405  13.258  19.754  0.00  0.00    +0.000 C 
BRANCH  22  24
ATOM     24  C   UNL     1      -2.686  11.216  18.245  0.00  0.00    +0.000 A 
ATOM     25  C   UNL     1      -1.886  10.264  17.587  0.00  0.00    +0.000 A 
ATOM     26  C   UNL     1      -2.181   9.857  16.288  0.00  0.00    +0.000 A 
ATOM     27  C   UNL     1      -3.291  10.385  15.637  0.00  0.00    +0.000 A 
ATOM     28 CL   UNL     1      -3.572  10.006  13.985  0.00  0.00    +0.000 Cl
ATOM     29  C   UNL     1      -4.151  11.252  16.308  0.00  0.00    +0.000 A 
ATOM     30  C   UNL     1      -3.855  11.663  17.611  0.00  0.00    +0.000 A 
ENDBRANCH  22  24
ENDBRANCH  13  22
BRANCH   1  31
ATOM     31  C   UNL     1       2.169  17.199  21.114  0.00  0.00    +0.000 C 
BRANCH  31  32
ATOM     32  C   UNL     1       2.904  17.664  19.846  0.00  0.00    +0.000 C 
ATOM     33  O   UNL     1       2.331  17.770  18.767  0.00  0.00    +0.000 OA
BRANCH  32  35
ATOM     34  C   UNL     1       5.132  17.127  19.348  0.00  0.00    +0.000 C 
ATOM     35  O   UNL     1       4.212  17.962  20.066  0.00  0.00    +0.000 OA
ENDBRANCH  32  35
ENDBRANCH  31  32
ENDBRANCH   1  31
TORSDOF 5
ENDMDL
