MODEL 1
REMARK VINA RESULT:      -6.8      0.000      0.000
REMARK  Name = 
REMARK  12 active torsions:
REMARK  status: ('A' for Active; 'I' for Inactive)
REMARK    1  A    between atoms: C_1  and  C_2
REMARK    2  A    between atoms: C_2  and  C_3
REMARK    3  A    between atoms: C_3  and  C_4
REMARK    4  A    between atoms: C_4  and  N_5
REMARK    5  A    between atoms: N_5  and  C_6
REMARK    6  A    between atoms: C_6  and  C_7
REMARK    7  A    between atoms: C_7  and  C_8
REMARK    8  A    between atoms: C_8  and  C_9
REMARK    9  A    between atoms: C_10  and  C_12
REMARK   10  A    between atoms: C_12  and  C_14
REMARK   11  A    between atoms: C_14  and  C_15
REMARK   12  A    between atoms: C_15  and  C_17
REMARK                            x       y       z     vdW  Elec       q    Type
REMARK                         _______ _______ _______ _____ _____    ______ ____
ROOT
ATOM      1  C   UNL     1       4.516   3.996  19.287  0.00  0.00    +0.000 C 
ATOM      2  O   UNL     1       4.492   2.786  19.088  0.00  0.00    +0.000 OA
ENDROOT
BRANCH   1   4
ATOM      3  N   UNL     1       6.048   5.082  17.574  0.00  0.00    +0.000 N 
ATOM      4  C   UNL     1       5.752   4.820  18.929  0.00  0.00    +0.000 C 
ATOM      5  O   UNL     1       6.438   5.192  19.878  0.00  0.00    +0.000 OA
BRANCH   3   6
ATOM      6  C   UNL     1       7.334   5.743  17.300  0.00  0.00    +0.000 C 
BRANCH   6   7
ATOM      7  C   UNL     1       7.360   7.280  17.304  0.00  0.00    +0.000 C 
BRANCH   7   9
ATOM      8  C   UNL     1       8.413   9.436  18.139  0.00  0.00    +0.000 C 
ATOM      9  C   UNL     1       8.260   7.939  18.348  0.00  0.00    +0.000 C 
ENDBRANCH   7   9
ENDBRANCH   6   7
ENDBRANCH   3   6
BRANCH   3  10
ATOM     10  C   UNL     1       5.290   4.382  16.514  0.00  0.00    +0.000 C 
BRANCH  10  11
ATOM     11  C   UNL     1       5.471   4.864  15.075  0.00  0.00    +0.000 C 
BRANCH  11  12
ATOM     12  C   UNL     1       6.415   3.984  14.256  0.00  0.00    +0.000 C 
ATOM     13  C   UNL     1       5.762   3.633  12.926  0.00  0.00    +0.000 C 
ENDBRANCH  11  12
ENDBRANCH  10  11
ENDBRANCH   3  10
ENDBRANCH   1   4
BRANCH   1  14
ATOM     14  C   UNL     1       3.342   4.773  19.830  0.00  0.00    +0.000 C 
BRANCH  14  15
ATOM     15  C   UNL     1       2.561   5.480  18.756  0.00  0.00    +0.000 C 
ATOM     16  O   UNL     1       2.226   4.914  17.718  0.00  0.00    +0.000 OA
BRANCH  15  17
ATOM     17  C   UNL     1       2.167   6.910  18.947  0.00  0.00    +0.000 A 
ATOM     18  C   UNL     1       1.753   7.426  20.183  0.00  0.00    +0.000 A 
ATOM     19  C   UNL     1       1.386   8.776  20.290  0.00  0.00    +0.000 A 
ATOM     20  C   UNL     1       1.435   9.606  19.170  0.00  0.00    +0.000 A 
ATOM     21 BR   UNL     1       0.940  11.424  19.324  0.00  0.00    +0.000 Br
ATOM     22  C   UNL     1       1.843   9.103  17.938  0.00  0.00    +0.000 A 
ATOM     23  C   UNL     1       2.206   7.759  17.829  0.00  0.00    +0.000 A 
ENDBRANCH  15  17
ENDBRANCH  14  15
ENDBRANCH   1  14
TORSDOF 10
ENDMDL
MODEL 2
REMARK VINA RESULT:      -6.8      3.088      6.688
REMARK  Name = 
REMARK  12 active torsions:
REMARK  status: ('A' for Active; 'I' for Inactive)
REMARK    1  A    between atoms: C_1  and  C_2
REMARK    2  A    between atoms: C_2  and  C_3
REMARK    3  A    between atoms: C_3  and  C_4
REMARK    4  A    between atoms: C_4  and  N_5
REMARK    5  A    between atoms: N_5  and  C_6
REMARK    6  A    between atoms: C_6  and  C_7
REMARK    7  A    between atoms: C_7  and  C_8
REMARK    8  A    between atoms: C_8  and  C_9
REMARK    9  A    between atoms: C_10  and  C_12
REMARK   10  A    between atoms: C_12  and  C_14
REMARK   11  A    between atoms: C_14  and  C_15
REMARK   12  A    between atoms: C_15  and  C_17
REMARK                            x       y       z     vdW  Elec       q    Type
REMARK                         _______ _______ _______ _____ _____    ______ ____
ROOT
ATOM      1  C   UNL     1       6.795   5.029  18.985  0.00  0.00    +0.000 C 
ATOM      2  O   UNL     1       7.191   5.776  19.873  0.00  0.00    +0.000 OA
ENDROOT
BRANCH   1   4
ATOM      3  N   UNL     1       4.290   5.222  18.597  0.00  0.00    +0.000 N 
ATOM      4  C   UNL     1       5.385   4.443  19.030  0.00  0.00    +0.000 C 
ATOM      5  O   UNL     1       5.296   3.301  19.476  0.00  0.00    +0.000 OA
BRANCH   3   6
ATOM      6  C   UNL     1       2.952   4.651  18.817  0.00  0.00    +0.000 C 
BRANCH   6   7
ATOM      7  C   UNL     1       2.373   3.746  17.718  0.00  0.00    +0.000 C 
BRANCH   7   9
ATOM      8  C   UNL     1       0.739   2.606  19.295  0.00  0.00    +0.000 C 
ATOM      9  C   UNL     1       1.758   2.426  18.182  0.00  0.00    +0.000 C 
ENDBRANCH   7   9
ENDBRANCH   6   7
ENDBRANCH   3   6
BRANCH   3  10
ATOM     10  C   UNL     1       4.487   6.660  18.310  0.00  0.00    +0.000 C 
BRANCH  10  11
ATOM     11  C   UNL     1       3.401   7.381  17.512  0.00  0.00    +0.000 C 
BRANCH  11  12
ATOM     12  C   UNL     1       2.352   8.057  18.393  0.00  0.00    +0.000 C 
ATOM     13  C   UNL     1       1.978   9.409  17.796  0.00  0.00    +0.000 C 
ENDBRANCH  11  12
ENDBRANCH  10  11
ENDBRANCH   3  10
ENDBRANCH   1   4
BRANCH   1  14
ATOM     14  C   UNL     1       7.614   4.678  17.767  0.00  0.00    +0.000 C 
BRANCH  14  15
ATOM     15  C   UNL     1       7.313   5.560  16.585  0.00  0.00    +0.000 C 
ATOM     16  O   UNL     1       7.528   6.769  16.605  0.00  0.00    +0.000 OA
BRANCH  15  17
ATOM     17  C   UNL     1       6.743   4.958  15.340  0.00  0.00    +0.000 A 
ATOM     18  C   UNL     1       7.433   4.937  14.120  0.00  0.00    +0.000 A 
ATOM     19  C   UNL     1       6.835   4.366  12.987  0.00  0.00    +0.000 A 
ATOM     20  C   UNL     1       5.557   3.816  13.072  0.00  0.00    +0.000 A 
ATOM     21 BR   UNL     1       4.759   3.047  11.541  0.00  0.00    +0.000 Br
ATOM     22  C   UNL     1       4.862   3.832  14.278  0.00  0.00    +0.000 A 
ATOM     23  C   UNL     1       5.455   4.403  15.407  0.00  0.00    +0.000 A 
ENDBRANCH  15  17
ENDBRANCH  14  15
ENDBRANCH   1  14
TORSDOF 10
ENDMDL
MODEL 3
REMARK VINA RESULT:      -6.6      1.277      1.540
REMARK  Name = 
REMARK  12 active torsions:
REMARK  status: ('A' for Active; 'I' for Inactive)
REMARK    1  A    between atoms: C_1  and  C_2
REMARK    2  A    between atoms: C_2  and  C_3
REMARK    3  A    between atoms: C_3  and  C_4
REMARK    4  A    between atoms: C_4  and  N_5
REMARK    5  A    between atoms: N_5  and  C_6
REMARK    6  A    between atoms: C_6  and  C_7
REMARK    7  A    between atoms: C_7  and  C_8
REMARK    8  A    between atoms: C_8  and  C_9
REMARK    9  A    between atoms: C_10  and  C_12
REMARK   10  A    between atoms: C_12  and  C_14
REMARK   11  A    between atoms: C_14  and  C_15
REMARK   12  A    between atoms: C_15  and  C_17
REMARK                            x       y       z     vdW  Elec       q    Type
REMARK                         _______ _______ _______ _____ _____    ______ ____
ROOT
ATOM      1  C   UNL     1       3.362   4.528  18.505  0.00  0.00    +0.000 C 
ATOM      2  O   UNL     1       2.864   3.494  18.935  0.00  0.00    +0.000 OA
ENDROOT
BRANCH   1   4
ATOM      3  N   UNL     1       5.739   4.743  17.632  0.00  0.00    +0.000 N 
ATOM      4  C   UNL     1       4.845   4.828  18.720  0.00  0.00    +0.000 C 
ATOM      5  O   UNL     1       5.169   5.112  19.871  0.00  0.00    +0.000 OA
BRANCH   3   6
ATOM      6  C   UNL     1       7.170   4.890  17.948  0.00  0.00    +0.000 C 
BRANCH   6   7
ATOM      7  C   UNL     1       7.660   6.272  18.408  0.00  0.00    +0.000 C 
BRANCH   7   9
ATOM      8  C   UNL     1       8.110   8.719  17.895  0.00  0.00    +0.000 C 
ATOM      9  C   UNL     1       7.520   7.410  17.398  0.00  0.00    +0.000 C 
ENDBRANCH   7   9
ENDBRANCH   6   7
ENDBRANCH   3   6
BRANCH   3  10
ATOM     10  C   UNL     1       5.278   4.160  16.353  0.00  0.00    +0.000 C 
BRANCH  10  11
ATOM     11  C   UNL     1       6.342   3.656  15.378  0.00  0.00    +0.000 C 
BRANCH  11  12
ATOM     12  C   UNL     1       6.424   4.480  14.094  0.00  0.00    +0.000 C 
ATOM     13  C   UNL     1       5.985   3.627  12.910  0.00  0.00    +0.000 C 
ENDBRANCH  11  12
ENDBRANCH  10  11
ENDBRANCH   3  10
ENDBRANCH   1   4
BRANCH   1  14
ATOM     14  C   UNL     1       2.597   5.544  17.692  0.00  0.00    +0.000 C 
BRANCH  14  15
ATOM     15  C   UNL     1       3.007   6.961  17.990  0.00  0.00    +0.000 C 
ATOM     16  O   UNL     1       3.980   7.483  17.450  0.00  0.00    +0.000 OA
BRANCH  15  17
ATOM     17  C   UNL     1       2.212   7.772  18.963  0.00  0.00    +0.000 A 
ATOM     18  C   UNL     1       1.979   7.364  20.283  0.00  0.00    +0.000 A 
ATOM     19  C   UNL     1       1.214   8.169  21.140  0.00  0.00    +0.000 A 
ATOM     20  C   UNL     1       0.688   9.377  20.683  0.00  0.00    +0.000 A 
ATOM     21 BR   UNL     1      -0.339  10.456  21.845  0.00  0.00    +0.000 Br
ATOM     22  C   UNL     1       0.914   9.792  19.373  0.00  0.00    +0.000 A 
ATOM     23  C   UNL     1       1.672   8.990  18.518  0.00  0.00    +0.000 A 
ENDBRANCH  15  17
ENDBRANCH  14  15
ENDBRANCH   1  14
TORSDOF 10
ENDMDL
MODEL 4
REMARK VINA RESULT:      -6.5      1.097      3.675
REMARK  Name = 
REMARK  12 active torsions:
REMARK  status: ('A' for Active; 'I' for Inactive)
REMARK    1  A    between atoms: C_1  and  C_2
REMARK    2  A    between atoms: C_2  and  C_3
REMARK    3  A    between atoms: C_3  and  C_4
REMARK    4  A    between atoms: C_4  and  N_5
REMARK    5  A    between atoms: N_5  and  C_6
REMARK    6  A    between atoms: C_6  and  C_7
REMARK    7  A    between atoms: C_7  and  C_8
REMARK    8  A    between atoms: C_8  and  C_9
REMARK    9  A    between atoms: C_10  and  C_12
REMARK   10  A    between atoms: C_12  and  C_14
REMARK   11  A    between atoms: C_14  and  C_15
REMARK   12  A    between atoms: C_15  and  C_17
REMARK                            x       y       z     vdW  Elec       q    Type
REMARK                         _______ _______ _______ _____ _____    ______ ____
ROOT
ATOM      1  C   UNL     1       4.381   4.094  18.796  0.00  0.00    +0.000 C 
ATOM      2  O   UNL     1       4.423   3.004  19.356  0.00  0.00    +0.000 OA
ENDROOT
BRANCH   1   4
ATOM      3  N   UNL     1       5.605   4.340  16.582  0.00  0.00    +0.000 N 
ATOM      4  C   UNL     1       4.383   4.188  17.271  0.00  0.00    +0.000 C 
ATOM      5  O   UNL     1       3.278   4.145  16.733  0.00  0.00    +0.000 OA
BRANCH   3   6
ATOM      6  C   UNL     1       5.514   4.583  15.133  0.00  0.00    +0.000 C 
BRANCH   6   7
ATOM      7  C   UNL     1       6.578   3.934  14.233  0.00  0.00    +0.000 C 
BRANCH   7   9
ATOM      8  C   UNL     1       5.671   2.967  12.066  0.00  0.00    +0.000 C 
ATOM      9  C   UNL     1       6.399   4.124  12.728  0.00  0.00    +0.000 C 
ENDBRANCH   7   9
ENDBRANCH   6   7
ENDBRANCH   3   6
BRANCH   3  10
ATOM     10  C   UNL     1       6.841   4.622  17.344  0.00  0.00    +0.000 C 
BRANCH  10  11
ATOM     11  C   UNL     1       7.560   5.942  17.068  0.00  0.00    +0.000 C 
BRANCH  11  12
ATOM     12  C   UNL     1       6.731   7.172  17.435  0.00  0.00    +0.000 C 
ATOM     13  C   UNL     1       7.628   8.403  17.462  0.00  0.00    +0.000 C 
ENDBRANCH  11  12
ENDBRANCH  10  11
ENDBRANCH   3  10
ENDBRANCH   1   4
BRANCH   1  14
ATOM     14  C   UNL     1       4.264   5.405  19.535  0.00  0.00    +0.000 C 
BRANCH  14  15
ATOM     15  C   UNL     1       2.854   5.710  19.965  0.00  0.00    +0.000 C 
ATOM     16  O   UNL     1       2.177   4.900  20.593  0.00  0.00    +0.000 OA
BRANCH  15  17
ATOM     17  C   UNL     1       2.250   7.037  19.633  0.00  0.00    +0.000 A 
ATOM     18  C   UNL     1       2.316   7.604  18.353  0.00  0.00    +0.000 A 
ATOM     19  C   UNL     1       1.737   8.859  18.113  0.00  0.00    +0.000 A 
ATOM     20  C   UNL     1       1.094   9.543  19.144  0.00  0.00    +0.000 A 
ATOM     21 BR   UNL     1       0.316  11.233  18.811  0.00  0.00    +0.000 Br
ATOM     22  C   UNL     1       1.024   8.990  20.420  0.00  0.00    +0.000 A 
ATOM     23  C   UNL     1       1.602   7.741  20.661  0.00  0.00    +0.000 A 
ENDBRANCH  15  17
ENDBRANCH  14  15
ENDBRANCH   1  14
TORSDOF 10
ENDMDL
MODEL 5
REMARK VINA RESULT:      -6.5      2.463      4.117
REMARK  Name = 
REMARK  12 active torsions:
REMARK  status: ('A' for Active; 'I' for Inactive)
REMARK    1  A    between atoms: C_1  and  C_2
REMARK    2  A    between atoms: C_2  and  C_3
REMARK    3  A    between atoms: C_3  and  C_4
REMARK    4  A    between atoms: C_4  and  N_5
REMARK    5  A    between atoms: N_5  and  C_6
REMARK    6  A    between atoms: C_6  and  C_7
REMARK    7  A    between atoms: C_7  and  C_8
REMARK    8  A    between atoms: C_8  and  C_9
REMARK    9  A    between atoms: C_10  and  C_12
REMARK   10  A    between atoms: C_12  and  C_14
REMARK   11  A    between atoms: C_14  and  C_15
REMARK   12  A    between atoms: C_15  and  C_17
REMARK                            x       y       z     vdW  Elec       q    Type
REMARK                         _______ _______ _______ _____ _____    ______ ____
ROOT
ATOM      1  C   UNL     1       3.636   6.611  17.883  0.00  0.00    +0.000 C 
ATOM      2  O   UNL     1       4.598   7.190  17.389  0.00  0.00    +0.000 OA
ENDROOT
BRANCH   1   4
ATOM      3  N   UNL     1       4.205   4.160  18.245  0.00  0.00    +0.000 N 
ATOM      4  C   UNL     1       3.839   5.405  18.800  0.00  0.00    +0.000 C 
ATOM      5  O   UNL     1       3.640   5.607  19.996  0.00  0.00    +0.000 OA
BRANCH   3   6
ATOM      6  C   UNL     1       4.226   3.013  19.168  0.00  0.00    +0.000 C 
BRANCH   6   7
ATOM      7  C   UNL     1       2.908   2.254  19.391  0.00  0.00    +0.000 C 
BRANCH   7   9
ATOM      8  C   UNL     1       0.896   3.479  20.340  0.00  0.00    +0.000 C 
ATOM      9  C   UNL     1       2.116   2.626  20.643  0.00  0.00    +0.000 C 
ENDBRANCH   7   9
ENDBRANCH   6   7
ENDBRANCH   3   6
BRANCH   3  10
ATOM     10  C   UNL     1       4.180   3.980  16.778  0.00  0.00    +0.000 C 
BRANCH  10  11
ATOM     11  C   UNL     1       5.517   3.978  16.039  0.00  0.00    +0.000 C 
BRANCH  11  12
ATOM     12  C   UNL     1       5.464   4.689  14.687  0.00  0.00    +0.000 C 
ATOM     13  C   UNL     1       6.186   3.852  13.640  0.00  0.00    +0.000 C 
ENDBRANCH  11  12
ENDBRANCH  10  11
ENDBRANCH   3  10
ENDBRANCH   1   4
BRANCH   1  14
ATOM     14  C   UNL     1       2.207   7.057  17.690  0.00  0.00    +0.000 C 
BRANCH  14  15
ATOM     15  C   UNL     1       2.009   8.523  17.970  0.00  0.00    +0.000 C 
ATOM     16  O   UNL     1       2.377   9.390  17.182  0.00  0.00    +0.000 OA
BRANCH  15  17
ATOM     17  C   UNL     1       1.339   8.949  19.236  0.00  0.00    +0.000 A 
ATOM     18  C   UNL     1       1.511   8.275  20.453  0.00  0.00    +0.000 A 
ATOM     19  C   UNL     1       0.843   8.723  21.602  0.00  0.00    +0.000 A 
ATOM     20  C   UNL     1       0.009   9.840  21.538  0.00  0.00    +0.000 A 
ATOM     21 BR   UNL     1      -0.886  10.436  23.092  0.00  0.00    +0.000 Br
ATOM     22  C   UNL     1      -0.170  10.516  20.334  0.00  0.00    +0.000 A 
ATOM     23  C   UNL     1       0.493  10.069  19.189  0.00  0.00    +0.000 A 
ENDBRANCH  15  17
ENDBRANCH  14  15
ENDBRANCH   1  14
TORSDOF 10
ENDMDL
MODEL 6
REMARK VINA RESULT:      -6.5      3.215      6.695
REMARK  Name = 
REMARK  12 active torsions:
REMARK  status: ('A' for Active; 'I' for Inactive)
REMARK    1  A    between atoms: C_1  and  C_2
REMARK    2  A    between atoms: C_2  and  C_3
REMARK    3  A    between atoms: C_3  and  C_4
REMARK    4  A    between atoms: C_4  and  N_5
REMARK    5  A    between atoms: N_5  and  C_6
REMARK    6  A    between atoms: C_6  and  C_7
REMARK    7  A    between atoms: C_7  and  C_8
REMARK    8  A    between atoms: C_8  and  C_9
REMARK    9  A    between atoms: C_10  and  C_12
REMARK   10  A    between atoms: C_12  and  C_14
REMARK   11  A    between atoms: C_14  and  C_15
REMARK   12  A    between atoms: C_15  and  C_17
REMARK                            x       y       z     vdW  Elec       q    Type
REMARK                         _______ _______ _______ _____ _____    ______ ____
ROOT
ATOM      1  C   UNL     1       6.214   4.962  18.863  0.00  0.00    +0.000 C 
ATOM      2  O   UNL     1       6.307   5.944  19.591  0.00  0.00    +0.000 OA
ENDROOT
BRANCH   1   4
ATOM      3  N   UNL     1       3.800   4.476  18.233  0.00  0.00    +0.000 N 
ATOM      4  C   UNL     1       4.972   4.072  18.908  0.00  0.00    +0.000 C 
ATOM      5  O   UNL     1       5.078   3.042  19.571  0.00  0.00    +0.000 OA
BRANCH   3   6
ATOM      6  C   UNL     1       2.601   3.650  18.453  0.00  0.00    +0.000 C 
BRANCH   6   7
ATOM      7  C   UNL     1       1.572   4.147  19.482  0.00  0.00    +0.000 C 
BRANCH   7   9
ATOM      8  C   UNL     1       1.455   2.703  21.569  0.00  0.00    +0.000 C 
ATOM      9  C   UNL     1       1.959   3.997  20.952  0.00  0.00    +0.000 C 
ENDBRANCH   7   9
ENDBRANCH   6   7
ENDBRANCH   3   6
BRANCH   3  10
ATOM     10  C   UNL     1       3.714   5.842  17.674  0.00  0.00    +0.000 C 
BRANCH  10  11
ATOM     11  C   UNL     1       2.930   6.887  18.469  0.00  0.00    +0.000 C 
BRANCH  11  12
ATOM     12  C   UNL     1       2.923   8.267  17.813  0.00  0.00    +0.000 C 
ATOM     13  C   UNL     1       1.541   8.892  17.951  0.00  0.00    +0.000 C 
ENDBRANCH  11  12
ENDBRANCH  10  11
ENDBRANCH   3  10
ENDBRANCH   1   4
BRANCH   1  14
ATOM     14  C   UNL     1       7.256   4.584  17.839  0.00  0.00    +0.000 C 
BRANCH  14  15
ATOM     15  C   UNL     1       7.166   5.406  16.582  0.00  0.00    +0.000 C 
ATOM     16  O   UNL     1       7.522   6.582  16.547  0.00  0.00    +0.000 OA
BRANCH  15  17
ATOM     17  C   UNL     1       6.638   4.785  15.328  0.00  0.00    +0.000 A 
ATOM     18  C   UNL     1       5.435   4.068  15.282  0.00  0.00    +0.000 A 
ATOM     19  C   UNL     1       5.003   3.501  14.074  0.00  0.00    +0.000 A 
ATOM     20  C   UNL     1       5.767   3.653  12.917  0.00  0.00    +0.000 A 
ATOM     21 BR   UNL     1       5.177   2.887  11.292  0.00  0.00    +0.000 Br
ATOM     22  C   UNL     1       6.964   4.363  12.951  0.00  0.00    +0.000 A 
ATOM     23  C   UNL     1       7.396   4.925  14.154  0.00  0.00    +0.000 A 
ENDBRANCH  15  17
ENDBRANCH  14  15
ENDBRANCH   1  14
TORSDOF 10
ENDMDL
MODEL 7
REMARK VINA RESULT:      -6.5      2.335      4.042
REMARK  Name = 
REMARK  12 active torsions:
REMARK  status: ('A' for Active; 'I' for Inactive)
REMARK    1  A    between atoms: C_1  and  C_2
REMARK    2  A    between atoms: C_2  and  C_3
REMARK    3  A    between atoms: C_3  and  C_4
REMARK    4  A    between atoms: C_4  and  N_5
REMARK    5  A    between atoms: N_5  and  C_6
REMARK    6  A    between atoms: C_6  and  C_7
REMARK    7  A    between atoms: C_7  and  C_8
REMARK    8  A    between atoms: C_8  and  C_9
REMARK    9  A    between atoms: C_10  and  C_12
REMARK   10  A    between atoms: C_12  and  C_14
REMARK   11  A    between atoms: C_14  and  C_15
REMARK   12  A    between atoms: C_15  and  C_17
REMARK                            x       y       z     vdW  Elec       q    Type
REMARK                         _______ _______ _______ _____ _____    ______ ____
ROOT
ATOM      1  C   UNL     1       3.882   5.856  18.502  0.00  0.00    +0.000 C 
ATOM      2  O   UNL     1       4.304   5.710  19.643  0.00  0.00    +0.000 OA
ENDROOT
BRANCH   1   4
ATOM      3  N   UNL     1       4.786   4.192  16.807  0.00  0.00    +0.000 N 
ATOM      4  C   UNL     1       4.757   5.515  17.296  0.00  0.00    +0.000 C 
ATOM      5  O   UNL     1       5.413   6.446  16.834  0.00  0.00    +0.000 OA
BRANCH   3   6
ATOM      6  C   UNL     1       5.769   3.906  15.749  0.00  0.00    +0.000 C 
BRANCH   6   7
ATOM      7  C   UNL     1       5.532   4.539  14.368  0.00  0.00    +0.000 C 
BRANCH   7   9
ATOM      8  C   UNL     1       6.642   3.638  12.268  0.00  0.00    +0.000 C 
ATOM      9  C   UNL     1       5.436   3.572  13.188  0.00  0.00    +0.000 C 
ENDBRANCH   7   9
ENDBRANCH   6   7
ENDBRANCH   3   6
BRANCH   3  10
ATOM     10  C   UNL     1       4.146   3.111  17.588  0.00  0.00    +0.000 C 
BRANCH  10  11
ATOM     11  C   UNL     1       2.678   2.798  17.297  0.00  0.00    +0.000 C 
BRANCH  11  12
ATOM     12  C   UNL     1       1.971   2.084  18.449  0.00  0.00    +0.000 C 
ATOM     13  C   UNL     1       0.954   3.023  19.084  0.00  0.00    +0.000 C 
ENDBRANCH  11  12
ENDBRANCH  10  11
ENDBRANCH   3  10
ENDBRANCH   1   4
BRANCH   1  14
ATOM     14  C   UNL     1       2.478   6.314  18.187  0.00  0.00    +0.000 C 
BRANCH  14  15
ATOM     15  C   UNL     1       2.335   7.813  18.199  0.00  0.00    +0.000 C 
ATOM     16  O   UNL     1       2.782   8.515  17.295  0.00  0.00    +0.000 OA
BRANCH  15  17
ATOM     17  C   UNL     1       1.623   8.478  19.333  0.00  0.00    +0.000 A 
ATOM     18  C   UNL     1       1.580   7.939  20.626  0.00  0.00    +0.000 A 
ATOM     19  C   UNL     1       0.883   8.611  21.641  0.00  0.00    +0.000 A 
ATOM     20  C   UNL     1       0.237   9.816  21.368  0.00  0.00    +0.000 A 
ATOM     21 BR   UNL     1      -0.698  10.716  22.743  0.00  0.00    +0.000 Br
ATOM     22  C   UNL     1       0.272  10.360  20.087  0.00  0.00    +0.000 A 
ATOM     23  C   UNL     1       0.963   9.691  19.075  0.00  0.00    +0.000 A 
ENDBRANCH  15  17
ENDBRANCH  14  15
ENDBRANCH   1  14
TORSDOF 10
ENDMDL
MODEL 8
REMARK VINA RESULT:      -6.4      2.314      4.351
REMARK  Name = 
REMARK  12 active torsions:
REMARK  status: ('A' for Active; 'I' for Inactive)
REMARK    1  A    between atoms: C_1  and  C_2
REMARK    2  A    between atoms: C_2  and  C_3
REMARK    3  A    between atoms: C_3  and  C_4
REMARK    4  A    between atoms: C_4  and  N_5
REMARK    5  A    between atoms: N_5  and  C_6
REMARK    6  A    between atoms: C_6  and  C_7
REMARK    7  A    between atoms: C_7  and  C_8
REMARK    8  A    between atoms: C_8  and  C_9
REMARK    9  A    between atoms: C_10  and  C_12
REMARK   10  A    between atoms: C_12  and  C_14
REMARK   11  A    between atoms: C_14  and  C_15
REMARK   12  A    between atoms: C_15  and  C_17
REMARK                            x       y       z     vdW  Elec       q    Type
REMARK                         _______ _______ _______ _____ _____    ______ ____
ROOT
ATOM      1  C   UNL     1       3.658   6.594  18.016  0.00  0.00    +0.000 C 
ATOM      2  O   UNL     1       4.640   7.222  17.638  0.00  0.00    +0.000 OA
ENDROOT
BRANCH   1   4
ATOM      3  N   UNL     1       4.219   4.120  18.181  0.00  0.00    +0.000 N 
ATOM      4  C   UNL     1       3.818   5.309  18.828  0.00  0.00    +0.000 C 
ATOM      5  O   UNL     1       3.557   5.399  20.026  0.00  0.00    +0.000 OA
BRANCH   3   6
ATOM      6  C   UNL     1       4.198   2.893  18.995  0.00  0.00    +0.000 C 
BRANCH   6   7
ATOM      7  C   UNL     1       3.206   1.789  18.594  0.00  0.00    +0.000 C 
BRANCH   7   9
ATOM      8  C   UNL     1       1.403   2.659  20.158  0.00  0.00    +0.000 C 
ATOM      9  C   UNL     1       1.724   2.113  18.778  0.00  0.00    +0.000 C 
ENDBRANCH   7   9
ENDBRANCH   6   7
ENDBRANCH   3   6
BRANCH   3  10
ATOM     10  C   UNL     1       4.270   4.075  16.704  0.00  0.00    +0.000 C 
BRANCH  10  11
ATOM     11  C   UNL     1       5.617   3.773  16.048  0.00  0.00    +0.000 C 
BRANCH  11  12
ATOM     12  C   UNL     1       6.635   4.902  16.207  0.00  0.00    +0.000 C 
ATOM     13  C   UNL     1       7.590   4.572  17.347  0.00  0.00    +0.000 C 
ENDBRANCH  11  12
ENDBRANCH  10  11
ENDBRANCH   3  10
ENDBRANCH   1   4
BRANCH   1  14
ATOM     14  C   UNL     1       2.238   7.048  17.778  0.00  0.00    +0.000 C 
BRANCH  14  15
ATOM     15  C   UNL     1       2.052   8.525  17.996  0.00  0.00    +0.000 C 
ATOM     16  O   UNL     1       2.479   9.358  17.200  0.00  0.00    +0.000 OA
BRANCH  15  17
ATOM     17  C   UNL     1       1.321   9.007  19.208  0.00  0.00    +0.000 A 
ATOM     18  C   UNL     1       0.464  10.117  19.189  0.00  0.00    +0.000 A 
ATOM     19  C   UNL     1      -0.183  10.522  20.365  0.00  0.00    +0.000 A 
ATOM     20  C   UNL     1       0.021   9.822  21.554  0.00  0.00    +0.000 A 
ATOM     21 BR   UNL     1      -0.856  10.375  23.134  0.00  0.00    +0.000 Br
ATOM     22  C   UNL     1       0.871   8.720  21.585  0.00  0.00    +0.000 A 
ATOM     23  C   UNL     1       1.518   8.317  20.415  0.00  0.00    +0.000 A 
ENDBRANCH  15  17
ENDBRANCH  14  15
ENDBRANCH   1  14
TORSDOF 10
ENDMDL
MODEL 9
REMARK VINA RESULT:      -6.4      2.806      6.071
REMARK  Name = 
REMARK  12 active torsions:
REMARK  status: ('A' for Active; 'I' for Inactive)
REMARK    1  A    between atoms: C_1  and  C_2
REMARK    2  A    between atoms: C_2  and  C_3
REMARK    3  A    between atoms: C_3  and  C_4
REMARK    4  A    between atoms: C_4  and  N_5
REMARK    5  A    between atoms: N_5  and  C_6
REMARK    6  A    between atoms: C_6  and  C_7
REMARK    7  A    between atoms: C_7  and  C_8
REMARK    8  A    between atoms: C_8  and  C_9
REMARK    9  A    between atoms: C_10  and  C_12
REMARK   10  A    between atoms: C_12  and  C_14
REMARK   11  A    between atoms: C_14  and  C_15
REMARK   12  A    between atoms: C_15  and  C_17
REMARK                            x       y       z     vdW  Elec       q    Type
REMARK                         _______ _______ _______ _____ _____    ______ ____
ROOT
ATOM      1  C   UNL     1       7.085   5.725  18.506  0.00  0.00    +0.000 C 
ATOM      2  O   UNL     1       6.223   5.534  19.356  0.00  0.00    +0.000 OA
ENDROOT
BRANCH   1   4
ATOM      3  N   UNL     1       5.970   4.876  16.386  0.00  0.00    +0.000 N 
ATOM      4  C   UNL     1       7.109   4.901  17.220  0.00  0.00    +0.000 C 
ATOM      5  O   UNL     1       8.147   4.279  17.004  0.00  0.00    +0.000 OA
BRANCH   3   6
ATOM      6  C   UNL     1       6.010   3.939  15.251  0.00  0.00    +0.000 C 
BRANCH   6   7
ATOM      7  C   UNL     1       6.642   4.433  13.940  0.00  0.00    +0.000 C 
BRANCH   7   9
ATOM      8  C   UNL     1       4.894   3.477  12.364  0.00  0.00    +0.000 C 
ATOM      9  C   UNL     1       6.372   3.586  12.698  0.00  0.00    +0.000 C 
ENDBRANCH   7   9
ENDBRANCH   6   7
ENDBRANCH   3   6
BRANCH   3  10
ATOM     10  C   UNL     1       4.701   5.465  16.867  0.00  0.00    +0.000 C 
BRANCH  10  11
ATOM     11  C   UNL     1       3.621   4.510  17.373  0.00  0.00    +0.000 C 
BRANCH  11  12
ATOM     12  C   UNL     1       2.407   5.227  17.963  0.00  0.00    +0.000 C 
ATOM     13  C   UNL     1       2.872   6.356  18.873  0.00  0.00    +0.000 C 
ENDBRANCH  11  12
ENDBRANCH  10  11
ENDBRANCH   3  10
ENDBRANCH   1   4
BRANCH   1  14
ATOM     14  C   UNL     1       8.137   6.802  18.617  0.00  0.00    +0.000 C 
BRANCH  14  15
ATOM     15  C   UNL     1       7.800   8.033  17.820  0.00  0.00    +0.000 C 
ATOM     16  O   UNL     1       7.057   7.991  16.842  0.00  0.00    +0.000 OA
BRANCH  15  17
ATOM     17  C   UNL     1       8.370   9.355  18.225  0.00  0.00    +0.000 A 
ATOM     18  C   UNL     1       8.221  10.516  17.454  0.00  0.00    +0.000 A 
ATOM     19  C   UNL     1       8.792  11.722  17.888  0.00  0.00    +0.000 A 
ATOM     20  C   UNL     1       9.503  11.769  19.086  0.00  0.00    +0.000 A 
ATOM     21 BR   UNL     1      10.267  13.399  19.663  0.00  0.00    +0.000 Br
ATOM     22  C   UNL     1       9.658  10.622  19.859  0.00  0.00    +0.000 A 
ATOM     23  C   UNL     1       9.093   9.420  19.427  0.00  0.00    +0.000 A 
ENDBRANCH  15  17
ENDBRANCH  14  15
ENDBRANCH   1  14
TORSDOF 10
ENDMDL
