MODEL 1
REMARK VINA RESULT:      -9.0      0.000      0.000
REMARK  Name = 
REMARK  5 active torsions:
REMARK  status: ('A' for Active; 'I' for Inactive)
REMARK    1  A    between atoms: C_1  and  N_2
REMARK    2  A    between atoms: C_4  and  C_5
REMARK    3  A    between atoms: N_7  and  C_8
REMARK    4  A    between atoms: C_8  and  C_9
REMARK    5  A    between atoms: C_22  and  N_23
REMARK                            x       y       z     vdW  Elec       q    Type
REMARK                         _______ _______ _______ _____ _____    ______ ____
ROOT
ATOM      1  C   UNL     1      -0.893  12.668  18.437  0.00  0.00    +0.000 C 
ATOM      2  N   UNL     1      -0.365  11.520  19.181  0.00  0.00    +0.000 N 
ATOM      3  C   UNL     1       0.496  10.598  18.597  0.00  0.00    +0.000 A 
ATOM      4  C   UNL     1       1.054   9.536  19.196  0.00  0.00    +0.000 A 
ATOM      5  C   UNL     1       0.707   9.319  20.622  0.00  0.00    +0.000 A 
ATOM      6  O   UNL     1       1.162   8.355  21.234  0.00  0.00    +0.000 OA
ATOM      7  C   UNL     1      -0.202  10.286  21.276  0.00  0.00    +0.000 A 
ATOM      8  C   UNL     1      -0.534  10.120  22.617  0.00  0.00    +0.000 A 
ATOM      9  F   UNL     1      -0.053   9.101  23.343  0.00  0.00    +0.000 F 
ATOM     10  C   UNL     1      -1.370  11.025  23.264  0.00  0.00    +0.000 A 
ATOM     11  C   UNL     1      -1.895  12.130  22.594  0.00  0.00    +0.000 A 
ATOM     12  C   UNL     1      -1.561  12.266  21.230  0.00  0.00    +0.000 A 
ATOM     13  C   UNL     1      -0.715  11.370  20.543  0.00  0.00    +0.000 A 
ENDROOT
BRANCH  11  14
ATOM     14  N   UNL     1      -2.666  13.061  23.254  0.00  0.00    +0.000 N 
ATOM     15  C   UNL     1      -3.910  12.709  23.954  0.00  0.00    +0.000 C 
ATOM     16  C   UNL     1      -5.007  13.711  23.559  0.00  0.00    +0.000 C 
ATOM     17  O   UNL     1      -4.610  15.065  23.836  0.00  0.00    +0.000 OA
ATOM     18  C   UNL     1      -3.426  15.399  23.091  0.00  0.00    +0.000 C 
ATOM     19  C   UNL     1      -2.256  14.465  23.436  0.00  0.00    +0.000 C 
ENDBRANCH  11  14
BRANCH   4  20
ATOM     20  C   UNL     1       1.971   8.643  18.418  0.00  0.00    +0.000 C 
ATOM     21  O   UNL     1       2.330   8.927  17.279  0.00  0.00    +0.000 OA
ATOM     22  N   UNL     1       2.360   7.502  19.072  0.00  0.00    +0.000 N 
ATOM     23  H   UNL     1       1.983   7.335  20.003  0.00  0.00    +0.000 HD
BRANCH  22  24
ATOM     24  C   UNL     1       3.201   6.484  18.490  0.00  0.00    +0.000 C 
BRANCH  24  25
ATOM     25  C   UNL     1       2.569   5.111  18.556  0.00  0.00    +0.000 A 
ATOM     26  C   UNL     1       2.811   4.150  17.559  0.00  0.00    +0.000 A 
ATOM     27  C   UNL     1       2.263   2.870  17.659  0.00  0.00    +0.000 A 
ATOM     28  C   UNL     1       1.468   2.546  18.752  0.00  0.00    +0.000 A 
ATOM     29  F   UNL     1       0.949   1.315  18.852  0.00  0.00    +0.000 F 
ATOM     30  C   UNL     1       1.211   3.481  19.747  0.00  0.00    +0.000 A 
ATOM     31  C   UNL     1       1.761   4.761  19.649  0.00  0.00    +0.000 A 
ENDBRANCH  24  25
ENDBRANCH  22  24
ENDBRANCH   4  20
TORSDOF 4
ENDMDL
MODEL 2
REMARK VINA RESULT:      -8.8      0.854      1.446
REMARK  Name = 
REMARK  5 active torsions:
REMARK  status: ('A' for Active; 'I' for Inactive)
REMARK    1  A    between atoms: C_1  and  N_2
REMARK    2  A    between atoms: C_4  and  C_5
REMARK    3  A    between atoms: N_7  and  C_8
REMARK    4  A    between atoms: C_8  and  C_9
REMARK    5  A    between atoms: C_22  and  N_23
REMARK                            x       y       z     vdW  Elec       q    Type
REMARK                         _______ _______ _______ _____ _____    ______ ____
ROOT
ATOM      1  C   UNL     1      -1.409  12.029  17.980  0.00  0.00    +0.000 C 
ATOM      2  N   UNL     1      -0.783  11.201  19.016  0.00  0.00    +0.000 N 
ATOM      3  C   UNL     1       0.171  10.238  18.711  0.00  0.00    +0.000 A 
ATOM      4  C   UNL     1       0.821   9.452  19.582  0.00  0.00    +0.000 A 
ATOM      5  C   UNL     1       0.476   9.623  21.015  0.00  0.00    +0.000 A 
ATOM      6  O   UNL     1       1.013   8.926  21.873  0.00  0.00    +0.000 OA
ATOM      7  C   UNL     1      -0.532  10.645  21.376  0.00  0.00    +0.000 A 
ATOM      8  C   UNL     1      -0.865  10.843  22.712  0.00  0.00    +0.000 A 
ATOM      9  F   UNL     1      -0.298  10.127  23.694  0.00  0.00    +0.000 F 
ATOM     10  C   UNL     1      -1.793  11.811  23.082  0.00  0.00    +0.000 A 
ATOM     11  C   UNL     1      -2.413  12.619  22.130  0.00  0.00    +0.000 A 
ATOM     12  C   UNL     1      -2.075  12.388  20.780  0.00  0.00    +0.000 A 
ATOM     13  C   UNL     1      -1.136  11.417  20.369  0.00  0.00    +0.000 A 
ENDROOT
BRANCH  11  14
ATOM     14  N   UNL     1      -3.279  13.622  22.504  0.00  0.00    +0.000 N 
ATOM     15  C   UNL     1      -2.845  14.800  23.271  0.00  0.00    +0.000 C 
ATOM     16  C   UNL     1      -3.829  15.032  24.430  0.00  0.00    +0.000 C 
ATOM     17  O   UNL     1      -5.178  15.178  23.956  0.00  0.00    +0.000 OA
ATOM     18  C   UNL     1      -5.594  13.988  23.263  0.00  0.00    +0.000 C 
ATOM     19  C   UNL     1      -4.684  13.682  22.063  0.00  0.00    +0.000 C 
ENDBRANCH  11  14
BRANCH   4  20
ATOM     20  C   UNL     1       1.830   8.466  19.082  0.00  0.00    +0.000 C 
ATOM     21  O   UNL     1       2.306   8.551  17.953  0.00  0.00    +0.000 OA
ATOM     22  N   UNL     1       2.163   7.476  19.971  0.00  0.00    +0.000 N 
ATOM     23  H   UNL     1       1.689   7.468  20.873  0.00  0.00    +0.000 HD
BRANCH  22  24
ATOM     24  C   UNL     1       3.078   6.399  19.678  0.00  0.00    +0.000 C 
BRANCH  24  25
ATOM     25  C   UNL     1       2.360   5.101  19.385  0.00  0.00    +0.000 A 
ATOM     26  C   UNL     1       1.687   4.397  20.399  0.00  0.00    +0.000 A 
ATOM     27  C   UNL     1       0.985   3.227  20.104  0.00  0.00    +0.000 A 
ATOM     28  C   UNL     1       0.955   2.753  18.798  0.00  0.00    +0.000 A 
ATOM     29  F   UNL     1       0.274   1.635  18.514  0.00  0.00    +0.000 F 
ATOM     30  C   UNL     1       1.616   3.429  17.781  0.00  0.00    +0.000 A 
ATOM     31  C   UNL     1       2.317   4.601  18.073  0.00  0.00    +0.000 A 
ENDBRANCH  24  25
ENDBRANCH  22  24
ENDBRANCH   4  20
TORSDOF 4
ENDMDL
MODEL 3
REMARK VINA RESULT:      -8.7      0.882      1.150
REMARK  Name = 
REMARK  5 active torsions:
REMARK  status: ('A' for Active; 'I' for Inactive)
REMARK    1  A    between atoms: C_1  and  N_2
REMARK    2  A    between atoms: C_4  and  C_5
REMARK    3  A    between atoms: N_7  and  C_8
REMARK    4  A    between atoms: C_8  and  C_9
REMARK    5  A    between atoms: C_22  and  N_23
REMARK                            x       y       z     vdW  Elec       q    Type
REMARK                         _______ _______ _______ _____ _____    ______ ____
ROOT
ATOM      1  C   UNL     1       0.118  13.375  18.609  0.00  0.00    +0.000 C 
ATOM      2  N   UNL     1       0.211  12.096  19.319  0.00  0.00    +0.000 N 
ATOM      3  C   UNL     1       0.891  11.007  18.788  0.00  0.00    +0.000 A 
ATOM      4  C   UNL     1       1.057   9.808  19.366  0.00  0.00    +0.000 A 
ATOM      5  C   UNL     1       0.444   9.627  20.705  0.00  0.00    +0.000 A 
ATOM      6  O   UNL     1       0.535   8.550  21.291  0.00  0.00    +0.000 OA
ATOM      7  C   UNL     1      -0.282  10.769  21.304  0.00  0.00    +0.000 A 
ATOM      8  C   UNL     1      -0.854  10.637  22.566  0.00  0.00    +0.000 A 
ATOM      9  F   UNL     1      -0.770   9.495  23.262  0.00  0.00    +0.000 F 
ATOM     10  C   UNL     1      -1.523  11.701  23.162  0.00  0.00    +0.000 A 
ATOM     11  C   UNL     1      -1.636  12.935  22.521  0.00  0.00    +0.000 A 
ATOM     12  C   UNL     1      -1.066  13.039  21.235  0.00  0.00    +0.000 A 
ATOM     13  C   UNL     1      -0.378  11.983  20.601  0.00  0.00    +0.000 A 
ENDROOT
BRANCH  11  14
ATOM     14  N   UNL     1      -2.238  14.006  23.142  0.00  0.00    +0.000 N 
ATOM     15  C   UNL     1      -1.590  14.764  24.223  0.00  0.00    +0.000 C 
ATOM     16  C   UNL     1      -2.593  14.950  25.374  0.00  0.00    +0.000 C 
ATOM     17  O   UNL     1      -3.797  15.594  24.926  0.00  0.00    +0.000 OA
ATOM     18  C   UNL     1      -4.439  14.800  23.913  0.00  0.00    +0.000 C 
ATOM     19  C   UNL     1      -3.522  14.578  22.700  0.00  0.00    +0.000 C 
ENDBRANCH  11  14
BRANCH   4  20
ATOM     20  C   UNL     1       1.828   8.741  18.653  0.00  0.00    +0.000 C 
ATOM     21  O   UNL     1       1.890   8.704  17.427  0.00  0.00    +0.000 OA
ATOM     22  N   UNL     1       2.437   7.823  19.470  0.00  0.00    +0.000 N 
ATOM     23  H   UNL     1       2.299   7.915  20.475  0.00  0.00    +0.000 HD
BRANCH  22  24
ATOM     24  C   UNL     1       3.188   6.688  18.991  0.00  0.00    +0.000 C 
BRANCH  24  25
ATOM     25  C   UNL     1       2.357   5.425  18.952  0.00  0.00    +0.000 A 
ATOM     26  C   UNL     1       2.254   4.658  17.778  0.00  0.00    +0.000 A 
ATOM     27  C   UNL     1       1.525   3.467  17.770  0.00  0.00    +0.000 A 
ATOM     28  C   UNL     1       0.895   3.039  18.933  0.00  0.00    +0.000 A 
ATOM     29  F   UNL     1       0.203   1.892  18.927  0.00  0.00    +0.000 F 
ATOM     30  C   UNL     1       0.980   3.782  20.103  0.00  0.00    +0.000 A 
ATOM     31  C   UNL     1       1.710   4.973  20.113  0.00  0.00    +0.000 A 
ENDBRANCH  24  25
ENDBRANCH  22  24
ENDBRANCH   4  20
TORSDOF 4
ENDMDL
MODEL 4
REMARK VINA RESULT:      -8.6      0.760      1.235
REMARK  Name = 
REMARK  5 active torsions:
REMARK  status: ('A' for Active; 'I' for Inactive)
REMARK    1  A    between atoms: C_1  and  N_2
REMARK    2  A    between atoms: C_4  and  C_5
REMARK    3  A    between atoms: N_7  and  C_8
REMARK    4  A    between atoms: C_8  and  C_9
REMARK    5  A    between atoms: C_22  and  N_23
REMARK                            x       y       z     vdW  Elec       q    Type
REMARK                         _______ _______ _______ _____ _____    ______ ____
ROOT
ATOM      1  C   UNL     1      -1.613  12.240  18.044  0.00  0.00    +0.000 C 
ATOM      2  N   UNL     1      -0.841  11.350  18.916  0.00  0.00    +0.000 N 
ATOM      3  C   UNL     1       0.133  10.493  18.417  0.00  0.00    +0.000 A 
ATOM      4  C   UNL     1       0.910   9.664  19.129  0.00  0.00    +0.000 A 
ATOM      5  C   UNL     1       0.699   9.655  20.598  0.00  0.00    +0.000 A 
ATOM      6  O   UNL     1       1.357   8.906  21.317  0.00  0.00    +0.000 OA
ATOM      7  C   UNL     1      -0.326  10.560  21.164  0.00  0.00    +0.000 A 
ATOM      8  C   UNL     1      -0.536  10.588  22.539  0.00  0.00    +0.000 A 
ATOM      9  F   UNL     1       0.165   9.810  23.376  0.00  0.00    +0.000 F 
ATOM     10  C   UNL     1      -1.478  11.444  23.101  0.00  0.00    +0.000 A 
ATOM     11  C   UNL     1      -2.235  12.306  22.308  0.00  0.00    +0.000 A 
ATOM     12  C   UNL     1      -2.018  12.247  20.916  0.00  0.00    +0.000 A 
ATOM     13  C   UNL     1      -1.070  11.393  20.312  0.00  0.00    +0.000 A 
ENDROOT
BRANCH  11  14
ATOM     14  N   UNL     1      -3.116  13.201  22.873  0.00  0.00    +0.000 N 
ATOM     15  C   UNL     1      -3.905  14.150  22.072  0.00  0.00    +0.000 C 
ATOM     16  C   UNL     1      -3.802  15.547  22.708  0.00  0.00    +0.000 C 
ATOM     17  O   UNL     1      -4.226  15.534  24.082  0.00  0.00    +0.000 OA
ATOM     18  C   UNL     1      -3.399  14.643  24.850  0.00  0.00    +0.000 C 
ATOM     19  C   UNL     1      -3.454  13.206  24.307  0.00  0.00    +0.000 C 
ENDBRANCH  11  14
BRANCH   4  20
ATOM     20  C   UNL     1       1.920   8.810  18.428  0.00  0.00    +0.000 C 
ATOM     21  O   UNL     1       2.451   9.170  17.381  0.00  0.00    +0.000 OA
ATOM     22  N   UNL     1       2.189   7.612  19.040  0.00  0.00    +0.000 N 
ATOM     23  H   UNL     1       1.673   7.384  19.889  0.00  0.00    +0.000 HD
BRANCH  22  24
ATOM     24  C   UNL     1       3.093   6.619  18.511  0.00  0.00    +0.000 C 
BRANCH  24  25
ATOM     25  C   UNL     1       2.643   5.209  18.823  0.00  0.00    +0.000 A 
ATOM     26  C   UNL     1       2.759   4.679  20.120  0.00  0.00    +0.000 A 
ATOM     27  C   UNL     1       2.293   3.394  20.406  0.00  0.00    +0.000 A 
ATOM     28  C   UNL     1       1.712   2.634  19.398  0.00  0.00    +0.000 A 
ATOM     29  F   UNL     1       1.257   1.405  19.675  0.00  0.00    +0.000 F 
ATOM     30  C   UNL     1       1.591   3.135  18.109  0.00  0.00    +0.000 A 
ATOM     31  C   UNL     1       2.055   4.420  17.821  0.00  0.00    +0.000 A 
ENDBRANCH  24  25
ENDBRANCH  22  24
ENDBRANCH   4  20
TORSDOF 4
ENDMDL
MODEL 5
REMARK VINA RESULT:      -8.5      1.694      2.210
REMARK  Name = 
REMARK  5 active torsions:
REMARK  status: ('A' for Active; 'I' for Inactive)
REMARK    1  A    between atoms: C_1  and  N_2
REMARK    2  A    between atoms: C_4  and  C_5
REMARK    3  A    between atoms: N_7  and  C_8
REMARK    4  A    between atoms: C_8  and  C_9
REMARK    5  A    between atoms: C_22  and  N_23
REMARK                            x       y       z     vdW  Elec       q    Type
REMARK                         _______ _______ _______ _____ _____    ______ ____
ROOT
ATOM      1  C   UNL     1      -2.640  11.171  17.008  0.00  0.00    +0.000 C 
ATOM      2  N   UNL     1      -1.697  10.924  18.104  0.00  0.00    +0.000 N 
ATOM      3  C   UNL     1      -0.564  10.137  17.937  0.00  0.00    +0.000 A 
ATOM      4  C   UNL     1       0.369   9.874  18.863  0.00  0.00    +0.000 A 
ATOM      5  C   UNL     1       0.166  10.479  20.202  0.00  0.00    +0.000 A 
ATOM      6  O   UNL     1       0.967  10.269  21.110  0.00  0.00    +0.000 OA
ATOM      7  C   UNL     1      -1.027  11.330  20.412  0.00  0.00    +0.000 A 
ATOM      8  C   UNL     1      -1.239  11.926  21.651  0.00  0.00    +0.000 A 
ATOM      9  F   UNL     1      -0.389  11.751  22.673  0.00  0.00    +0.000 F 
ATOM     10  C   UNL     1      -2.340  12.748  21.870  0.00  0.00    +0.000 A 
ATOM     11  C   UNL     1      -3.261  13.008  20.857  0.00  0.00    +0.000 A 
ATOM     12  C   UNL     1      -3.037  12.377  19.615  0.00  0.00    +0.000 A 
ATOM     13  C   UNL     1      -1.931  11.540  19.356  0.00  0.00    +0.000 A 
ENDROOT
BRANCH  11  14
ATOM     14  N   UNL     1      -4.311  13.876  21.056  0.00  0.00    +0.000 N 
ATOM     15  C   UNL     1      -4.307  14.898  22.113  0.00  0.00    +0.000 C 
ATOM     16  C   UNL     1      -5.650  14.851  22.861  0.00  0.00    +0.000 C 
ATOM     17  O   UNL     1      -6.759  15.024  21.963  0.00  0.00    +0.000 OA
ATOM     18  C   UNL     1      -6.772  13.976  20.978  0.00  0.00    +0.000 C 
ATOM     19  C   UNL     1      -5.475  13.956  20.154  0.00  0.00    +0.000 C 
ENDBRANCH  11  14
BRANCH   4  20
ATOM     20  C   UNL     1       1.537   9.005  18.512  0.00  0.00    +0.000 C 
ATOM     21  O   UNL     1       2.208   9.207  17.504  0.00  0.00    +0.000 OA
ATOM     22  N   UNL     1       1.782   7.981  19.391  0.00  0.00    +0.000 N 
ATOM     23  H   UNL     1       1.149   7.872  20.183  0.00  0.00    +0.000 HD
BRANCH  22  24
ATOM     24  C   UNL     1       2.826   7.000  19.219  0.00  0.00    +0.000 C 
BRANCH  24  25
ATOM     25  C   UNL     1       2.280   5.594  19.117  0.00  0.00    +0.000 A 
ATOM     26  C   UNL     1       1.674   4.966  20.220  0.00  0.00    +0.000 A 
ATOM     27  C   UNL     1       1.128   3.687  20.096  0.00  0.00    +0.000 A 
ATOM     28  C   UNL     1       1.188   3.029  18.874  0.00  0.00    +0.000 A 
ATOM     29  F   UNL     1       0.656   1.804  18.754  0.00  0.00    +0.000 F 
ATOM     30  C   UNL     1       1.785   3.626  17.772  0.00  0.00    +0.000 A 
ATOM     31  C   UNL     1       2.330   4.907  17.893  0.00  0.00    +0.000 A 
ENDBRANCH  24  25
ENDBRANCH  22  24
ENDBRANCH   4  20
TORSDOF 4
ENDMDL
MODEL 6
REMARK VINA RESULT:      -8.4      1.255      1.841
REMARK  Name = 
REMARK  5 active torsions:
REMARK  status: ('A' for Active; 'I' for Inactive)
REMARK    1  A    between atoms: C_1  and  N_2
REMARK    2  A    between atoms: C_4  and  C_5
REMARK    3  A    between atoms: N_7  and  C_8
REMARK    4  A    between atoms: C_8  and  C_9
REMARK    5  A    between atoms: C_22  and  N_23
REMARK                            x       y       z     vdW  Elec       q    Type
REMARK                         _______ _______ _______ _____ _____    ______ ____
ROOT
ATOM      1  C   UNL     1       0.710  13.801  18.918  0.00  0.00    +0.000 C 
ATOM      2  N   UNL     1       0.610  12.440  19.454  0.00  0.00    +0.000 N 
ATOM      3  C   UNL     1       1.170  11.349  18.801  0.00  0.00    +0.000 A 
ATOM      4  C   UNL     1       1.158  10.075  19.219  0.00  0.00    +0.000 A 
ATOM      5  C   UNL     1       0.470   9.804  20.505  0.00  0.00    +0.000 A 
ATOM      6  O   UNL     1       0.399   8.659  20.945  0.00  0.00    +0.000 OA
ATOM      7  C   UNL     1      -0.131  10.945  21.231  0.00  0.00    +0.000 A 
ATOM      8  C   UNL     1      -0.769  10.728  22.449  0.00  0.00    +0.000 A 
ATOM      9  F   UNL     1      -0.859   9.504  22.989  0.00  0.00    +0.000 F 
ATOM     10  C   UNL     1      -1.324  11.785  23.163  0.00  0.00    +0.000 A 
ATOM     11  C   UNL     1      -1.253  13.094  22.690  0.00  0.00    +0.000 A 
ATOM     12  C   UNL     1      -0.619  13.288  21.445  0.00  0.00    +0.000 A 
ATOM     13  C   UNL     1      -0.043  12.241  20.694  0.00  0.00    +0.000 A 
ENDROOT
BRANCH  11  14
ATOM     14  N   UNL     1      -1.742  14.146  23.431  0.00  0.00    +0.000 N 
ATOM     15  C   UNL     1      -0.987  15.392  23.635  0.00  0.00    +0.000 C 
ATOM     16  C   UNL     1      -1.029  15.765  25.126  0.00  0.00    +0.000 C 
ATOM     17  O   UNL     1      -2.379  15.881  25.604  0.00  0.00    +0.000 OA
ATOM     18  C   UNL     1      -3.073  14.631  25.448  0.00  0.00    +0.000 C 
ATOM     19  C   UNL     1      -3.110  14.182  23.978  0.00  0.00    +0.000 C 
ENDBRANCH  11  14
BRANCH   4  20
ATOM     20  C   UNL     1       1.819   9.016  18.390  0.00  0.00    +0.000 C 
ATOM     21  O   UNL     1       1.864   9.094  17.166  0.00  0.00    +0.000 OA
ATOM     22  N   UNL     1       2.349   7.971  19.102  0.00  0.00    +0.000 N 
ATOM     23  H   UNL     1       2.232   7.976  20.115  0.00  0.00    +0.000 HD
BRANCH  22  24
ATOM     24  C   UNL     1       2.986   6.824  18.501  0.00  0.00    +0.000 C 
BRANCH  24  25
ATOM     25  C   UNL     1       2.308   5.527  18.880  0.00  0.00    +0.000 A 
ATOM     26  C   UNL     1       1.876   5.289  20.197  0.00  0.00    +0.000 A 
ATOM     27  C   UNL     1       1.205   4.108  20.521  0.00  0.00    +0.000 A 
ATOM     28  C   UNL     1       0.967   3.160  19.534  0.00  0.00    +0.000 A 
ATOM     29  F   UNL     1       0.316   2.030  19.844  0.00  0.00    +0.000 F 
ATOM     30  C   UNL     1       1.388   3.370  18.228  0.00  0.00    +0.000 A 
ATOM     31  C   UNL     1       2.058   4.552  17.901  0.00  0.00    +0.000 A 
ENDBRANCH  24  25
ENDBRANCH  22  24
ENDBRANCH   4  20
TORSDOF 4
ENDMDL
MODEL 7
REMARK VINA RESULT:      -8.4      2.226      2.793
REMARK  Name = 
REMARK  5 active torsions:
REMARK  status: ('A' for Active; 'I' for Inactive)
REMARK    1  A    between atoms: C_1  and  N_2
REMARK    2  A    between atoms: C_4  and  C_5
REMARK    3  A    between atoms: N_7  and  C_8
REMARK    4  A    between atoms: C_8  and  C_9
REMARK    5  A    between atoms: C_22  and  N_23
REMARK                            x       y       z     vdW  Elec       q    Type
REMARK                         _______ _______ _______ _____ _____    ______ ____
ROOT
ATOM      1  C   UNL     1      -1.083  11.937  18.188  0.00  0.00    +0.000 C 
ATOM      2  N   UNL     1      -0.345  10.900  18.915  0.00  0.00    +0.000 N 
ATOM      3  C   UNL     1       0.506  10.012  18.268  0.00  0.00    +0.000 A 
ATOM      4  C   UNL     1       1.244   9.050  18.841  0.00  0.00    +0.000 A 
ATOM      5  C   UNL     1       1.132   8.917  20.315  0.00  0.00    +0.000 A 
ATOM      6  O   UNL     1       1.761   8.046  20.911  0.00  0.00    +0.000 OA
ATOM      7  C   UNL     1       0.239   9.851  21.036  0.00  0.00    +0.000 A 
ATOM      8  C   UNL     1       0.124   9.764  22.420  0.00  0.00    +0.000 A 
ATOM      9  F   UNL     1       0.801   8.848  23.128  0.00  0.00    +0.000 F 
ATOM     10  C   UNL     1      -0.691  10.642  23.127  0.00  0.00    +0.000 A 
ATOM     11  C   UNL     1      -1.411  11.643  22.475  0.00  0.00    +0.000 A 
ATOM     12  C   UNL     1      -1.295  11.700  21.071  0.00  0.00    +0.000 A 
ATOM     13  C   UNL     1      -0.476  10.828  20.322  0.00  0.00    +0.000 A 
ENDROOT
BRANCH  11  14
ATOM     14  N   UNL     1      -2.162  12.554  23.183  0.00  0.00    +0.000 N 
ATOM     15  C   UNL     1      -3.447  12.208  23.811  0.00  0.00    +0.000 C 
ATOM     16  C   UNL     1      -4.481  13.290  23.463  0.00  0.00    +0.000 C 
ATOM     17  O   UNL     1      -4.033  14.597  23.863  0.00  0.00    +0.000 OA
ATOM     18  C   UNL     1      -2.809  14.932  23.188  0.00  0.00    +0.000 C 
ATOM     19  C   UNL     1      -1.695  13.917  23.494  0.00  0.00    +0.000 C 
ENDBRANCH  11  14
BRANCH   4  20
ATOM     20  C   UNL     1       2.119   8.181  17.992  0.00  0.00    +0.000 C 
ATOM     21  O   UNL     1       2.675   8.615  16.987  0.00  0.00    +0.000 OA
ATOM     22  N   UNL     1       2.234   6.883  18.419  0.00  0.00    +0.000 N 
ATOM     23  H   UNL     1       1.706   6.605  19.246  0.00  0.00    +0.000 HD
BRANCH  22  24
ATOM     24  C   UNL     1       2.987   5.866  17.724  0.00  0.00    +0.000 C 
BRANCH  24  25
ATOM     25  C   UNL     1       4.468   5.950  18.015  0.00  0.00    +0.000 A 
ATOM     26  C   UNL     1       5.331   6.693  17.190  0.00  0.00    +0.000 A 
ATOM     27  C   UNL     1       6.688   6.804  17.500  0.00  0.00    +0.000 A 
ATOM     28  C   UNL     1       7.189   6.171  18.631  0.00  0.00    +0.000 A 
ATOM     29  F   UNL     1       8.489   6.285  18.932  0.00  0.00    +0.000 F 
ATOM     30  C   UNL     1       6.357   5.428  19.458  0.00  0.00    +0.000 A 
ATOM     31  C   UNL     1       4.999   5.318  19.152  0.00  0.00    +0.000 A 
ENDBRANCH  24  25
ENDBRANCH  22  24
ENDBRANCH   4  20
TORSDOF 4
ENDMDL
MODEL 8
REMARK VINA RESULT:      -8.4      1.206      1.430
REMARK  Name = 
REMARK  5 active torsions:
REMARK  status: ('A' for Active; 'I' for Inactive)
REMARK    1  A    between atoms: C_1  and  N_2
REMARK    2  A    between atoms: C_4  and  C_5
REMARK    3  A    between atoms: N_7  and  C_8
REMARK    4  A    between atoms: C_8  and  C_9
REMARK    5  A    between atoms: C_22  and  N_23
REMARK                            x       y       z     vdW  Elec       q    Type
REMARK                         _______ _______ _______ _____ _____    ______ ____
ROOT
ATOM      1  C   UNL     1      -0.763  12.706  18.146  0.00  0.00    +0.000 C 
ATOM      2  N   UNL     1      -0.306  11.602  18.996  0.00  0.00    +0.000 N 
ATOM      3  C   UNL     1       0.529  10.600  18.515  0.00  0.00    +0.000 A 
ATOM      4  C   UNL     1       1.023   9.568  19.214  0.00  0.00    +0.000 A 
ATOM      5  C   UNL     1       0.631   9.484  20.642  0.00  0.00    +0.000 A 
ATOM      6  O   UNL     1       1.026   8.555  21.344  0.00  0.00    +0.000 OA
ATOM      7  C   UNL     1      -0.252  10.538  21.189  0.00  0.00    +0.000 A 
ATOM      8  C   UNL     1      -0.625  10.498  22.529  0.00  0.00    +0.000 A 
ATOM      9  F   UNL     1      -0.208   9.523  23.348  0.00  0.00    +0.000 F 
ATOM     10  C   UNL     1      -1.436  11.488  23.075  0.00  0.00    +0.000 A 
ATOM     11  C   UNL     1      -1.894  12.555  22.303  0.00  0.00    +0.000 A 
ATOM     12  C   UNL     1      -1.520  12.564  20.943  0.00  0.00    +0.000 A 
ATOM     13  C   UNL     1      -0.697  11.579  20.356  0.00  0.00    +0.000 A 
ENDROOT
BRANCH  11  14
ATOM     14  N   UNL     1      -2.639  13.569  22.862  0.00  0.00    +0.000 N 
ATOM     15  C   UNL     1      -2.078  14.527  23.827  0.00  0.00    +0.000 C 
ATOM     16  C   UNL     1      -3.042  14.659  25.018  0.00  0.00    +0.000 C 
ATOM     17  O   UNL     1      -4.358  15.049  24.591  0.00  0.00    +0.000 OA
ATOM     18  C   UNL     1      -4.904  14.064  23.696  0.00  0.00    +0.000 C 
ATOM     19  C   UNL     1      -4.021  13.876  22.452  0.00  0.00    +0.000 C 
ENDBRANCH  11  14
BRANCH   4  20
ATOM     20  C   UNL     1       1.919   8.576  18.538  0.00  0.00    +0.000 C 
ATOM     21  O   UNL     1       2.346   8.765  17.402  0.00  0.00    +0.000 OA
ATOM     22  N   UNL     1       2.209   7.459  19.279  0.00  0.00    +0.000 N 
ATOM     23  H   UNL     1       1.780   7.373  20.199  0.00  0.00    +0.000 HD
BRANCH  22  24
ATOM     24  C   UNL     1       3.012   6.359  18.802  0.00  0.00    +0.000 C 
BRANCH  24  25
ATOM     25  C   UNL     1       2.790   5.096  19.605  0.00  0.00    +0.000 A 
ATOM     26  C   UNL     1       3.731   4.052  19.593  0.00  0.00    +0.000 A 
ATOM     27  C   UNL     1       3.538   2.914  20.379  0.00  0.00    +0.000 A 
ATOM     28  C   UNL     1       2.404   2.813  21.176  0.00  0.00    +0.000 A 
ATOM     29  F   UNL     1       2.224   1.725  21.936  0.00  0.00    +0.000 F 
ATOM     30  C   UNL     1       1.458   3.830  21.200  0.00  0.00    +0.000 A 
ATOM     31  C   UNL     1       1.651   4.970  20.416  0.00  0.00    +0.000 A 
ENDBRANCH  24  25
ENDBRANCH  22  24
ENDBRANCH   4  20
TORSDOF 4
ENDMDL
MODEL 9
REMARK VINA RESULT:      -8.3      2.369      3.171
REMARK  Name = 
REMARK  5 active torsions:
REMARK  status: ('A' for Active; 'I' for Inactive)
REMARK    1  A    between atoms: C_1  and  N_2
REMARK    2  A    between atoms: C_4  and  C_5
REMARK    3  A    between atoms: N_7  and  C_8
REMARK    4  A    between atoms: C_8  and  C_9
REMARK    5  A    between atoms: C_22  and  N_23
REMARK                            x       y       z     vdW  Elec       q    Type
REMARK                         _______ _______ _______ _____ _____    ______ ____
ROOT
ATOM      1  C   UNL     1      -0.143  12.739  21.674  0.00  0.00    +0.000 C 
ATOM      2  N   UNL     1      -0.438  11.936  20.484  0.00  0.00    +0.000 N 
ATOM      3  C   UNL     1       0.519  11.123  19.888  0.00  0.00    +0.000 A 
ATOM      4  C   UNL     1       0.343  10.332  18.820  0.00  0.00    +0.000 A 
ATOM      5  C   UNL     1      -1.008  10.334  18.207  0.00  0.00    +0.000 A 
ATOM      6  O   UNL     1      -1.242   9.651  17.212  0.00  0.00    +0.000 OA
ATOM      7  C   UNL     1      -2.053  11.183  18.820  0.00  0.00    +0.000 A 
ATOM      8  C   UNL     1      -3.336  11.195  18.280  0.00  0.00    +0.000 A 
ATOM      9  F   UNL     1      -3.656  10.456  17.208  0.00  0.00    +0.000 F 
ATOM     10  C   UNL     1      -4.344  11.967  18.848  0.00  0.00    +0.000 A 
ATOM     11  C   UNL     1      -4.107  12.747  19.980  0.00  0.00    +0.000 A 
ATOM     12  C   UNL     1      -2.795  12.735  20.498  0.00  0.00    +0.000 A 
ATOM     13  C   UNL     1      -1.749  11.962  19.950  0.00  0.00    +0.000 A 
ENDROOT
BRANCH  11  14
ATOM     14  N   UNL     1      -5.123  13.456  20.581  0.00  0.00    +0.000 N 
ATOM     15  C   UNL     1      -5.165  14.926  20.594  0.00  0.00    +0.000 C 
ATOM     16  C   UNL     1      -5.481  15.404  22.021  0.00  0.00    +0.000 C 
ATOM     17  O   UNL     1      -6.709  14.836  22.508  0.00  0.00    +0.000 OA
ATOM     18  C   UNL     1      -6.615  13.401  22.540  0.00  0.00    +0.000 C 
ATOM     19  C   UNL     1      -6.325  12.820  21.147  0.00  0.00    +0.000 C 
ENDBRANCH  11  14
BRANCH   4  20
ATOM     20  C   UNL     1       1.487   9.511  18.309  0.00  0.00    +0.000 C 
ATOM     21  O   UNL     1       2.165   9.878  17.354  0.00  0.00    +0.000 OA
ATOM     22  N   UNL     1       1.700   8.335  18.981  0.00  0.00    +0.000 N 
ATOM     23  H   UNL     1       1.063   8.098  19.740  0.00  0.00    +0.000 HD
BRANCH  22  24
ATOM     24  C   UNL     1       2.716   7.374  18.626  0.00  0.00    +0.000 C 
BRANCH  24  25
ATOM     25  C   UNL     1       2.300   5.955  18.944  0.00  0.00    +0.000 A 
ATOM     26  C   UNL     1       1.974   5.569  20.256  0.00  0.00    +0.000 A 
ATOM     27  C   UNL     1       1.542   4.270  20.527  0.00  0.00    +0.000 A 
ATOM     28  C   UNL     1       1.437   3.350  19.490  0.00  0.00    +0.000 A 
ATOM     29  F   UNL     1       1.015   2.105  19.750  0.00  0.00    +0.000 F 
ATOM     30  C   UNL     1       1.759   3.707  18.187  0.00  0.00    +0.000 A 
ATOM     31  C   UNL     1       2.189   5.007  17.914  0.00  0.00    +0.000 A 
ENDBRANCH  24  25
ENDBRANCH  22  24
ENDBRANCH   4  20
TORSDOF 4
ENDMDL
