MODEL 1
REMARK VINA RESULT:      -8.1      0.000      0.000
REMARK  Name = 
REMARK  9 active torsions:
REMARK  status: ('A' for Active; 'I' for Inactive)
REMARK    1  A    between atoms: C_1  and  C_2
REMARK    2  A    between atoms: C_5  and  C_6
REMARK    3  A    between atoms: C_8  and  C_9
REMARK    4  A    between atoms: N_11  and  C_12
REMARK    5  A    between atoms: C_15  and  O_16
REMARK    6  A    between atoms: O_16  and  C_17
REMARK    7  A    between atoms: C_25  and  N_26
REMARK    8  A    between atoms: C_28  and  C_29
REMARK    9  A    between atoms: C_28  and  O_30
REMARK                            x       y       z     vdW  Elec       q    Type
REMARK                         _______ _______ _______ _____ _____    ______ ____
ROOT
ATOM      1  C   UNL     1       0.389  12.245  19.817  0.00  0.00    +0.000 A 
ATOM      2  C   UNL     1       1.032  11.240  19.075  0.00  0.00    +0.000 A 
ATOM      3  C   UNL     1       0.860   9.873  19.331  0.00  0.00    +0.000 A 
ATOM      4  C   UNL     1       0.024   9.552  20.375  0.00  0.00    +0.000 A 
ATOM      5  N   UNL     1      -0.628  10.482  21.136  0.00  0.00    +0.000 NA
ATOM      6  C   UNL     1      -0.460  11.804  20.857  0.00  0.00    +0.000 A 
ENDROOT
BRANCH   1  11
ATOM      7  C   UNL     1       1.751  17.715  18.564  0.00  0.00    +0.000 C 
ATOM      8  C   UNL     1       1.362  16.305  18.889  0.00  0.00    +0.000 A 
ATOM      9  N   UNL     1       2.298  15.529  19.477  0.00  0.00    +0.000 NA
ATOM     10  C   UNL     1       1.950  14.246  19.744  0.00  0.00    +0.000 A 
ATOM     11  C   UNL     1       0.698  13.670  19.510  0.00  0.00    +0.000 A 
ATOM     12  C   UNL     1      -0.238  14.521  18.896  0.00  0.00    +0.000 A 
ATOM     13  C   UNL     1       0.104  15.830  18.567  0.00  0.00    +0.000 A 
ATOM     14  F   UNL     1      -0.794  16.609  17.944  0.00  0.00    +0.000 F 
ENDBRANCH   1  11
BRANCH   6  15
ATOM     15  N   UNL     1      -1.110  12.775  21.661  0.00  0.00    +0.000 N 
ATOM     16  C   UNL     1      -1.082  12.823  23.094  0.00  0.00    +0.000 C 
ATOM     17  C   UNL     1      -2.614  12.948  23.120  0.00  0.00    +0.000 C 
ATOM     18  C   UNL     1      -3.151  14.214  23.781  0.00  0.00    +0.000 C 
ATOM     19  C   UNL     1      -2.532  13.015  21.586  0.00  0.00    +0.000 C 
BRANCH  17  20
ATOM     20  O   UNL     1      -3.338  11.807  23.658  0.00  0.00    +0.000 OA
ATOM     21  H   UNL     1      -3.268  11.903  24.623  0.00  0.00    +0.000 HD
ENDBRANCH  17  20
ENDBRANCH   6  15
BRANCH   3  22
ATOM     22  C   UNL     1       1.665   8.941  18.495  0.00  0.00    +0.000 C 
ATOM     23  O   UNL     1       1.929   9.332  17.359  0.00  0.00    +0.000 OA
ATOM     24  N   UNL     1       2.050   7.701  18.987  0.00  0.00    +0.000 N 
ATOM     25  H   UNL     1       1.599   7.341  19.816  0.00  0.00    +0.000 HD
BRANCH  24  26
ATOM     26  C   UNL     1       2.926   6.812  18.303  0.00  0.00    +0.000 A 
ATOM     27  C   UNL     1       2.604   5.477  18.034  0.00  0.00    +0.000 A 
ATOM     28  C   UNL     1       3.500   4.635  17.370  0.00  0.00    +0.000 A 
ATOM     29  C   UNL     1       4.732   5.110  16.935  0.00  0.00    +0.000 A 
ATOM     30  C   UNL     1       5.075   6.434  17.212  0.00  0.00    +0.000 A 
ATOM     31  C   UNL     1       4.166   7.286  17.872  0.00  0.00    +0.000 A 
BRANCH  29  32
ATOM     32  O   UNL     1       5.537   4.180  16.359  0.00  0.00    +0.000 OA
BRANCH  32  33
ATOM     33  C   UNL     1       6.114   4.448  15.089  0.00  0.00    +0.000 C 
ATOM     34  F   UNL     1       7.300   5.089  15.137  0.00  0.00    +0.000 F 
ATOM     35  F   UNL     1       6.288   3.277  14.437  0.00  0.00    +0.000 F 
ATOM     36  F   UNL     1       5.257   5.204  14.368  0.00  0.00    +0.000 F 
ENDBRANCH  32  33
ENDBRANCH  29  32
ENDBRANCH  24  26
ENDBRANCH   3  22
TORSDOF 7
ENDMDL
MODEL 2
REMARK VINA RESULT:      -8.0      0.953      1.415
REMARK  Name = 
REMARK  9 active torsions:
REMARK  status: ('A' for Active; 'I' for Inactive)
REMARK    1  A    between atoms: C_1  and  C_2
REMARK    2  A    between atoms: C_5  and  C_6
REMARK    3  A    between atoms: C_8  and  C_9
REMARK    4  A    between atoms: N_11  and  C_12
REMARK    5  A    between atoms: C_15  and  O_16
REMARK    6  A    between atoms: O_16  and  C_17
REMARK    7  A    between atoms: C_25  and  N_26
REMARK    8  A    between atoms: C_28  and  C_29
REMARK    9  A    between atoms: C_28  and  O_30
REMARK                            x       y       z     vdW  Elec       q    Type
REMARK                         _______ _______ _______ _____ _____    ______ ____
ROOT
ATOM      1  C   UNL     1       0.476  12.068  19.614  0.00  0.00    +0.000 A 
ATOM      2  C   UNL     1       1.147  11.057  18.905  0.00  0.00    +0.000 A 
ATOM      3  C   UNL     1       1.019   9.695  19.211  0.00  0.00    +0.000 A 
ATOM      4  C   UNL     1       0.198   9.387  20.270  0.00  0.00    +0.000 A 
ATOM      5  N   UNL     1      -0.480  10.322  21.001  0.00  0.00    +0.000 NA
ATOM      6  C   UNL     1      -0.354  11.638  20.673  0.00  0.00    +0.000 A 
ENDROOT
BRANCH   1  11
ATOM      7  C   UNL     1       1.344  17.626  18.313  0.00  0.00    +0.000 C 
ATOM      8  C   UNL     1       1.154  16.177  18.644  0.00  0.00    +0.000 A 
ATOM      9  N   UNL     1      -0.098  15.683  18.545  0.00  0.00    +0.000 NA
ATOM     10  C   UNL     1      -0.270  14.378  18.873  0.00  0.00    +0.000 A 
ATOM     11  C   UNL     1       0.739  13.489  19.255  0.00  0.00    +0.000 A 
ATOM     12  C   UNL     1       2.024  14.056  19.342  0.00  0.00    +0.000 A 
ATOM     13  C   UNL     1       2.224  15.404  19.057  0.00  0.00    +0.000 A 
ATOM     14  F   UNL     1       3.451  15.930  19.188  0.00  0.00    +0.000 F 
ENDBRANCH   1  11
BRANCH   6  15
ATOM     15  N   UNL     1      -1.031  12.617  21.446  0.00  0.00    +0.000 N 
ATOM     16  C   UNL     1      -0.939  12.764  22.870  0.00  0.00    +0.000 C 
ATOM     17  C   UNL     1      -2.474  12.789  22.967  0.00  0.00    +0.000 C 
ATOM     18  C   UNL     1      -3.065  14.058  23.570  0.00  0.00    +0.000 C 
ATOM     19  C   UNL     1      -2.469  12.756  21.429  0.00  0.00    +0.000 C 
BRANCH  17  20
ATOM     20  O   UNL     1      -3.091  11.642  23.614  0.00  0.00    +0.000 OA
ATOM     21  H   UNL     1      -4.012  11.912  23.768  0.00  0.00    +0.000 HD
ENDBRANCH  17  20
ENDBRANCH   6  15
BRANCH   3  22
ATOM     22  C   UNL     1       1.850   8.759  18.405  0.00  0.00    +0.000 C 
ATOM     23  O   UNL     1       2.119   9.130  17.263  0.00  0.00    +0.000 OA
ATOM     24  N   UNL     1       2.251   7.538  18.929  0.00  0.00    +0.000 N 
ATOM     25  H   UNL     1       1.797   7.188  19.761  0.00  0.00    +0.000 HD
BRANCH  24  26
ATOM     26  C   UNL     1       3.150   6.650  18.275  0.00  0.00    +0.000 A 
ATOM     27  C   UNL     1       4.454   7.010  17.915  0.00  0.00    +0.000 A 
ATOM     28  C   UNL     1       5.300   6.110  17.261  0.00  0.00    +0.000 A 
ATOM     29  C   UNL     1       4.877   4.818  16.972  0.00  0.00    +0.000 A 
ATOM     30  C   UNL     1       3.573   4.450  17.308  0.00  0.00    +0.000 A 
ATOM     31  C   UNL     1       2.723   5.354  17.977  0.00  0.00    +0.000 A 
BRANCH  29  32
ATOM     32  O   UNL     1       5.768   4.061  16.281  0.00  0.00    +0.000 OA
BRANCH  32  33
ATOM     33  C   UNL     1       6.118   4.432  14.955  0.00  0.00    +0.000 C 
ATOM     34  F   UNL     1       7.252   5.155  14.857  0.00  0.00    +0.000 F 
ATOM     35  F   UNL     1       6.262   3.310  14.216  0.00  0.00    +0.000 F 
ATOM     36  F   UNL     1       5.110   5.158  14.422  0.00  0.00    +0.000 F 
ENDBRANCH  32  33
ENDBRANCH  29  32
ENDBRANCH  24  26
ENDBRANCH   3  22
TORSDOF 7
ENDMDL
MODEL 3
REMARK VINA RESULT:      -8.0      0.913      1.299
REMARK  Name = 
REMARK  9 active torsions:
REMARK  status: ('A' for Active; 'I' for Inactive)
REMARK    1  A    between atoms: C_1  and  C_2
REMARK    2  A    between atoms: C_5  and  C_6
REMARK    3  A    between atoms: C_8  and  C_9
REMARK    4  A    between atoms: N_11  and  C_12
REMARK    5  A    between atoms: C_15  and  O_16
REMARK    6  A    between atoms: O_16  and  C_17
REMARK    7  A    between atoms: C_25  and  N_26
REMARK    8  A    between atoms: C_28  and  C_29
REMARK    9  A    between atoms: C_28  and  O_30
REMARK                            x       y       z     vdW  Elec       q    Type
REMARK                         _______ _______ _______ _____ _____    ______ ____
ROOT
ATOM      1  C   UNL     1       0.382  12.220  19.721  0.00  0.00    +0.000 A 
ATOM      2  C   UNL     1       1.035  11.212  18.991  0.00  0.00    +0.000 A 
ATOM      3  C   UNL     1       0.902   9.848  19.286  0.00  0.00    +0.000 A 
ATOM      4  C   UNL     1       0.097   9.534  20.355  0.00  0.00    +0.000 A 
ATOM      5  N   UNL     1      -0.563  10.466  21.106  0.00  0.00    +0.000 NA
ATOM      6  C   UNL     1      -0.434  11.785  20.790  0.00  0.00    +0.000 A 
ENDROOT
BRANCH   1  11
ATOM      7  C   UNL     1       1.250  17.782  18.436  0.00  0.00    +0.000 C 
ATOM      8  C   UNL     1       1.061  16.333  18.768  0.00  0.00    +0.000 A 
ATOM      9  N   UNL     1      -0.150  15.795  18.507  0.00  0.00    +0.000 NA
ATOM     10  C   UNL     1      -0.324  14.491  18.835  0.00  0.00    +0.000 A 
ATOM     11  C   UNL     1       0.648  13.643  19.372  0.00  0.00    +0.000 A 
ATOM     12  C   UNL     1       1.890  14.254  19.625  0.00  0.00    +0.000 A 
ATOM     13  C   UNL     1       2.086  15.603  19.342  0.00  0.00    +0.000 A 
ATOM     14  F   UNL     1       3.267  16.172  19.630  0.00  0.00    +0.000 F 
ENDBRANCH   1  11
BRANCH   6  15
ATOM     15  N   UNL     1      -1.092  12.760  21.583  0.00  0.00    +0.000 N 
ATOM     16  C   UNL     1      -1.040  12.843  23.014  0.00  0.00    +0.000 C 
ATOM     17  C   UNL     1      -2.574  12.933  23.065  0.00  0.00    +0.000 C 
ATOM     18  C   UNL     1      -3.127  14.201  23.705  0.00  0.00    +0.000 C 
ATOM     19  C   UNL     1      -2.521  12.965  21.528  0.00  0.00    +0.000 C 
BRANCH  17  20
ATOM     20  O   UNL     1      -3.261  11.789  23.643  0.00  0.00    +0.000 OA
ATOM     21  H   UNL     1      -2.581  11.329  24.162  0.00  0.00    +0.000 HD
ENDBRANCH  17  20
ENDBRANCH   6  15
BRANCH   3  22
ATOM     22  C   UNL     1       1.714   8.915  18.457  0.00  0.00    +0.000 C 
ATOM     23  O   UNL     1       2.004   9.315  17.329  0.00  0.00    +0.000 OA
ATOM     24  N   UNL     1       2.074   7.666  18.944  0.00  0.00    +0.000 N 
ATOM     25  H   UNL     1       1.603   7.303  19.760  0.00  0.00    +0.000 HD
BRANCH  24  26
ATOM     26  C   UNL     1       2.954   6.774  18.269  0.00  0.00    +0.000 A 
ATOM     27  C   UNL     1       2.645   5.430  18.029  0.00  0.00    +0.000 A 
ATOM     28  C   UNL     1       3.545   4.586  17.372  0.00  0.00    +0.000 A 
ATOM     29  C   UNL     1       4.767   5.066  16.915  0.00  0.00    +0.000 A 
ATOM     30  C   UNL     1       5.096   6.400  17.163  0.00  0.00    +0.000 A 
ATOM     31  C   UNL     1       4.185   7.254  17.815  0.00  0.00    +0.000 A 
BRANCH  29  32
ATOM     32  O   UNL     1       5.576   4.134  16.349  0.00  0.00    +0.000 OA
BRANCH  32  33
ATOM     33  C   UNL     1       6.100   4.363  15.049  0.00  0.00    +0.000 C 
ATOM     34  F   UNL     1       6.296   3.246  14.320  0.00  0.00    +0.000 F 
ATOM     35  F   UNL     1       5.249   5.169  14.375  0.00  0.00    +0.000 F 
ATOM     36  F   UNL     1       7.284   5.005  15.159  0.00  0.00    +0.000 F 
ENDBRANCH  32  33
ENDBRANCH  29  32
ENDBRANCH  24  26
ENDBRANCH   3  22
TORSDOF 7
ENDMDL
MODEL 4
REMARK VINA RESULT:      -7.9      3.182      5.127
REMARK  Name = 
REMARK  9 active torsions:
REMARK  status: ('A' for Active; 'I' for Inactive)
REMARK    1  A    between atoms: C_1  and  C_2
REMARK    2  A    between atoms: C_5  and  C_6
REMARK    3  A    between atoms: C_8  and  C_9
REMARK    4  A    between atoms: N_11  and  C_12
REMARK    5  A    between atoms: C_15  and  O_16
REMARK    6  A    between atoms: O_16  and  C_17
REMARK    7  A    between atoms: C_25  and  N_26
REMARK    8  A    between atoms: C_28  and  C_29
REMARK    9  A    between atoms: C_28  and  O_30
REMARK                            x       y       z     vdW  Elec       q    Type
REMARK                         _______ _______ _______ _____ _____    ______ ____
ROOT
ATOM      1  C   UNL     1      -1.775  12.620  22.313  0.00  0.00    +0.000 A 
ATOM      2  C   UNL     1      -1.315  11.464  21.660  0.00  0.00    +0.000 A 
ATOM      3  C   UNL     1      -0.014  11.341  21.153  0.00  0.00    +0.000 A 
ATOM      4  C   UNL     1       0.806  12.432  21.315  0.00  0.00    +0.000 A 
ATOM      5  N   UNL     1       0.418  13.585  21.939  0.00  0.00    +0.000 NA
ATOM      6  C   UNL     1      -0.845  13.675  22.440  0.00  0.00    +0.000 A 
ENDROOT
BRANCH   1  11
ATOM      7  C   UNL     1      -7.237  12.903  24.166  0.00  0.00    +0.000 C 
ATOM      8  C   UNL     1      -5.832  12.828  23.651  0.00  0.00    +0.000 A 
ATOM      9  N   UNL     1      -4.891  12.357  24.496  0.00  0.00    +0.000 NA
ATOM     10  C   UNL     1      -3.617  12.318  24.034  0.00  0.00    +0.000 A 
ATOM     11  C   UNL     1      -3.198  12.675  22.749  0.00  0.00    +0.000 A 
ATOM     12  C   UNL     1      -4.218  13.160  21.910  0.00  0.00    +0.000 A 
ATOM     13  C   UNL     1      -5.529  13.256  22.371  0.00  0.00    +0.000 A 
ATOM     14  F   UNL     1      -6.475  13.760  21.564  0.00  0.00    +0.000 F 
ENDBRANCH   1  11
BRANCH   6  15
ATOM     15  N   UNL     1      -1.265  14.880  23.062  0.00  0.00    +0.000 N 
ATOM     16  C   UNL     1      -0.791  16.193  22.737  0.00  0.00    +0.000 C 
ATOM     17  C   UNL     1      -0.519  16.465  24.226  0.00  0.00    +0.000 C 
ATOM     18  C   UNL     1      -1.284  17.642  24.820  0.00  0.00    +0.000 C 
ATOM     19  C   UNL     1      -1.160  15.091  24.487  0.00  0.00    +0.000 C 
BRANCH  17  20
ATOM     20  O   UNL     1       0.879  16.584  24.608  0.00  0.00    +0.000 OA
ATOM     21  H   UNL     1       1.295  17.065  23.873  0.00  0.00    +0.000 HD
ENDBRANCH  17  20
ENDBRANCH   6  15
BRANCH   3  22
ATOM     22  C   UNL     1       0.293  10.076  20.430  0.00  0.00    +0.000 C 
ATOM     23  O   UNL     1      -0.307   9.906  19.369  0.00  0.00    +0.000 OA
ATOM     24  N   UNL     1       1.182   9.152  20.965  0.00  0.00    +0.000 N 
ATOM     25  H   UNL     1       1.444   9.230  21.937  0.00  0.00    +0.000 HD
BRANCH  24  26
ATOM     26  C   UNL     1       1.626   7.988  20.277  0.00  0.00    +0.000 A 
ATOM     27  C   UNL     1       1.552   6.702  20.825  0.00  0.00    +0.000 A 
ATOM     28  C   UNL     1       2.011   5.587  20.119  0.00  0.00    +0.000 A 
ATOM     29  C   UNL     1       2.534   5.721  18.838  0.00  0.00    +0.000 A 
ATOM     30  C   UNL     1       2.631   7.000  18.286  0.00  0.00    +0.000 A 
ATOM     31  C   UNL     1       2.157   8.123  18.993  0.00  0.00    +0.000 A 
BRANCH  29  32
ATOM     32  O   UNL     1       3.003   4.574  18.284  0.00  0.00    +0.000 OA
BRANCH  32  33
ATOM     33  C   UNL     1       2.099   3.698  17.625  0.00  0.00    +0.000 C 
ATOM     34  F   UNL     1       1.660   2.673  18.383  0.00  0.00    +0.000 F 
ATOM     35  F   UNL     1       1.028   4.413  17.212  0.00  0.00    +0.000 F 
ATOM     36  F   UNL     1       2.705   3.183  16.532  0.00  0.00    +0.000 F 
ENDBRANCH  32  33
ENDBRANCH  29  32
ENDBRANCH  24  26
ENDBRANCH   3  22
TORSDOF 7
ENDMDL
MODEL 5
REMARK VINA RESULT:      -7.9      3.131      4.879
REMARK  Name = 
REMARK  9 active torsions:
REMARK  status: ('A' for Active; 'I' for Inactive)
REMARK    1  A    between atoms: C_1  and  C_2
REMARK    2  A    between atoms: C_5  and  C_6
REMARK    3  A    between atoms: C_8  and  C_9
REMARK    4  A    between atoms: N_11  and  C_12
REMARK    5  A    between atoms: C_15  and  O_16
REMARK    6  A    between atoms: O_16  and  C_17
REMARK    7  A    between atoms: C_25  and  N_26
REMARK    8  A    between atoms: C_28  and  C_29
REMARK    9  A    between atoms: C_28  and  O_30
REMARK                            x       y       z     vdW  Elec       q    Type
REMARK                         _______ _______ _______ _____ _____    ______ ____
ROOT
ATOM      1  C   UNL     1      -0.557  12.240  20.037  0.00  0.00    +0.000 A 
ATOM      2  C   UNL     1      -0.098  10.936  19.785  0.00  0.00    +0.000 A 
ATOM      3  C   UNL     1       1.082  10.665  19.078  0.00  0.00    +0.000 A 
ATOM      4  C   UNL     1       1.778  11.757  18.619  0.00  0.00    +0.000 A 
ATOM      5  N   UNL     1       1.384  13.049  18.828  0.00  0.00    +0.000 NA
ATOM      6  C   UNL     1       0.244  13.289  19.534  0.00  0.00    +0.000 A 
ENDROOT
BRANCH   1  11
ATOM      7  C   UNL     1      -5.692  12.825  22.611  0.00  0.00    +0.000 C 
ATOM      8  C   UNL     1      -4.344  12.681  21.975  0.00  0.00    +0.000 A 
ATOM      9  N   UNL     1      -4.279  12.815  20.633  0.00  0.00    +0.000 NA
ATOM     10  C   UNL     1      -3.061  12.656  20.059  0.00  0.00    +0.000 A 
ATOM     11  C   UNL     1      -1.861  12.416  20.735  0.00  0.00    +0.000 A 
ATOM     12  C   UNL     1      -1.985  12.286  22.130  0.00  0.00    +0.000 A 
ATOM     13  C   UNL     1      -3.230  12.397  22.744  0.00  0.00    +0.000 A 
ATOM     14  F   UNL     1      -3.327  12.227  24.071  0.00  0.00    +0.000 F 
ENDBRANCH   1  11
BRANCH   6  15
ATOM     15  N   UNL     1      -0.187  14.627  19.729  0.00  0.00    +0.000 N 
ATOM     16  C   UNL     1      -0.084  15.684  18.766  0.00  0.00    +0.000 C 
ATOM     17  C   UNL     1       0.563  16.589  19.827  0.00  0.00    +0.000 C 
ATOM     18  C   UNL     1      -0.195  17.877  20.130  0.00  0.00    +0.000 C 
ATOM     19  C   UNL     1       0.295  15.443  20.818  0.00  0.00    +0.000 C 
BRANCH  17  20
ATOM     20  O   UNL     1       1.963  16.918  19.617  0.00  0.00    +0.000 OA
ATOM     21  H   UNL     1       2.423  16.062  19.631  0.00  0.00    +0.000 HD
ENDBRANCH  17  20
ENDBRANCH   6  15
BRANCH   3  22
ATOM     22  C   UNL     1       1.391   9.228  18.841  0.00  0.00    +0.000 C 
ATOM     23  O   UNL     1       1.251   8.833  17.684  0.00  0.00    +0.000 OA
ATOM     24  N   UNL     1       1.778   8.405  19.890  0.00  0.00    +0.000 N 
ATOM     25  H   UNL     1       1.634   8.718  20.839  0.00  0.00    +0.000 HD
BRANCH  24  26
ATOM     26  C   UNL     1       2.216   7.061  19.724  0.00  0.00    +0.000 A 
ATOM     27  C   UNL     1       3.190   6.683  18.793  0.00  0.00    +0.000 A 
ATOM     28  C   UNL     1       3.581   5.348  18.655  0.00  0.00    +0.000 A 
ATOM     29  C   UNL     1       3.029   4.358  19.460  0.00  0.00    +0.000 A 
ATOM     30  C   UNL     1       2.043   4.717  20.380  0.00  0.00    +0.000 A 
ATOM     31  C   UNL     1       1.657   6.064  20.528  0.00  0.00    +0.000 A 
BRANCH  29  32
ATOM     32  O   UNL     1       3.445   3.095  19.187  0.00  0.00    +0.000 OA
BRANCH  32  33
ATOM     33  C   UNL     1       2.572   2.204  18.507  0.00  0.00    +0.000 C 
ATOM     34  F   UNL     1       1.600   1.676  19.278  0.00  0.00    +0.000 F 
ATOM     35  F   UNL     1       1.992   2.866  17.481  0.00  0.00    +0.000 F 
ATOM     36  F   UNL     1       3.298   1.187  17.991  0.00  0.00    +0.000 F 
ENDBRANCH  32  33
ENDBRANCH  29  32
ENDBRANCH  24  26
ENDBRANCH   3  22
TORSDOF 7
ENDMDL
MODEL 6
REMARK VINA RESULT:      -7.8      2.425      3.077
REMARK  Name = 
REMARK  9 active torsions:
REMARK  status: ('A' for Active; 'I' for Inactive)
REMARK    1  A    between atoms: C_1  and  C_2
REMARK    2  A    between atoms: C_5  and  C_6
REMARK    3  A    between atoms: C_8  and  C_9
REMARK    4  A    between atoms: N_11  and  C_12
REMARK    5  A    between atoms: C_15  and  O_16
REMARK    6  A    between atoms: O_16  and  C_17
REMARK    7  A    between atoms: C_25  and  N_26
REMARK    8  A    between atoms: C_28  and  C_29
REMARK    9  A    between atoms: C_28  and  O_30
REMARK                            x       y       z     vdW  Elec       q    Type
REMARK                         _______ _______ _______ _____ _____    ______ ____
ROOT
ATOM      1  C   UNL     1      -0.216  12.724  21.460  0.00  0.00    +0.000 A 
ATOM      2  C   UNL     1       0.082  11.391  21.133  0.00  0.00    +0.000 A 
ATOM      3  C   UNL     1      -0.361  10.300  21.894  0.00  0.00    +0.000 A 
ATOM      4  C   UNL     1      -1.106  10.602  23.008  0.00  0.00    +0.000 A 
ATOM      5  N   UNL     1      -1.429  11.876  23.382  0.00  0.00    +0.000 NA
ATOM      6  C   UNL     1      -1.003  12.919  22.617  0.00  0.00    +0.000 A 
ENDROOT
BRANCH   1  11
ATOM      7  C   UNL     1       2.181  16.837  18.192  0.00  0.00    +0.000 C 
ATOM      8  C   UNL     1       1.527  15.786  19.035  0.00  0.00    +0.000 A 
ATOM      9  N   UNL     1       2.316  15.109  19.896  0.00  0.00    +0.000 NA
ATOM     10  C   UNL     1       1.724  14.140  20.638  0.00  0.00    +0.000 A 
ATOM     11  C   UNL     1       0.365  13.813  20.626  0.00  0.00    +0.000 A 
ATOM     12  C   UNL     1      -0.411  14.547  19.711  0.00  0.00    +0.000 A 
ATOM     13  C   UNL     1       0.176  15.517  18.902  0.00  0.00    +0.000 A 
ATOM     14  F   UNL     1      -0.578  16.175  18.009  0.00  0.00    +0.000 F 
ENDBRANCH   1  11
BRANCH   6  15
ATOM     15  N   UNL     1      -1.308  14.247  23.015  0.00  0.00    +0.000 N 
ATOM     16  C   UNL     1      -1.176  14.768  24.345  0.00  0.00    +0.000 C 
ATOM     17  C   UNL     1      -2.611  15.319  24.271  0.00  0.00    +0.000 C 
ATOM     18  C   UNL     1      -2.735  16.829  24.437  0.00  0.00    +0.000 C 
ATOM     19  C   UNL     1      -2.611  14.835  22.811  0.00  0.00    +0.000 C 
BRANCH  17  20
ATOM     20  O   UNL     1      -3.584  14.679  25.142  0.00  0.00    +0.000 OA
ATOM     21  H   UNL     1      -4.367  14.547  24.581  0.00  0.00    +0.000 HD
ENDBRANCH  17  20
ENDBRANCH   6  15
BRANCH   3  22
ATOM     22  C   UNL     1       0.099   8.956  21.446  0.00  0.00    +0.000 C 
ATOM     23  O   UNL     1      -0.681   8.027  21.655  0.00  0.00    +0.000 OA
ATOM     24  N   UNL     1       1.348   8.793  20.864  0.00  0.00    +0.000 N 
ATOM     25  H   UNL     1       2.029   9.534  20.948  0.00  0.00    +0.000 HD
BRANCH  24  26
ATOM     26  C   UNL     1       1.805   7.572  20.294  0.00  0.00    +0.000 A 
ATOM     27  C   UNL     1       2.388   7.491  19.024  0.00  0.00    +0.000 A 
ATOM     28  C   UNL     1       2.811   6.268  18.497  0.00  0.00    +0.000 A 
ATOM     29  C   UNL     1       2.687   5.095  19.233  0.00  0.00    +0.000 A 
ATOM     30  C   UNL     1       2.091   5.157  20.494  0.00  0.00    +0.000 A 
ATOM     31  C   UNL     1       1.674   6.392  21.030  0.00  0.00    +0.000 A 
BRANCH  29  32
ATOM     32  O   UNL     1       3.077   3.966  18.588  0.00  0.00    +0.000 OA
BRANCH  32  33
ATOM     33  C   UNL     1       2.181   3.333  17.686  0.00  0.00    +0.000 C 
ATOM     34  F   UNL     1       2.085   1.997  17.836  0.00  0.00    +0.000 F 
ATOM     35  F   UNL     1       0.951   3.870  17.849  0.00  0.00    +0.000 F 
ATOM     36  F   UNL     1       2.582   3.585  16.420  0.00  0.00    +0.000 F 
ENDBRANCH  32  33
ENDBRANCH  29  32
ENDBRANCH  24  26
ENDBRANCH   3  22
TORSDOF 7
ENDMDL
MODEL 7
REMARK VINA RESULT:      -7.8      2.274      2.789
REMARK  Name = 
REMARK  9 active torsions:
REMARK  status: ('A' for Active; 'I' for Inactive)
REMARK    1  A    between atoms: C_1  and  C_2
REMARK    2  A    between atoms: C_5  and  C_6
REMARK    3  A    between atoms: C_8  and  C_9
REMARK    4  A    between atoms: N_11  and  C_12
REMARK    5  A    between atoms: C_15  and  O_16
REMARK    6  A    between atoms: O_16  and  C_17
REMARK    7  A    between atoms: C_25  and  N_26
REMARK    8  A    between atoms: C_28  and  C_29
REMARK    9  A    between atoms: C_28  and  O_30
REMARK                            x       y       z     vdW  Elec       q    Type
REMARK                         _______ _______ _______ _____ _____    ______ ____
ROOT
ATOM      1  C   UNL     1      -0.251  12.828  21.513  0.00  0.00    +0.000 A 
ATOM      2  C   UNL     1       0.046  11.499  21.164  0.00  0.00    +0.000 A 
ATOM      3  C   UNL     1      -0.380  10.398  21.919  0.00  0.00    +0.000 A 
ATOM      4  C   UNL     1      -1.108  10.683  23.049  0.00  0.00    +0.000 A 
ATOM      5  N   UNL     1      -1.428  11.952  23.445  0.00  0.00    +0.000 NA
ATOM      6  C   UNL     1      -1.019  13.006  22.685  0.00  0.00    +0.000 A 
ENDROOT
BRANCH   1  11
ATOM      7  C   UNL     1       2.083  16.994  18.267  0.00  0.00    +0.000 C 
ATOM      8  C   UNL     1       1.445  15.928  19.104  0.00  0.00    +0.000 A 
ATOM      9  N   UNL     1       2.228  15.305  20.009  0.00  0.00    +0.000 NA
ATOM     10  C   UNL     1       1.652  14.321  20.744  0.00  0.00    +0.000 A 
ATOM     11  C   UNL     1       0.312  13.929  20.682  0.00  0.00    +0.000 A 
ATOM     12  C   UNL     1      -0.459  14.609  19.722  0.00  0.00    +0.000 A 
ATOM     13  C   UNL     1       0.116  15.592  18.920  0.00  0.00    +0.000 A 
ATOM     14  F   UNL     1      -0.631  16.197  17.983  0.00  0.00    +0.000 F 
ENDBRANCH   1  11
BRANCH   6  15
ATOM     15  N   UNL     1      -1.322  14.327  23.105  0.00  0.00    +0.000 N 
ATOM     16  C   UNL     1      -1.168  14.834  24.437  0.00  0.00    +0.000 C 
ATOM     17  C   UNL     1      -2.606  15.379  24.397  0.00  0.00    +0.000 C 
ATOM     18  C   UNL     1      -2.733  16.887  24.582  0.00  0.00    +0.000 C 
ATOM     19  C   UNL     1      -2.631  14.912  22.931  0.00  0.00    +0.000 C 
BRANCH  17  20
ATOM     20  O   UNL     1      -3.561  14.725  25.277  0.00  0.00    +0.000 OA
ATOM     21  H   UNL     1      -3.172  13.854  25.459  0.00  0.00    +0.000 HD
ENDBRANCH  17  20
ENDBRANCH   6  15
BRANCH   3  22
ATOM     22  C   UNL     1       0.077   9.062  21.447  0.00  0.00    +0.000 C 
ATOM     23  O   UNL     1      -0.677   8.120  21.694  0.00  0.00    +0.000 OA
ATOM     24  N   UNL     1       1.297   8.917  20.802  0.00  0.00    +0.000 N 
ATOM     25  H   UNL     1       1.970   9.668  20.853  0.00  0.00    +0.000 HD
BRANCH  24  26
ATOM     26  C   UNL     1       1.743   7.703  20.209  0.00  0.00    +0.000 A 
ATOM     27  C   UNL     1       1.683   6.466  20.861  0.00  0.00    +0.000 A 
ATOM     28  C   UNL     1       2.144   5.299  20.244  0.00  0.00    +0.000 A 
ATOM     29  C   UNL     1       2.654   5.332  18.951  0.00  0.00    +0.000 A 
ATOM     30  C   UNL     1       2.736   6.561  18.295  0.00  0.00    +0.000 A 
ATOM     31  C   UNL     1       2.261   7.736  18.912  0.00  0.00    +0.000 A 
BRANCH  29  32
ATOM     32  O   UNL     1       3.125   4.145  18.488  0.00  0.00    +0.000 OA
BRANCH  32  33
ATOM     33  C   UNL     1       4.500   3.829  18.651  0.00  0.00    +0.000 C 
ATOM     34  F   UNL     1       5.191   4.709  19.403  0.00  0.00    +0.000 F 
ATOM     35  F   UNL     1       4.598   2.609  19.224  0.00  0.00    +0.000 F 
ATOM     36  F   UNL     1       5.083   3.767  17.433  0.00  0.00    +0.000 F 
ENDBRANCH  32  33
ENDBRANCH  29  32
ENDBRANCH  24  26
ENDBRANCH   3  22
TORSDOF 7
ENDMDL
MODEL 8
REMARK VINA RESULT:      -7.8      3.363      4.717
REMARK  Name = 
REMARK  9 active torsions:
REMARK  status: ('A' for Active; 'I' for Inactive)
REMARK    1  A    between atoms: C_1  and  C_2
REMARK    2  A    between atoms: C_5  and  C_6
REMARK    3  A    between atoms: C_8  and  C_9
REMARK    4  A    between atoms: N_11  and  C_12
REMARK    5  A    between atoms: C_15  and  O_16
REMARK    6  A    between atoms: O_16  and  C_17
REMARK    7  A    between atoms: C_25  and  N_26
REMARK    8  A    between atoms: C_28  and  C_29
REMARK    9  A    between atoms: C_28  and  O_30
REMARK                            x       y       z     vdW  Elec       q    Type
REMARK                         _______ _______ _______ _____ _____    ______ ____
ROOT
ATOM      1  C   UNL     1      -0.857  11.789  18.703  0.00  0.00    +0.000 A 
ATOM      2  C   UNL     1      -0.209  10.549  18.565  0.00  0.00    +0.000 A 
ATOM      3  C   UNL     1       1.182  10.400  18.652  0.00  0.00    +0.000 A 
ATOM      4  C   UNL     1       1.902  11.551  18.871  0.00  0.00    +0.000 A 
ATOM      5  N   UNL     1       1.334  12.786  19.011  0.00  0.00    +0.000 NA
ATOM      6  C   UNL     1      -0.022  12.904  18.941  0.00  0.00    +0.000 A 
ENDROOT
BRANCH   1  11
ATOM      7  C   UNL     1      -6.574  11.864  17.899  0.00  0.00    +0.000 C 
ATOM      8  C   UNL     1      -5.095  11.868  18.136  0.00  0.00    +0.000 A 
ATOM      9  N   UNL     1      -4.304  11.534  17.093  0.00  0.00    +0.000 NA
ATOM     10  C   UNL     1      -2.967  11.512  17.321  0.00  0.00    +0.000 A 
ATOM     11  C   UNL     1      -2.333  11.849  18.520  0.00  0.00    +0.000 A 
ATOM     12  C   UNL     1      -3.203  12.187  19.573  0.00  0.00    +0.000 A 
ATOM     13  C   UNL     1      -4.583  12.175  19.383  0.00  0.00    +0.000 A 
ATOM     14  F   UNL     1      -5.392  12.462  20.415  0.00  0.00    +0.000 F 
ENDBRANCH   1  11
BRANCH   6  15
ATOM     15  N   UNL     1      -0.617  14.186  19.056  0.00  0.00    +0.000 N 
ATOM     16  C   UNL     1      -0.087  15.402  18.512  0.00  0.00    +0.000 C 
ATOM     17  C   UNL     1      -0.257  16.089  19.877  0.00  0.00    +0.000 C 
ATOM     18  C   UNL     1      -1.175  17.306  19.881  0.00  0.00    +0.000 C 
ATOM     19  C   UNL     1      -0.928  14.782  20.334  0.00  0.00    +0.000 C 
BRANCH  17  20
ATOM     20  O   UNL     1       0.971  16.437  20.574  0.00  0.00    +0.000 OA
ATOM     21  H   UNL     1       1.678  16.262  19.930  0.00  0.00    +0.000 HD
ENDBRANCH  17  20
ENDBRANCH   6  15
BRANCH   3  22
ATOM     22  C   UNL     1       1.712   9.029  18.417  0.00  0.00    +0.000 C 
ATOM     23  O   UNL     1       2.120   8.801  17.279  0.00  0.00    +0.000 OA
ATOM     24  N   UNL     1       1.702   8.082  19.432  0.00  0.00    +0.000 N 
ATOM     25  H   UNL     1       1.136   8.248  20.251  0.00  0.00    +0.000 HD
BRANCH  24  26
ATOM     26  C   UNL     1       2.308   6.799  19.326  0.00  0.00    +0.000 A 
ATOM     27  C   UNL     1       3.172   6.445  18.284  0.00  0.00    +0.000 A 
ATOM     28  C   UNL     1       3.736   5.168  18.212  0.00  0.00    +0.000 A 
ATOM     29  C   UNL     1       3.471   4.217  19.192  0.00  0.00    +0.000 A 
ATOM     30  C   UNL     1       2.596   4.550  20.228  0.00  0.00    +0.000 A 
ATOM     31  C   UNL     1       2.037   5.841  20.306  0.00  0.00    +0.000 A 
BRANCH  29  32
ATOM     32  O   UNL     1       4.027   2.998  18.976  0.00  0.00    +0.000 OA
BRANCH  32  33
ATOM     33  C   UNL     1       3.210   1.928  18.524  0.00  0.00    +0.000 C 
ATOM     34  F   UNL     1       2.198   1.607  19.355  0.00  0.00    +0.000 F 
ATOM     35  F   UNL     1       2.687   2.261  17.323  0.00  0.00    +0.000 F 
ATOM     36  F   UNL     1       3.979   0.829  18.355  0.00  0.00    +0.000 F 
ENDBRANCH  32  33
ENDBRANCH  29  32
ENDBRANCH  24  26
ENDBRANCH   3  22
TORSDOF 7
ENDMDL
MODEL 9
REMARK VINA RESULT:      -7.8      3.075      4.776
REMARK  Name = 
REMARK  9 active torsions:
REMARK  status: ('A' for Active; 'I' for Inactive)
REMARK    1  A    between atoms: C_1  and  C_2
REMARK    2  A    between atoms: C_5  and  C_6
REMARK    3  A    between atoms: C_8  and  C_9
REMARK    4  A    between atoms: N_11  and  C_12
REMARK    5  A    between atoms: C_15  and  O_16
REMARK    6  A    between atoms: O_16  and  C_17
REMARK    7  A    between atoms: C_25  and  N_26
REMARK    8  A    between atoms: C_28  and  C_29
REMARK    9  A    between atoms: C_28  and  O_30
REMARK                            x       y       z     vdW  Elec       q    Type
REMARK                         _______ _______ _______ _____ _____    ______ ____
ROOT
ATOM      1  C   UNL     1      -0.573  12.291  20.121  0.00  0.00    +0.000 A 
ATOM      2  C   UNL     1      -0.128  10.986  19.848  0.00  0.00    +0.000 A 
ATOM      3  C   UNL     1       1.055  10.713  19.147  0.00  0.00    +0.000 A 
ATOM      4  C   UNL     1       1.770  11.805  18.716  0.00  0.00    +0.000 A 
ATOM      5  N   UNL     1       1.391  13.098  18.946  0.00  0.00    +0.000 NA
ATOM      6  C   UNL     1       0.247  13.339  19.646  0.00  0.00    +0.000 A 
ENDROOT
BRANCH   1  11
ATOM      7  C   UNL     1      -5.722  12.883  22.664  0.00  0.00    +0.000 C 
ATOM      8  C   UNL     1      -4.370  12.740  22.036  0.00  0.00    +0.000 A 
ATOM      9  N   UNL     1      -4.306  12.818  20.690  0.00  0.00    +0.000 NA
ATOM     10  C   UNL     1      -3.084  12.660  20.124  0.00  0.00    +0.000 A 
ATOM     11  C   UNL     1      -1.881  12.471  20.810  0.00  0.00    +0.000 A 
ATOM     12  C   UNL     1      -2.004  12.396  22.209  0.00  0.00    +0.000 A 
ATOM     13  C   UNL     1      -3.252  12.509  22.817  0.00  0.00    +0.000 A 
ATOM     14  F   UNL     1      -3.348  12.392  24.150  0.00  0.00    +0.000 F 
ENDBRANCH   1  11
BRANCH   6  15
ATOM     15  N   UNL     1      -0.169  14.678  19.863  0.00  0.00    +0.000 N 
ATOM     16  C   UNL     1      -0.216  15.707  18.866  0.00  0.00    +0.000 C 
ATOM     17  C   UNL     1       0.563  16.648  19.799  0.00  0.00    +0.000 C 
ATOM     18  C   UNL     1      -0.159  17.938  20.170  0.00  0.00    +0.000 C 
ATOM     19  C   UNL     1       0.453  15.530  20.850  0.00  0.00    +0.000 C 
BRANCH  17  20
ATOM     20  O   UNL     1       1.916  16.983  19.383  0.00  0.00    +0.000 OA
ATOM     21  H   UNL     1       2.108  17.826  19.826  0.00  0.00    +0.000 HD
ENDBRANCH  17  20
ENDBRANCH   6  15
BRANCH   3  22
ATOM     22  C   UNL     1       1.348   9.277  18.886  0.00  0.00    +0.000 C 
ATOM     23  O   UNL     1       1.181   8.899  17.726  0.00  0.00    +0.000 OA
ATOM     24  N   UNL     1       1.751   8.437  19.915  0.00  0.00    +0.000 N 
ATOM     25  H   UNL     1       1.629   8.740  20.871  0.00  0.00    +0.000 HD
BRANCH  24  26
ATOM     26  C   UNL     1       2.174   7.092  19.723  0.00  0.00    +0.000 A 
ATOM     27  C   UNL     1       1.730   6.030  20.519  0.00  0.00    +0.000 A 
ATOM     28  C   UNL     1       2.181   4.725  20.303  0.00  0.00    +0.000 A 
ATOM     29  C   UNL     1       3.069   4.441  19.272  0.00  0.00    +0.000 A 
ATOM     30  C   UNL     1       3.534   5.493  18.481  0.00  0.00    +0.000 A 
ATOM     31  C   UNL     1       3.071   6.807  18.691  0.00  0.00    +0.000 A 
BRANCH  29  32
ATOM     32  O   UNL     1       3.479   3.148  19.204  0.00  0.00    +0.000 OA
BRANCH  32  33
ATOM     33  C   UNL     1       2.777   2.236  18.373  0.00  0.00    +0.000 C 
ATOM     34  F   UNL     1       3.499   1.167  17.979  0.00  0.00    +0.000 F 
ATOM     35  F   UNL     1       1.687   1.794  19.039  0.00  0.00    +0.000 F 
ATOM     36  F   UNL     1       2.355   2.887  17.266  0.00  0.00    +0.000 F 
ENDBRANCH  32  33
ENDBRANCH  29  32
ENDBRANCH  24  26
ENDBRANCH   3  22
TORSDOF 7
ENDMDL
