MODEL 1
REMARK VINA RESULT:      -6.1      0.000      0.000
REMARK  Name = 
REMARK  7 active torsions:
REMARK  status: ('A' for Active; 'I' for Inactive)
REMARK    1  A    between atoms: C_1  and  C_2
REMARK    2  A    between atoms: C_6  and  C_7
REMARK    3  A    between atoms: C_8  and  N_9
REMARK    4  A    between atoms: N_9  and  C_10
REMARK    5  A    between atoms: C_10  and  C_12
REMARK    6  A    between atoms: C_12  and  C_13
REMARK    7  A    between atoms: C_12  and  N_14
REMARK                            x       y       z     vdW  Elec       q    Type
REMARK                         _______ _______ _______ _____ _____    ______ ____
ROOT
ATOM      1  N   UNL     1       4.110   4.759  18.035  0.00  0.00    +0.000 N 
ATOM      2  H   UNL     1       3.701   5.450  17.426  0.00  0.00    +0.000 HD
ENDROOT
BRANCH   1  10
ATOM      3  C   UNL     1       3.453   1.672  18.174  0.00  0.00    +0.000 C 
ATOM      4  C   UNL     1       2.842   2.775  18.983  0.00  0.00    +0.000 A 
ATOM      5  C   UNL     1       1.825   2.353  19.875  0.00  0.00    +0.000 A 
ATOM      6  C   UNL     1       1.063   3.256  20.608  0.00  0.00    +0.000 A 
ATOM      7  C   UNL     1       1.310   4.608  20.474  0.00  0.00    +0.000 A 
ATOM      8  C   UNL     1       2.333   5.070  19.631  0.00  0.00    +0.000 A 
ATOM      9  C   UNL     1       2.550   6.568  19.593  0.00  0.00    +0.000 C 
ATOM     10  C   UNL     1       3.137   4.153  18.884  0.00  0.00    +0.000 A 
ENDBRANCH   1  10
BRANCH   1  11
ATOM     11  C   UNL     1       5.502   4.825  18.011  0.00  0.00    +0.000 C 
ATOM     12  S   UNL     1       6.566   5.464  19.134  0.00  0.00    +0.000 S 
BRANCH  11  13
ATOM     13  C   UNL     1       6.090   4.378  16.628  0.00  0.00    +0.000 C 
ATOM     14  C   UNL     1       5.459   5.092  15.432  0.00  0.00    +0.000 C 
BRANCH  13  15
ATOM     15  N   UNL     1       7.546   4.596  16.657  0.00  0.00    +0.000 NA
ATOM     16  H   UNL     1       8.021   3.988  17.316  0.00  0.00    +0.000 HD
ATOM     17  H   UNL     1       7.763   5.560  16.905  0.00  0.00    +0.000 HD
ENDBRANCH  13  15
ENDBRANCH  11  13
ENDBRANCH   1  11
TORSDOF 4
ENDMDL
MODEL 2
REMARK VINA RESULT:      -6.1      0.204      2.352
REMARK  Name = 
REMARK  7 active torsions:
REMARK  status: ('A' for Active; 'I' for Inactive)
REMARK    1  A    between atoms: C_1  and  C_2
REMARK    2  A    between atoms: C_6  and  C_7
REMARK    3  A    between atoms: C_8  and  N_9
REMARK    4  A    between atoms: N_9  and  C_10
REMARK    5  A    between atoms: C_10  and  C_12
REMARK    6  A    between atoms: C_12  and  C_13
REMARK    7  A    between atoms: C_12  and  N_14
REMARK                            x       y       z     vdW  Elec       q    Type
REMARK                         _______ _______ _______ _____ _____    ______ ____
ROOT
ATOM      1  N   UNL     1       4.080   4.458  17.790  0.00  0.00    +0.000 N 
ATOM      2  H   UNL     1       3.714   4.766  16.902  0.00  0.00    +0.000 HD
ENDROOT
BRANCH   1  10
ATOM      3  C   UNL     1       2.594   6.584  19.593  0.00  0.00    +0.000 C 
ATOM      4  C   UNL     1       2.346   5.108  19.525  0.00  0.00    +0.000 A 
ATOM      5  C   UNL     1       1.349   4.641  20.417  0.00  0.00    +0.000 A 
ATOM      6  C   UNL     1       1.080   3.286  20.581  0.00  0.00    +0.000 A 
ATOM      7  C   UNL     1       1.796   2.364  19.842  0.00  0.00    +0.000 A 
ATOM      8  C   UNL     1       2.767   2.784  18.918  0.00  0.00    +0.000 A 
ATOM      9  C   UNL     1       3.460   1.695  18.128  0.00  0.00    +0.000 C 
ATOM     10  C   UNL     1       3.043   4.175  18.726  0.00  0.00    +0.000 A 
ENDBRANCH   1  10
BRANCH   1  11
ATOM     11  C   UNL     1       5.456   4.666  17.867  0.00  0.00    +0.000 C 
ATOM     12  S   UNL     1       6.365   5.408  19.060  0.00  0.00    +0.000 S 
BRANCH  11  13
ATOM     13  C   UNL     1       6.186   4.283  16.534  0.00  0.00    +0.000 C 
ATOM     14  C   UNL     1       5.810   5.175  15.349  0.00  0.00    +0.000 C 
BRANCH  13  15
ATOM     15  N   UNL     1       7.638   4.323  16.777  0.00  0.00    +0.000 NA
ATOM     16  H   UNL     1       7.872   4.708  17.686  0.00  0.00    +0.000 HD
ATOM     17  H   UNL     1       8.109   4.880  16.066  0.00  0.00    +0.000 HD
ENDBRANCH  13  15
ENDBRANCH  11  13
ENDBRANCH   1  11
TORSDOF 4
ENDMDL
MODEL 3
REMARK VINA RESULT:      -6.1      1.516      2.876
REMARK  Name = 
REMARK  7 active torsions:
REMARK  status: ('A' for Active; 'I' for Inactive)
REMARK    1  A    between atoms: C_1  and  C_2
REMARK    2  A    between atoms: C_6  and  C_7
REMARK    3  A    between atoms: C_8  and  N_9
REMARK    4  A    between atoms: N_9  and  C_10
REMARK    5  A    between atoms: C_10  and  C_12
REMARK    6  A    between atoms: C_12  and  C_13
REMARK    7  A    between atoms: C_12  and  N_14
REMARK                            x       y       z     vdW  Elec       q    Type
REMARK                         _______ _______ _______ _____ _____    ______ ____
ROOT
ATOM      1  N   UNL     1       5.172   3.649  16.852  0.00  0.00    +0.000 N 
ATOM      2  H   UNL     1       4.988   2.882  16.223  0.00  0.00    +0.000 HD
ENDROOT
BRANCH   1  10
ATOM      3  C   UNL     1       4.276   6.660  17.189  0.00  0.00    +0.000 C 
ATOM      4  C   UNL     1       3.552   5.432  17.651  0.00  0.00    +0.000 A 
ATOM      5  C   UNL     1       2.350   5.693  18.355  0.00  0.00    +0.000 A 
ATOM      6  C   UNL     1       1.617   4.681  18.966  0.00  0.00    +0.000 A 
ATOM      7  C   UNL     1       2.067   3.378  18.877  0.00  0.00    +0.000 A 
ATOM      8  C   UNL     1       3.233   3.069  18.159  0.00  0.00    +0.000 A 
ATOM      9  C   UNL     1       3.611   1.605  18.085  0.00  0.00    +0.000 C 
ATOM     10  C   UNL     1       3.987   4.096  17.509  0.00  0.00    +0.000 A 
ENDBRANCH   1  10
BRANCH   1  11
ATOM     11  C   UNL     1       6.454   4.160  16.663  0.00  0.00    +0.000 C 
ATOM     12  S   UNL     1       7.545   4.765  17.779  0.00  0.00    +0.000 S 
BRANCH  11  13
ATOM     13  C   UNL     1       6.803   4.330  15.144  0.00  0.00    +0.000 C 
ATOM     14  C   UNL     1       5.582   4.285  14.224  0.00  0.00    +0.000 C 
BRANCH  13  15
ATOM     15  N   UNL     1       7.534   5.598  14.979  0.00  0.00    +0.000 NA
ATOM     16  H   UNL     1       8.276   5.714  15.662  0.00  0.00    +0.000 HD
ATOM     17  H   UNL     1       6.902   6.393  15.060  0.00  0.00    +0.000 HD
ENDBRANCH  13  15
ENDBRANCH  11  13
ENDBRANCH   1  11
TORSDOF 4
ENDMDL
MODEL 4
REMARK VINA RESULT:      -6.1      1.188      2.233
REMARK  Name = 
REMARK  7 active torsions:
REMARK  status: ('A' for Active; 'I' for Inactive)
REMARK    1  A    between atoms: C_1  and  C_2
REMARK    2  A    between atoms: C_6  and  C_7
REMARK    3  A    between atoms: C_8  and  N_9
REMARK    4  A    between atoms: N_9  and  C_10
REMARK    5  A    between atoms: C_10  and  C_12
REMARK    6  A    between atoms: C_12  and  C_13
REMARK    7  A    between atoms: C_12  and  N_14
REMARK                            x       y       z     vdW  Elec       q    Type
REMARK                         _______ _______ _______ _____ _____    ______ ____
ROOT
ATOM      1  N   UNL     1       4.767   3.507  18.352  0.00  0.00    +0.000 N 
ATOM      2  H   UNL     1       4.712   2.773  17.662  0.00  0.00    +0.000 HD
ENDROOT
BRANCH   1  10
ATOM      3  C   UNL     1       2.342   5.502  18.008  0.00  0.00    +0.000 C 
ATOM      4  C   UNL     1       2.496   4.416  19.029  0.00  0.00    +0.000 A 
ATOM      5  C   UNL     1       1.429   4.331  19.957  0.00  0.00    +0.000 A 
ATOM      6  C   UNL     1       1.466   3.468  21.048  0.00  0.00    +0.000 A 
ATOM      7  C   UNL     1       2.571   2.660  21.228  0.00  0.00    +0.000 A 
ATOM      8  C   UNL     1       3.635   2.684  20.312  0.00  0.00    +0.000 A 
ATOM      9  C   UNL     1       4.775   1.725  20.578  0.00  0.00    +0.000 C 
ATOM     10  C   UNL     1       3.603   3.552  19.176  0.00  0.00    +0.000 A 
ENDBRANCH   1  10
BRANCH   1  11
ATOM     11  C   UNL     1       5.830   4.368  18.090  0.00  0.00    +0.000 C 
ATOM     12  S   UNL     1       6.584   5.479  19.089  0.00  0.00    +0.000 S 
BRANCH  11  13
ATOM     13  C   UNL     1       6.222   4.376  16.572  0.00  0.00    +0.000 C 
ATOM     14  C   UNL     1       5.509   5.459  15.759  0.00  0.00    +0.000 C 
BRANCH  13  15
ATOM     15  N   UNL     1       7.683   4.528  16.475  0.00  0.00    +0.000 NA
ATOM     16  H   UNL     1       7.959   5.299  15.875  0.00  0.00    +0.000 HD
ATOM     17  H   UNL     1       8.113   3.678  16.114  0.00  0.00    +0.000 HD
ENDBRANCH  13  15
ENDBRANCH  11  13
ENDBRANCH   1  11
TORSDOF 4
ENDMDL
MODEL 5
REMARK VINA RESULT:      -6.1      2.004      3.201
REMARK  Name = 
REMARK  7 active torsions:
REMARK  status: ('A' for Active; 'I' for Inactive)
REMARK    1  A    between atoms: C_1  and  C_2
REMARK    2  A    between atoms: C_6  and  C_7
REMARK    3  A    between atoms: C_8  and  N_9
REMARK    4  A    between atoms: N_9  and  C_10
REMARK    5  A    between atoms: C_10  and  C_12
REMARK    6  A    between atoms: C_12  and  C_13
REMARK    7  A    between atoms: C_12  and  N_14
REMARK                            x       y       z     vdW  Elec       q    Type
REMARK                         _______ _______ _______ _____ _____    ______ ____
ROOT
ATOM      1  N   UNL     1       5.431   3.935  18.087  0.00  0.00    +0.000 N 
ATOM      2  H   UNL     1       5.767   3.134  18.599  0.00  0.00    +0.000 HD
ENDROOT
BRANCH   1  10
ATOM      3  C   UNL     1       3.689   6.562  17.882  0.00  0.00    +0.000 C 
ATOM      4  C   UNL     1       3.206   5.145  17.935  0.00  0.00    +0.000 A 
ATOM      5  C   UNL     1       1.795   5.008  17.932  0.00  0.00    +0.000 A 
ATOM      6  C   UNL     1       1.172   3.777  18.106  0.00  0.00    +0.000 A 
ATOM      7  C   UNL     1       1.950   2.648  18.276  0.00  0.00    +0.000 A 
ATOM      8  C   UNL     1       3.351   2.732  18.247  0.00  0.00    +0.000 A 
ATOM      9  C   UNL     1       4.107   1.429  18.397  0.00  0.00    +0.000 C 
ATOM     10  C   UNL     1       4.007   3.988  18.051  0.00  0.00    +0.000 A 
ENDBRANCH   1  10
BRANCH   1  11
ATOM     11  C   UNL     1       6.465   4.555  17.388  0.00  0.00    +0.000 C 
ATOM     12  S   UNL     1       6.907   4.418  15.780  0.00  0.00    +0.000 S 
BRANCH  11  13
ATOM     13  C   UNL     1       7.425   5.351  18.338  0.00  0.00    +0.000 C 
ATOM     14  C   UNL     1       7.600   6.819  17.945  0.00  0.00    +0.000 C 
BRANCH  13  15
ATOM     15  N   UNL     1       6.911   5.236  19.713  0.00  0.00    +0.000 NA
ATOM     16  H   UNL     1       6.477   4.337  19.894  0.00  0.00    +0.000 HD
ATOM     17  H   UNL     1       6.224   5.963  19.904  0.00  0.00    +0.000 HD
ENDBRANCH  13  15
ENDBRANCH  11  13
ENDBRANCH   1  11
TORSDOF 4
ENDMDL
MODEL 6
REMARK VINA RESULT:      -6.0      1.303      2.687
REMARK  Name = 
REMARK  7 active torsions:
REMARK  status: ('A' for Active; 'I' for Inactive)
REMARK    1  A    between atoms: C_1  and  C_2
REMARK    2  A    between atoms: C_6  and  C_7
REMARK    3  A    between atoms: C_8  and  N_9
REMARK    4  A    between atoms: N_9  and  C_10
REMARK    5  A    between atoms: C_10  and  C_12
REMARK    6  A    between atoms: C_12  and  C_13
REMARK    7  A    between atoms: C_12  and  N_14
REMARK                            x       y       z     vdW  Elec       q    Type
REMARK                         _______ _______ _______ _____ _____    ______ ____
ROOT
ATOM      1  N   UNL     1       3.450   4.636  17.405  0.00  0.00    +0.000 N 
ATOM      2  H   UNL     1       2.898   4.564  16.565  0.00  0.00    +0.000 HD
ENDROOT
BRANCH   1  10
ATOM      3  C   UNL     1       2.451   6.775  19.504  0.00  0.00    +0.000 C 
ATOM      4  C   UNL     1       2.203   5.297  19.514  0.00  0.00    +0.000 A 
ATOM      5  C   UNL     1       1.465   4.836  20.633  0.00  0.00    +0.000 A 
ATOM      6  C   UNL     1       1.254   3.481  20.871  0.00  0.00    +0.000 A 
ATOM      7  C   UNL     1       1.767   2.555  19.984  0.00  0.00    +0.000 A 
ATOM      8  C   UNL     1       2.472   2.969  18.843  0.00  0.00    +0.000 A 
ATOM      9  C   UNL     1       2.952   1.874  17.914  0.00  0.00    +0.000 C 
ATOM     10  C   UNL     1       2.683   4.358  18.575  0.00  0.00    +0.000 A 
ENDBRANCH   1  10
BRANCH   1  11
ATOM     11  C   UNL     1       4.686   5.226  17.147  0.00  0.00    +0.000 C 
ATOM     12  S   UNL     1       5.048   6.765  16.599  0.00  0.00    +0.000 S 
BRANCH  11  13
ATOM     13  C   UNL     1       5.862   4.193  17.234  0.00  0.00    +0.000 C 
ATOM     14  C   UNL     1       7.078   4.572  16.388  0.00  0.00    +0.000 C 
BRANCH  13  15
ATOM     15  N   UNL     1       6.238   4.043  18.650  0.00  0.00    +0.000 NA
ATOM     16  H   UNL     1       7.231   4.182  18.809  0.00  0.00    +0.000 HD
ATOM     17  H   UNL     1       5.990   3.118  18.995  0.00  0.00    +0.000 HD
ENDBRANCH  13  15
ENDBRANCH  11  13
ENDBRANCH   1  11
TORSDOF 4
ENDMDL
MODEL 7
REMARK VINA RESULT:      -6.0      1.521      2.880
REMARK  Name = 
REMARK  7 active torsions:
REMARK  status: ('A' for Active; 'I' for Inactive)
REMARK    1  A    between atoms: C_1  and  C_2
REMARK    2  A    between atoms: C_6  and  C_7
REMARK    3  A    between atoms: C_8  and  N_9
REMARK    4  A    between atoms: N_9  and  C_10
REMARK    5  A    between atoms: C_10  and  C_12
REMARK    6  A    between atoms: C_12  and  C_13
REMARK    7  A    between atoms: C_12  and  N_14
REMARK                            x       y       z     vdW  Elec       q    Type
REMARK                         _______ _______ _______ _____ _____    ______ ____
ROOT
ATOM      1  N   UNL     1       4.938   4.821  19.131  0.00  0.00    +0.000 N 
ATOM      2  H   UNL     1       5.618   4.954  19.863  0.00  0.00    +0.000 HD
ENDROOT
BRANCH   1  10
ATOM      3  C   UNL     1       2.539   6.841  19.518  0.00  0.00    +0.000 C 
ATOM      4  C   UNL     1       2.555   5.371  19.810  0.00  0.00    +0.000 A 
ATOM      5  C   UNL     1       1.349   4.872  20.363  0.00  0.00    +0.000 A 
ATOM      6  C   UNL     1       1.230   3.562  20.815  0.00  0.00    +0.000 A 
ATOM      7  C   UNL     1       2.316   2.714  20.711  0.00  0.00    +0.000 A 
ATOM      8  C   UNL     1       3.518   3.155  20.136  0.00  0.00    +0.000 A 
ATOM      9  C   UNL     1       4.629   2.133  20.030  0.00  0.00    +0.000 C 
ATOM     10  C   UNL     1       3.650   4.494  19.651  0.00  0.00    +0.000 A 
ENDBRANCH   1  10
BRANCH   1  11
ATOM     11  C   UNL     1       5.549   4.752  17.881  0.00  0.00    +0.000 C 
ATOM     12  S   UNL     1       5.009   4.055  16.458  0.00  0.00    +0.000 S 
BRANCH  11  13
ATOM     13  C   UNL     1       7.030   5.264  17.919  0.00  0.00    +0.000 C 
ATOM     14  C   UNL     1       7.503   5.672  19.315  0.00  0.00    +0.000 C 
BRANCH  13  15
ATOM     15  N   UNL     1       7.895   4.210  17.362  0.00  0.00    +0.000 NA
ATOM     16  H   UNL     1       7.888   4.194  16.348  0.00  0.00    +0.000 HD
ATOM     17  H   UNL     1       7.607   3.292  17.695  0.00  0.00    +0.000 HD
ENDBRANCH  13  15
ENDBRANCH  11  13
ENDBRANCH   1  11
TORSDOF 4
ENDMDL
MODEL 8
REMARK VINA RESULT:      -6.0      1.406      2.574
REMARK  Name = 
REMARK  7 active torsions:
REMARK  status: ('A' for Active; 'I' for Inactive)
REMARK    1  A    between atoms: C_1  and  C_2
REMARK    2  A    between atoms: C_6  and  C_7
REMARK    3  A    between atoms: C_8  and  N_9
REMARK    4  A    between atoms: N_9  and  C_10
REMARK    5  A    between atoms: C_10  and  C_12
REMARK    6  A    between atoms: C_12  and  C_13
REMARK    7  A    between atoms: C_12  and  N_14
REMARK                            x       y       z     vdW  Elec       q    Type
REMARK                         _______ _______ _______ _____ _____    ______ ____
ROOT
ATOM      1  N   UNL     1       5.401   4.073  18.088  0.00  0.00    +0.000 N 
ATOM      2  H   UNL     1       5.270   3.243  17.529  0.00  0.00    +0.000 HD
ENDROOT
BRANCH   1  10
ATOM      3  C   UNL     1       3.903   6.819  17.651  0.00  0.00    +0.000 C 
ATOM      4  C   UNL     1       3.493   5.685  18.540  0.00  0.00    +0.000 A 
ATOM      5  C   UNL     1       2.314   5.925  19.288  0.00  0.00    +0.000 A 
ATOM      6  C   UNL     1       1.861   5.036  20.258  0.00  0.00    +0.000 A 
ATOM      7  C   UNL     1       2.573   3.876  20.492  0.00  0.00    +0.000 A 
ATOM      8  C   UNL     1       3.727   3.580  19.748  0.00  0.00    +0.000 A 
ATOM      9  C   UNL     1       4.405   2.262  20.054  0.00  0.00    +0.000 C 
ATOM     10  C   UNL     1       4.196   4.475  18.736  0.00  0.00    +0.000 A 
ENDBRANCH   1  10
BRANCH   1  11
ATOM     11  C   UNL     1       6.632   4.669  17.825  0.00  0.00    +0.000 C 
ATOM     12  S   UNL     1       7.590   5.633  18.802  0.00  0.00    +0.000 S 
BRANCH  11  13
ATOM     13  C   UNL     1       7.047   4.525  16.320  0.00  0.00    +0.000 C 
ATOM     14  C   UNL     1       5.965   3.897  15.441  0.00  0.00    +0.000 C 
BRANCH  13  15
ATOM     15  N   UNL     1       7.420   5.858  15.817  0.00  0.00    +0.000 NA
ATOM     16  H   UNL     1       8.082   5.817  15.049  0.00  0.00    +0.000 HD
ATOM     17  H   UNL     1       7.830   6.423  16.558  0.00  0.00    +0.000 HD
ENDBRANCH  13  15
ENDBRANCH  11  13
ENDBRANCH   1  11
TORSDOF 4
ENDMDL
MODEL 9
REMARK VINA RESULT:      -6.0      2.080      3.044
REMARK  Name = 
REMARK  7 active torsions:
REMARK  status: ('A' for Active; 'I' for Inactive)
REMARK    1  A    between atoms: C_1  and  C_2
REMARK    2  A    between atoms: C_6  and  C_7
REMARK    3  A    between atoms: C_8  and  N_9
REMARK    4  A    between atoms: N_9  and  C_10
REMARK    5  A    between atoms: C_10  and  C_12
REMARK    6  A    between atoms: C_12  and  C_13
REMARK    7  A    between atoms: C_12  and  N_14
REMARK                            x       y       z     vdW  Elec       q    Type
REMARK                         _______ _______ _______ _____ _____    ______ ____
ROOT
ATOM      1  N   UNL     1       5.745   4.058  18.576  0.00  0.00    +0.000 N 
ATOM      2  H   UNL     1       6.092   3.175  18.919  0.00  0.00    +0.000 HD
ENDROOT
BRANCH   1  10
ATOM      3  C   UNL     1       3.979   6.515  17.669  0.00  0.00    +0.000 C 
ATOM      4  C   UNL     1       3.536   5.298  18.422  0.00  0.00    +0.000 A 
ATOM      5  C   UNL     1       2.168   5.304  18.790  0.00  0.00    +0.000 A 
ATOM      6  C   UNL     1       1.617   4.318  19.602  0.00  0.00    +0.000 A 
ATOM      7  C   UNL     1       2.423   3.293  20.056  0.00  0.00    +0.000 A 
ATOM      8  C   UNL     1       3.776   3.227  19.686  0.00  0.00    +0.000 A 
ATOM      9  C   UNL     1       4.558   2.038  20.202  0.00  0.00    +0.000 C 
ATOM     10  C   UNL     1       4.353   4.223  18.837  0.00  0.00    +0.000 A 
ENDBRANCH   1  10
BRANCH   1  11
ATOM     11  C   UNL     1       6.680   4.681  17.752  0.00  0.00    +0.000 C 
ATOM     12  S   UNL     1       6.953   4.502  16.110  0.00  0.00    +0.000 S 
BRANCH  11  13
ATOM     13  C   UNL     1       7.714   5.531  18.569  0.00  0.00    +0.000 C 
ATOM     14  C   UNL     1       7.758   7.004  18.160  0.00  0.00    +0.000 C 
BRANCH  13  15
ATOM     15  N   UNL     1       7.391   5.395  19.999  0.00  0.00    +0.000 NA
ATOM     16  H   UNL     1       6.424   5.131  20.159  0.00  0.00    +0.000 HD
ATOM     17  H   UNL     1       7.566   6.268  20.494  0.00  0.00    +0.000 HD
ENDBRANCH  13  15
ENDBRANCH  11  13
ENDBRANCH   1  11
TORSDOF 4
ENDMDL
