MODEL 1
REMARK VINA RESULT:      -8.8      0.000      0.000
REMARK  Name = 
REMARK  7 active torsions:
REMARK  status: ('A' for Active; 'I' for Inactive)
REMARK    1  A    between atoms: C_1  and  N_2
REMARK    2  A    between atoms: N_5  and  C_6
REMARK    3  A    between atoms: C_6  and  C_7
REMARK    4  A    between atoms: N_16  and  C_17
REMARK    5  A    between atoms: N_18  and  C_19
REMARK    6  A    between atoms: C_19  and  C_20
REMARK    7  A    between atoms: C_20  and  C_21
REMARK                            x       y       z     vdW  Elec       q    Type
REMARK                         _______ _______ _______ _____ _____    ______ ____
ROOT
ATOM      1  C   UNL     1       3.581   4.495  17.076  0.00  0.00    +0.000 A 
ATOM      2  N   UNL     1       4.089   4.147  15.902  0.00  0.00    +0.000 NA
ATOM      3  C   UNL     1       5.299   4.747  15.835  0.00  0.00    +0.000 A 
ATOM      4  C   UNL     1       5.567   5.477  16.958  0.00  0.00    +0.000 A 
ATOM      5  C   UNL     1       6.772   6.233  17.077  0.00  0.00    +0.000 A 
ATOM      6  O   UNL     1       7.111   6.893  18.055  0.00  0.00    +0.000 OA
ATOM      7  N   UNL     1       7.573   6.151  15.956  0.00  0.00    +0.000 N 
ATOM      8  C   UNL     1       7.368   5.368  14.838  0.00  0.00    +0.000 A 
ATOM      9  O   UNL     1       8.235   5.344  13.958  0.00  0.00    +0.000 OA
ATOM     10  N   UNL     1       6.184   4.647  14.783  0.00  0.00    +0.000 N 
ATOM     11  C   UNL     1       5.902   3.770  13.661  0.00  0.00    +0.000 C 
ATOM     12  N   UNL     1       4.489   5.269  17.794  0.00  0.00    +0.000 N 
ATOM     13  H   UNL     1       8.440   6.664  15.981  0.00  0.00    +0.000 HD
ENDROOT
BRANCH   1  14
ATOM     14  C   UNL     1       2.237   4.005  17.543  0.00  0.00    +0.000 C 
BRANCH  14  19
ATOM     15  C   UNL     1       2.063   2.935  22.131  0.00  0.00    +0.000 C 
ATOM     16  N   UNL     1       2.020   2.317  20.806  0.00  0.00    +0.000 NA
ATOM     17  C   UNL     1       3.296   2.521  20.092  0.00  0.00    +0.000 C 
ATOM     18  C   UNL     1       3.258   2.038  18.617  0.00  0.00    +0.000 C 
ATOM     19  N   UNL     1       2.130   2.557  17.799  0.00  0.00    +0.000 NA
ATOM     20  C   UNL     1       0.888   2.280  18.569  0.00  0.00    +0.000 C 
ATOM     21  C   UNL     1       0.886   2.829  20.020  0.00  0.00    +0.000 C 
ENDBRANCH  14  19
ENDBRANCH   1  14
BRANCH  12  22
ATOM     22  C   UNL     1       4.325   5.816  19.135  0.00  0.00    +0.000 C 
BRANCH  22  23
ATOM     23  C   UNL     1       2.872   5.939  19.613  0.00  0.00    +0.000 C 
BRANCH  23  24
ATOM     24  C   UNL     1       2.288   7.308  19.348  0.00  0.00    +0.000 A 
ATOM     25  C   UNL     1       2.416   7.905  18.084  0.00  0.00    +0.000 A 
ATOM     26  C   UNL     1       1.880   9.173  17.840  0.00  0.00    +0.000 A 
ATOM     27  C   UNL     1       1.214   9.856  18.854  0.00  0.00    +0.000 A 
ATOM     28  C   UNL     1       1.081   9.273  20.114  0.00  0.00    +0.000 A 
ATOM     29  C   UNL     1       1.617   8.007  20.360  0.00  0.00    +0.000 A 
ENDBRANCH  23  24
ENDBRANCH  22  23
ENDBRANCH  12  22
TORSDOF 5
ENDMDL
MODEL 2
REMARK VINA RESULT:      -8.4      3.233      6.422
REMARK  Name = 
REMARK  7 active torsions:
REMARK  status: ('A' for Active; 'I' for Inactive)
REMARK    1  A    between atoms: C_1  and  N_2
REMARK    2  A    between atoms: N_5  and  C_6
REMARK    3  A    between atoms: C_6  and  C_7
REMARK    4  A    between atoms: N_16  and  C_17
REMARK    5  A    between atoms: N_18  and  C_19
REMARK    6  A    between atoms: C_19  and  C_20
REMARK    7  A    between atoms: C_20  and  C_21
REMARK                            x       y       z     vdW  Elec       q    Type
REMARK                         _______ _______ _______ _____ _____    ______ ____
ROOT
ATOM      1  C   UNL     1       2.091   6.736  20.371  0.00  0.00    +0.000 A 
ATOM      2  N   UNL     1       1.367   7.487  21.189  0.00  0.00    +0.000 NA
ATOM      3  C   UNL     1       1.110   8.626  20.509  0.00  0.00    +0.000 A 
ATOM      4  C   UNL     1       1.667   8.610  19.260  0.00  0.00    +0.000 A 
ATOM      5  C   UNL     1       1.559   9.735  18.389  0.00  0.00    +0.000 A 
ATOM      6  O   UNL     1       2.000   9.801  17.246  0.00  0.00    +0.000 OA
ATOM      7  N   UNL     1       0.877  10.792  18.956  0.00  0.00    +0.000 N 
ATOM      8  C   UNL     1       0.241  10.817  20.181  0.00  0.00    +0.000 A 
ATOM      9  O   UNL     1      -0.405  11.821  20.500  0.00  0.00    +0.000 OA
ATOM     10  N   UNL     1       0.372   9.690  20.980  0.00  0.00    +0.000 N 
ATOM     11  C   UNL     1      -0.293   9.615  22.269  0.00  0.00    +0.000 C 
ATOM     12  N   UNL     1       2.250   7.365  19.138  0.00  0.00    +0.000 N 
ATOM     13  H   UNL     1       0.768  11.617  18.387  0.00  0.00    +0.000 HD
ENDROOT
BRANCH   1  14
ATOM     14  C   UNL     1       2.565   5.360  20.755  0.00  0.00    +0.000 C 
BRANCH  14  19
ATOM     15  C   UNL     1       3.605   1.447  18.340  0.00  0.00    +0.000 C 
ATOM     16  N   UNL     1       2.582   2.017  19.216  0.00  0.00    +0.000 NA
ATOM     17  C   UNL     1       1.944   3.190  18.582  0.00  0.00    +0.000 C 
ATOM     18  C   UNL     1       0.970   3.943  19.526  0.00  0.00    +0.000 C 
ATOM     19  N   UNL     1       1.522   4.322  20.853  0.00  0.00    +0.000 NA
ATOM     20  C   UNL     1       2.109   3.084  21.435  0.00  0.00    +0.000 C 
ATOM     21  C   UNL     1       3.145   2.368  20.530  0.00  0.00    +0.000 C 
ENDBRANCH  14  19
ENDBRANCH   1  14
BRANCH  12  22
ATOM     22  C   UNL     1       2.947   6.856  17.964  0.00  0.00    +0.000 C 
BRANCH  22  23
ATOM     23  C   UNL     1       4.383   7.366  17.789  0.00  0.00    +0.000 C 
BRANCH  23  24
ATOM     24  C   UNL     1       5.283   6.348  17.126  0.00  0.00    +0.000 A 
ATOM     25  C   UNL     1       5.150   6.062  15.758  0.00  0.00    +0.000 A 
ATOM     26  C   UNL     1       5.980   5.117  15.146  0.00  0.00    +0.000 A 
ATOM     27  C   UNL     1       6.946   4.449  15.893  0.00  0.00    +0.000 A 
ATOM     28  C   UNL     1       7.087   4.725  17.253  0.00  0.00    +0.000 A 
ATOM     29  C   UNL     1       6.259   5.667  17.867  0.00  0.00    +0.000 A 
ENDBRANCH  23  24
ENDBRANCH  22  23
ENDBRANCH  12  22
TORSDOF 5
ENDMDL
MODEL 3
REMARK VINA RESULT:      -8.1      3.314      6.402
REMARK  Name = 
REMARK  7 active torsions:
REMARK  status: ('A' for Active; 'I' for Inactive)
REMARK    1  A    between atoms: C_1  and  N_2
REMARK    2  A    between atoms: N_5  and  C_6
REMARK    3  A    between atoms: C_6  and  C_7
REMARK    4  A    between atoms: N_16  and  C_17
REMARK    5  A    between atoms: N_18  and  C_19
REMARK    6  A    between atoms: C_19  and  C_20
REMARK    7  A    between atoms: C_20  and  C_21
REMARK                            x       y       z     vdW  Elec       q    Type
REMARK                         _______ _______ _______ _____ _____    ______ ____
ROOT
ATOM      1  C   UNL     1       2.126   6.840  20.227  0.00  0.00    +0.000 A 
ATOM      2  N   UNL     1       1.365   7.485  21.100  0.00  0.00    +0.000 NA
ATOM      3  C   UNL     1       1.068   8.670  20.521  0.00  0.00    +0.000 A 
ATOM      4  C   UNL     1       1.637   8.788  19.284  0.00  0.00    +0.000 A 
ATOM      5  C   UNL     1       1.492   9.982  18.515  0.00  0.00    +0.000 A 
ATOM      6  O   UNL     1       1.940  10.168  17.389  0.00  0.00    +0.000 OA
ATOM      7  N   UNL     1       0.762  10.956  19.165  0.00  0.00    +0.000 N 
ATOM      8  C   UNL     1       0.114  10.845  20.380  0.00  0.00    +0.000 A 
ATOM      9  O   UNL     1      -0.575  11.790  20.778  0.00  0.00    +0.000 OA
ATOM     10  N   UNL     1       0.283   9.658  21.076  0.00  0.00    +0.000 N 
ATOM     11  C   UNL     1      -0.390   9.441  22.344  0.00  0.00    +0.000 C 
ATOM     12  N   UNL     1       2.271   7.583  19.058  0.00  0.00    +0.000 N 
ATOM     13  H   UNL     1       0.625  11.823  18.671  0.00  0.00    +0.000 HD
ENDROOT
BRANCH   1  14
ATOM     14  C   UNL     1       2.651   5.455  20.494  0.00  0.00    +0.000 C 
BRANCH  14  19
ATOM     15  C   UNL     1       3.540   1.324  18.402  0.00  0.00    +0.000 C 
ATOM     16  N   UNL     1       2.588   1.973  19.302  0.00  0.00    +0.000 NA
ATOM     17  C   UNL     1       1.880   3.071  18.612  0.00  0.00    +0.000 C 
ATOM     18  C   UNL     1       0.979   3.909  19.558  0.00  0.00    +0.000 C 
ATOM     19  N   UNL     1       1.638   4.425  20.786  0.00  0.00    +0.000 NA
ATOM     20  C   UNL     1       2.292   3.257  21.436  0.00  0.00    +0.000 C 
ATOM     21  C   UNL     1       3.257   2.459  20.520  0.00  0.00    +0.000 C 
ENDBRANCH  14  19
ENDBRANCH   1  14
BRANCH  12  22
ATOM     22  C   UNL     1       2.999   7.209  17.853  0.00  0.00    +0.000 C 
BRANCH  22  23
ATOM     23  C   UNL     1       3.788   5.897  17.951  0.00  0.00    +0.000 C 
BRANCH  23  24
ATOM     24  C   UNL     1       5.272   6.125  18.126  0.00  0.00    +0.000 A 
ATOM     25  C   UNL     1       5.985   5.442  19.125  0.00  0.00    +0.000 A 
ATOM     26  C   UNL     1       7.357   5.655  19.289  0.00  0.00    +0.000 A 
ATOM     27  C   UNL     1       8.028   6.553  18.462  0.00  0.00    +0.000 A 
ATOM     28  C   UNL     1       7.329   7.236  17.468  0.00  0.00    +0.000 A 
ATOM     29  C   UNL     1       5.959   7.025  17.302  0.00  0.00    +0.000 A 
ENDBRANCH  23  24
ENDBRANCH  22  23
ENDBRANCH  12  22
TORSDOF 5
ENDMDL
MODEL 4
REMARK VINA RESULT:      -7.9      3.205      6.825
REMARK  Name = 
REMARK  7 active torsions:
REMARK  status: ('A' for Active; 'I' for Inactive)
REMARK    1  A    between atoms: C_1  and  N_2
REMARK    2  A    between atoms: N_5  and  C_6
REMARK    3  A    between atoms: C_6  and  C_7
REMARK    4  A    between atoms: N_16  and  C_17
REMARK    5  A    between atoms: N_18  and  C_19
REMARK    6  A    between atoms: C_19  and  C_20
REMARK    7  A    between atoms: C_20  and  C_21
REMARK                            x       y       z     vdW  Elec       q    Type
REMARK                         _______ _______ _______ _____ _____    ______ ____
ROOT
ATOM      1  C   UNL     1       2.699   7.191  18.543  0.00  0.00    +0.000 A 
ATOM      2  N   UNL     1       2.568   8.419  18.061  0.00  0.00    +0.000 NA
ATOM      3  C   UNL     1       1.853   9.100  18.984  0.00  0.00    +0.000 A 
ATOM      4  C   UNL     1       1.523   8.315  20.053  0.00  0.00    +0.000 A 
ATOM      5  C   UNL     1       0.726   8.821  21.123  0.00  0.00    +0.000 A 
ATOM      6  O   UNL     1       0.405   8.202  22.132  0.00  0.00    +0.000 OA
ATOM      7  N   UNL     1       0.334  10.130  20.930  0.00  0.00    +0.000 N 
ATOM      8  C   UNL     1       0.707  10.972  19.902  0.00  0.00    +0.000 A 
ATOM      9  O   UNL     1       0.335  12.150  19.929  0.00  0.00    +0.000 OA
ATOM     10  N   UNL     1       1.491  10.427  18.896  0.00  0.00    +0.000 N 
ATOM     11  C   UNL     1       1.960  11.249  17.795  0.00  0.00    +0.000 C 
ATOM     12  N   UNL     1       2.120   7.095  19.806  0.00  0.00    +0.000 N 
ATOM     13  H   UNL     1      -0.232  10.543  21.654  0.00  0.00    +0.000 HD
ENDROOT
BRANCH   1  14
ATOM     14  C   UNL     1       3.462   6.121  17.810  0.00  0.00    +0.000 C 
BRANCH  14  19
ATOM     15  C   UNL     1       5.817   4.174  14.220  0.00  0.00    +0.000 C 
ATOM     16  N   UNL     1       6.029   4.836  15.507  0.00  0.00    +0.000 NA
ATOM     17  C   UNL     1       5.464   4.030  16.608  0.00  0.00    +0.000 C 
ATOM     18  C   UNL     1       5.504   4.755  17.980  0.00  0.00    +0.000 C 
ATOM     19  N   UNL     1       4.924   6.123  18.004  0.00  0.00    +0.000 NA
ATOM     20  C   UNL     1       5.570   6.874  16.893  0.00  0.00    +0.000 C 
ATOM     21  C   UNL     1       5.465   6.195  15.502  0.00  0.00    +0.000 C 
ENDBRANCH  14  19
ENDBRANCH   1  14
BRANCH  12  22
ATOM     22  C   UNL     1       2.083   5.929  20.680  0.00  0.00    +0.000 C 
BRANCH  22  23
ATOM     23  C   UNL     1       1.197   4.777  20.189  0.00  0.00    +0.000 C 
BRANCH  23  24
ATOM     24  C   UNL     1       1.999   3.648  19.582  0.00  0.00    +0.000 A 
ATOM     25  C   UNL     1       3.103   3.111  20.263  0.00  0.00    +0.000 A 
ATOM     26  C   UNL     1       3.847   2.070  19.700  0.00  0.00    +0.000 A 
ATOM     27  C   UNL     1       3.497   1.557  18.452  0.00  0.00    +0.000 A 
ATOM     28  C   UNL     1       2.403   2.084  17.767  0.00  0.00    +0.000 A 
ATOM     29  C   UNL     1       1.660   3.125  18.327  0.00  0.00    +0.000 A 
ENDBRANCH  23  24
ENDBRANCH  22  23
ENDBRANCH  12  22
TORSDOF 5
ENDMDL
MODEL 5
REMARK VINA RESULT:      -7.7      0.690      1.299
REMARK  Name = 
REMARK  7 active torsions:
REMARK  status: ('A' for Active; 'I' for Inactive)
REMARK    1  A    between atoms: C_1  and  N_2
REMARK    2  A    between atoms: N_5  and  C_6
REMARK    3  A    between atoms: C_6  and  C_7
REMARK    4  A    between atoms: N_16  and  C_17
REMARK    5  A    between atoms: N_18  and  C_19
REMARK    6  A    between atoms: C_19  and  C_20
REMARK    7  A    between atoms: C_20  and  C_21
REMARK                            x       y       z     vdW  Elec       q    Type
REMARK                         _______ _______ _______ _____ _____    ______ ____
ROOT
ATOM      1  C   UNL     1       3.221   4.523  17.021  0.00  0.00    +0.000 A 
ATOM      2  N   UNL     1       3.931   3.956  16.057  0.00  0.00    +0.000 NA
ATOM      3  C   UNL     1       5.054   4.700  15.943  0.00  0.00    +0.000 A 
ATOM      4  C   UNL     1       5.065   5.742  16.827  0.00  0.00    +0.000 A 
ATOM      5  C   UNL     1       6.137   6.684  16.845  0.00  0.00    +0.000 A 
ATOM      6  O   UNL     1       6.246   7.631  17.618  0.00  0.00    +0.000 OA
ATOM      7  N   UNL     1       7.094   6.430  15.884  0.00  0.00    +0.000 N 
ATOM      8  C   UNL     1       7.151   5.350  15.025  0.00  0.00    +0.000 A 
ATOM      9  O   UNL     1       8.131   5.227  14.283  0.00  0.00    +0.000 OA
ATOM     10  N   UNL     1       6.086   4.462  15.061  0.00  0.00    +0.000 N 
ATOM     11  C   UNL     1       6.080   3.279  14.219  0.00  0.00    +0.000 C 
ATOM     12  N   UNL     1       3.912   5.599  17.573  0.00  0.00    +0.000 N 
ATOM     13  H   UNL     1       7.877   7.063  15.847  0.00  0.00    +0.000 HD
ENDROOT
BRANCH   1  14
ATOM     14  C   UNL     1       1.895   3.970  17.470  0.00  0.00    +0.000 C 
BRANCH  14  19
ATOM     15  C   UNL     1       2.166   3.184  22.111  0.00  0.00    +0.000 C 
ATOM     16  N   UNL     1       2.038   2.483  20.834  0.00  0.00    +0.000 NA
ATOM     17  C   UNL     1       3.237   2.694  19.998  0.00  0.00    +0.000 C 
ATOM     18  C   UNL     1       3.094   2.118  18.564  0.00  0.00    +0.000 C 
ATOM     19  N   UNL     1       1.878   2.537  17.820  0.00  0.00    +0.000 NA
ATOM     20  C   UNL     1       0.720   2.259  18.713  0.00  0.00    +0.000 C 
ATOM     21  C   UNL     1       0.818   2.898  20.123  0.00  0.00    +0.000 C 
ENDBRANCH  14  19
ENDBRANCH   1  14
BRANCH  12  22
ATOM     22  C   UNL     1       3.490   6.456  18.673  0.00  0.00    +0.000 C 
BRANCH  22  23
ATOM     23  C   UNL     1       2.821   7.771  18.252  0.00  0.00    +0.000 C 
BRANCH  23  24
ATOM     24  C   UNL     1       1.881   8.306  19.309  0.00  0.00    +0.000 A 
ATOM     25  C   UNL     1       1.733   7.640  20.536  0.00  0.00    +0.000 A 
ATOM     26  C   UNL     1       0.861   8.133  21.511  0.00  0.00    +0.000 A 
ATOM     27  C   UNL     1       0.128   9.293  21.270  0.00  0.00    +0.000 A 
ATOM     28  C   UNL     1       0.267   9.962  20.055  0.00  0.00    +0.000 A 
ATOM     29  C   UNL     1       1.137   9.471  19.079  0.00  0.00    +0.000 A 
ENDBRANCH  23  24
ENDBRANCH  22  23
ENDBRANCH  12  22
TORSDOF 5
ENDMDL
MODEL 6
REMARK VINA RESULT:      -7.4      3.324      6.782
REMARK  Name = 
REMARK  7 active torsions:
REMARK  status: ('A' for Active; 'I' for Inactive)
REMARK    1  A    between atoms: C_1  and  N_2
REMARK    2  A    between atoms: N_5  and  C_6
REMARK    3  A    between atoms: C_6  and  C_7
REMARK    4  A    between atoms: N_16  and  C_17
REMARK    5  A    between atoms: N_18  and  C_19
REMARK    6  A    between atoms: C_19  and  C_20
REMARK    7  A    between atoms: C_20  and  C_21
REMARK                            x       y       z     vdW  Elec       q    Type
REMARK                         _______ _______ _______ _____ _____    ______ ____
ROOT
ATOM      1  C   UNL     1       2.877   7.222  18.585  0.00  0.00    +0.000 A 
ATOM      2  N   UNL     1       2.730   8.436  18.072  0.00  0.00    +0.000 NA
ATOM      3  C   UNL     1       1.888   9.085  18.907  0.00  0.00    +0.000 A 
ATOM      4  C   UNL     1       1.494   8.293  19.950  0.00  0.00    +0.000 A 
ATOM      5  C   UNL     1       0.566   8.765  20.925  0.00  0.00    +0.000 A 
ATOM      6  O   UNL     1       0.177   8.140  21.906  0.00  0.00    +0.000 OA
ATOM      7  N   UNL     1       0.124  10.048  20.673  0.00  0.00    +0.000 N 
ATOM      8  C   UNL     1       0.554  10.900  19.674  0.00  0.00    +0.000 A 
ATOM      9  O   UNL     1       0.117  12.055  19.645  0.00  0.00    +0.000 OA
ATOM     10  N   UNL     1       1.465  10.389  18.762  0.00  0.00    +0.000 N 
ATOM     11  C   UNL     1       1.998  11.224  17.701  0.00  0.00    +0.000 C 
ATOM     12  N   UNL     1       2.179   7.106  19.784  0.00  0.00    +0.000 N 
ATOM     13  H   UNL     1      -0.534  10.437  21.329  0.00  0.00    +0.000 HD
ENDROOT
BRANCH   1  14
ATOM     14  C   UNL     1       3.769   6.188  17.950  0.00  0.00    +0.000 C 
BRANCH  14  19
ATOM     15  C   UNL     1       8.116   4.364  17.881  0.00  0.00    +0.000 C 
ATOM     16  N   UNL     1       7.228   5.243  17.120  0.00  0.00    +0.000 NA
ATOM     17  C   UNL     1       6.891   6.450  17.902  0.00  0.00    +0.000 C 
ATOM     18  C   UNL     1       5.819   7.342  17.221  0.00  0.00    +0.000 C 
ATOM     19  N   UNL     1       4.574   6.646  16.803  0.00  0.00    +0.000 NA
ATOM     20  C   UNL     1       4.998   5.471  15.995  0.00  0.00    +0.000 C 
ATOM     21  C   UNL     1       6.011   4.530  16.699  0.00  0.00    +0.000 C 
ENDBRANCH  14  19
ENDBRANCH   1  14
BRANCH  12  22
ATOM     22  C   UNL     1       2.117   5.950  20.668  0.00  0.00    +0.000 C 
BRANCH  22  23
ATOM     23  C   UNL     1       1.232   4.799  20.171  0.00  0.00    +0.000 C 
BRANCH  23  24
ATOM     24  C   UNL     1       2.030   3.696  19.514  0.00  0.00    +0.000 A 
ATOM     25  C   UNL     1       3.186   3.189  20.130  0.00  0.00    +0.000 A 
ATOM     26  C   UNL     1       3.926   2.172  19.521  0.00  0.00    +0.000 A 
ATOM     27  C   UNL     1       3.523   1.654  18.292  0.00  0.00    +0.000 A 
ATOM     28  C   UNL     1       2.377   2.151  17.672  0.00  0.00    +0.000 A 
ATOM     29  C   UNL     1       1.637   3.168  18.278  0.00  0.00    +0.000 A 
ENDBRANCH  23  24
ENDBRANCH  22  23
ENDBRANCH  12  22
TORSDOF 5
ENDMDL
MODEL 7
REMARK VINA RESULT:      -7.2      3.160      6.274
REMARK  Name = 
REMARK  7 active torsions:
REMARK  status: ('A' for Active; 'I' for Inactive)
REMARK    1  A    between atoms: C_1  and  N_2
REMARK    2  A    between atoms: N_5  and  C_6
REMARK    3  A    between atoms: C_6  and  C_7
REMARK    4  A    between atoms: N_16  and  C_17
REMARK    5  A    between atoms: N_18  and  C_19
REMARK    6  A    between atoms: C_19  and  C_20
REMARK    7  A    between atoms: C_20  and  C_21
REMARK                            x       y       z     vdW  Elec       q    Type
REMARK                         _______ _______ _______ _____ _____    ______ ____
ROOT
ATOM      1  C   UNL     1       2.713   6.801  19.616  0.00  0.00    +0.000 A 
ATOM      2  N   UNL     1       1.865   7.195  20.555  0.00  0.00    +0.000 NA
ATOM      3  C   UNL     1       1.364   8.374  20.125  0.00  0.00    +0.000 A 
ATOM      4  C   UNL     1       1.888   8.738  18.916  0.00  0.00    +0.000 A 
ATOM      5  C   UNL     1       1.532   9.975  18.300  0.00  0.00    +0.000 A 
ATOM      6  O   UNL     1       1.928  10.372  17.208  0.00  0.00    +0.000 OA
ATOM      7  N   UNL     1       0.657  10.724  19.060  0.00  0.00    +0.000 N 
ATOM      8  C   UNL     1       0.054  10.356  20.246  0.00  0.00    +0.000 A 
ATOM      9  O   UNL     1      -0.780  11.114  20.753  0.00  0.00    +0.000 OA
ATOM     10  N   UNL     1       0.431   9.138  20.792  0.00  0.00    +0.000 N 
ATOM     11  C   UNL     1      -0.178   8.656  22.018  0.00  0.00    +0.000 C 
ATOM     12  N   UNL     1       2.714   7.695  18.548  0.00  0.00    +0.000 N 
ATOM     13  H   UNL     1       0.368  11.609  18.676  0.00  0.00    +0.000 HD
ENDROOT
BRANCH   1  14
ATOM     14  C   UNL     1       3.469   5.503  19.713  0.00  0.00    +0.000 C 
BRANCH  14  19
ATOM     15  C   UNL     1       1.241   2.127  22.135  0.00  0.00    +0.000 C 
ATOM     16  N   UNL     1       1.614   2.506  20.773  0.00  0.00    +0.000 NA
ATOM     17  C   UNL     1       3.083   2.528  20.619  0.00  0.00    +0.000 C 
ATOM     18  C   UNL     1       3.547   3.086  19.248  0.00  0.00    +0.000 C 
ATOM     19  N   UNL     1       2.978   4.403  18.862  0.00  0.00    +0.000 NA
ATOM     20  C   UNL     1       1.502   4.285  19.009  0.00  0.00    +0.000 C 
ATOM     21  C   UNL     1       1.024   3.803  20.404  0.00  0.00    +0.000 C 
ENDBRANCH  14  19
ENDBRANCH   1  14
BRANCH  12  22
ATOM     22  C   UNL     1       3.479   7.602  17.311  0.00  0.00    +0.000 C 
BRANCH  22  23
ATOM     23  C   UNL     1       5.002   7.553  17.491  0.00  0.00    +0.000 C 
BRANCH  23  24
ATOM     24  C   UNL     1       5.629   6.369  16.790  0.00  0.00    +0.000 A 
ATOM     25  C   UNL     1       6.634   5.617  17.421  0.00  0.00    +0.000 A 
ATOM     26  C   UNL     1       7.217   4.525  16.772  0.00  0.00    +0.000 A 
ATOM     27  C   UNL     1       6.805   4.175  15.488  0.00  0.00    +0.000 A 
ATOM     28  C   UNL     1       5.809   4.915  14.852  0.00  0.00    +0.000 A 
ATOM     29  C   UNL     1       5.226   6.007  15.498  0.00  0.00    +0.000 A 
ENDBRANCH  23  24
ENDBRANCH  22  23
ENDBRANCH  12  22
TORSDOF 5
ENDMDL
MODEL 8
REMARK VINA RESULT:      -7.0      2.937      6.764
REMARK  Name = 
REMARK  7 active torsions:
REMARK  status: ('A' for Active; 'I' for Inactive)
REMARK    1  A    between atoms: C_1  and  N_2
REMARK    2  A    between atoms: N_5  and  C_6
REMARK    3  A    between atoms: C_6  and  C_7
REMARK    4  A    between atoms: N_16  and  C_17
REMARK    5  A    between atoms: N_18  and  C_19
REMARK    6  A    between atoms: C_19  and  C_20
REMARK    7  A    between atoms: C_20  and  C_21
REMARK                            x       y       z     vdW  Elec       q    Type
REMARK                         _______ _______ _______ _____ _____    ______ ____
ROOT
ATOM      1  C   UNL     1       2.031   6.799  19.759  0.00  0.00    +0.000 A 
ATOM      2  N   UNL     1       1.719   5.796  20.567  0.00  0.00    +0.000 NA
ATOM      3  C   UNL     1       2.006   4.669  19.879  0.00  0.00    +0.000 A 
ATOM      4  C   UNL     1       2.499   4.944  18.634  0.00  0.00    +0.000 A 
ATOM      5  C   UNL     1       2.823   3.898  17.720  0.00  0.00    +0.000 A 
ATOM      6  O   UNL     1       3.295   4.047  16.598  0.00  0.00    +0.000 OA
ATOM      7  N   UNL     1       2.562   2.640  18.225  0.00  0.00    +0.000 N 
ATOM      8  C   UNL     1       2.134   2.323  19.499  0.00  0.00    +0.000 A 
ATOM      9  O   UNL     1       2.035   1.133  19.818  0.00  0.00    +0.000 OA
ATOM     10  N   UNL     1       1.845   3.382  20.347  0.00  0.00    +0.000 N 
ATOM     11  C   UNL     1       1.423   3.142  21.716  0.00  0.00    +0.000 C 
ATOM     12  N   UNL     1       2.579   6.321  18.571  0.00  0.00    +0.000 N 
ATOM     13  H   UNL     1       2.771   1.859  17.625  0.00  0.00    +0.000 HD
ENDROOT
BRANCH   1  14
ATOM     14  C   UNL     1       1.876   8.238  20.172  0.00  0.00    +0.000 C 
BRANCH  14  19
ATOM     15  C   UNL     1       2.016  12.950  20.113  0.00  0.00    +0.000 C 
ATOM     16  N   UNL     1       1.102  11.827  19.910  0.00  0.00    +0.000 NA
ATOM     17  C   UNL     1       0.931  11.058  21.159  0.00  0.00    +0.000 C 
ATOM     18  C   UNL     1       0.108   9.756  20.970  0.00  0.00    +0.000 C 
ATOM     19  N   UNL     1       0.569   8.856  19.881  0.00  0.00    +0.000 NA
ATOM     20  C   UNL     1       0.679   9.696  18.658  0.00  0.00    +0.000 C 
ATOM     21  C   UNL     1       1.565  10.959  18.815  0.00  0.00    +0.000 C 
ENDBRANCH  14  19
ENDBRANCH   1  14
BRANCH  12  22
ATOM     22  C   UNL     1       3.079   7.100  17.446  0.00  0.00    +0.000 C 
BRANCH  22  23
ATOM     23  C   UNL     1       4.572   7.449  17.510  0.00  0.00    +0.000 C 
BRANCH  23  24
ATOM     24  C   UNL     1       5.440   6.402  16.850  0.00  0.00    +0.000 A 
ATOM     25  C   UNL     1       5.358   6.177  15.466  0.00  0.00    +0.000 A 
ATOM     26  C   UNL     1       6.159   5.207  14.856  0.00  0.00    +0.000 A 
ATOM     27  C   UNL     1       7.045   4.452  15.620  0.00  0.00    +0.000 A 
ATOM     28  C   UNL     1       7.134   4.667  16.995  0.00  0.00    +0.000 A 
ATOM     29  C   UNL     1       6.335   5.635  17.607  0.00  0.00    +0.000 A 
ENDBRANCH  23  24
ENDBRANCH  22  23
ENDBRANCH  12  22
TORSDOF 5
ENDMDL
MODEL 9
REMARK VINA RESULT:      -7.0      8.670     12.428
REMARK  Name = 
REMARK  7 active torsions:
REMARK  status: ('A' for Active; 'I' for Inactive)
REMARK    1  A    between atoms: C_1  and  N_2
REMARK    2  A    between atoms: N_5  and  C_6
REMARK    3  A    between atoms: C_6  and  C_7
REMARK    4  A    between atoms: N_16  and  C_17
REMARK    5  A    between atoms: N_18  and  C_19
REMARK    6  A    between atoms: C_19  and  C_20
REMARK    7  A    between atoms: C_20  and  C_21
REMARK                            x       y       z     vdW  Elec       q    Type
REMARK                         _______ _______ _______ _____ _____    ______ ____
ROOT
ATOM      1  C   UNL     1      -3.568  12.672  20.905  0.00  0.00    +0.000 A 
ATOM      2  N   UNL     1      -3.741  12.672  22.219  0.00  0.00    +0.000 NA
ATOM      3  C   UNL     1      -5.073  12.799  22.413  0.00  0.00    +0.000 A 
ATOM      4  C   UNL     1      -5.753  12.881  21.231  0.00  0.00    +0.000 A 
ATOM      5  C   UNL     1      -7.168  13.068  21.204  0.00  0.00    +0.000 A 
ATOM      6  O   UNL     1      -7.864  13.125  20.196  0.00  0.00    +0.000 OA
ATOM      7  N   UNL     1      -7.721  13.173  22.464  0.00  0.00    +0.000 N 
ATOM      8  C   UNL     1      -7.077  13.022  23.676  0.00  0.00    +0.000 A 
ATOM      9  O   UNL     1      -7.743  13.058  24.716  0.00  0.00    +0.000 OA
ATOM     10  N   UNL     1      -5.703  12.833  23.638  0.00  0.00    +0.000 N 
ATOM     11  C   UNL     1      -4.950  12.629  24.863  0.00  0.00    +0.000 C 
ATOM     12  N   UNL     1      -4.794  12.737  20.248  0.00  0.00    +0.000 N 
ATOM     13  H   UNL     1      -8.719  13.306  22.510  0.00  0.00    +0.000 HD
ENDROOT
BRANCH   1  14
ATOM     14  C   UNL     1      -2.208  12.526  20.277  0.00  0.00    +0.000 C 
BRANCH  14  19
ATOM     15  C   UNL     1       1.331  10.056  18.377  0.00  0.00    +0.000 C 
ATOM     16  N   UNL     1       0.940  10.739  19.610  0.00  0.00    +0.000 NA
ATOM     17  C   UNL     1      -0.240  10.088  20.217  0.00  0.00    +0.000 C 
ATOM     18  C   UNL     1      -0.809  10.864  21.435  0.00  0.00    +0.000 C 
ATOM     19  N   UNL     1      -1.086  12.306  21.208  0.00  0.00    +0.000 NA
ATOM     20  C   UNL     1       0.156  12.889  20.634  0.00  0.00    +0.000 C 
ATOM     21  C   UNL     1       0.688  12.168  19.368  0.00  0.00    +0.000 C 
ENDBRANCH  14  19
ENDBRANCH   1  14
BRANCH  12  22
ATOM     22  C   UNL     1      -5.034  12.724  18.811  0.00  0.00    +0.000 C 
BRANCH  22  23
ATOM     23  C   UNL     1      -5.377  11.349  18.222  0.00  0.00    +0.000 C 
BRANCH  23  24
ATOM     24  C   UNL     1      -4.303  10.833  17.292  0.00  0.00    +0.000 A 
ATOM     25  C   UNL     1      -3.233  10.072  17.791  0.00  0.00    +0.000 A 
ATOM     26  C   UNL     1      -2.237   9.598  16.931  0.00  0.00    +0.000 A 
ATOM     27  C   UNL     1      -2.299   9.880  15.569  0.00  0.00    +0.000 A 
ATOM     28  C   UNL     1      -3.357  10.635  15.063  0.00  0.00    +0.000 A 
ATOM     29  C   UNL     1      -4.352  11.110  15.920  0.00  0.00    +0.000 A 
ENDBRANCH  23  24
ENDBRANCH  22  23
ENDBRANCH  12  22
TORSDOF 5
ENDMDL
