MODEL 1
REMARK VINA RESULT:      -8.7      0.000      0.000
REMARK  Name = 
REMARK  8 active torsions:
REMARK  status: ('A' for Active; 'I' for Inactive)
REMARK    1  A    between atoms: C_1  and  O_2
REMARK    2  A    between atoms: O_2  and  C_3
REMARK    3  A    between atoms: C_7  and  C_8
REMARK    4  A    between atoms: C_8  and  N_9
REMARK    5  A    between atoms: C_21  and  N_22
REMARK    6  A    between atoms: C_23  and  C_25
REMARK    7  A    between atoms: C_31  and  O_32
REMARK    8  A    between atoms: C_33  and  O_34
REMARK                            x       y       z     vdW  Elec       q    Type
REMARK                         _______ _______ _______ _____ _____    ______ ____
ROOT
ATOM      1  N   UNL     1       1.895   8.691  19.124  0.00  0.00    +0.000 NA
ATOM      2  C   UNL     1       2.495   8.002  20.274  0.00  0.00    +0.000 C 
ATOM      3  C   UNL     1       2.554   6.484  20.201  0.00  0.00    +0.000 C 
ATOM      4  C   UNL     1       3.015   5.892  18.848  0.00  0.00    +0.000 C 
ATOM      5  C   UNL     1       2.514   6.737  17.645  0.00  0.00    +0.000 C 
ATOM      6  C   UNL     1       2.487   8.250  17.874  0.00  0.00    +0.000 C 
ATOM      7  C   UNL     1       2.493   4.459  18.699  0.00  0.00    +0.000 A 
ATOM      8  C   UNL     1       1.221   3.980  19.006  0.00  0.00    +0.000 A 
ATOM      9  C   UNL     1       0.901   2.651  18.718  0.00  0.00    +0.000 A 
ATOM     10  C   UNL     1       1.841   1.810  18.117  0.00  0.00    +0.000 A 
ATOM     11  C   UNL     1       3.124   2.280  17.831  0.00  0.00    +0.000 A 
ATOM     12  C   UNL     1       3.441   3.599  18.140  0.00  0.00    +0.000 A 
ATOM     13  C   UNL     1       4.756   4.284  17.897  0.00  0.00    +0.000 C 
ATOM     14  C   UNL     1       4.569   5.628  18.705  0.00  0.00    +0.000 C 
ENDROOT
BRANCH  13  15
ATOM     15  N   UNL     1       4.989   4.406  16.468  0.00  0.00    +0.000 N 
ATOM     16  C   UNL     1       6.258   4.563  15.966  0.00  0.00    +0.000 C 
ATOM     17  O   UNL     1       7.232   4.804  16.666  0.00  0.00    +0.000 OA
ATOM     18  H   UNL     1       4.222   4.235  15.836  0.00  0.00    +0.000 HD
BRANCH  16  19
ATOM     19  C   UNL     1       6.434   4.448  14.500  0.00  0.00    +0.000 A 
ATOM     20  C   UNL     1       7.503   5.135  13.906  0.00  0.00    +0.000 A 
ATOM     21  C   UNL     1       7.736   5.016  12.540  0.00  0.00    +0.000 A 
ATOM     22  C   UNL     1       6.947   4.181  11.759  0.00  0.00    +0.000 A 
ATOM     23  C   UNL     1       5.889   3.487  12.348  0.00  0.00    +0.000 A 
ATOM     24  C   UNL     1       5.627   3.617  13.716  0.00  0.00    +0.000 A 
ENDBRANCH  16  19
ENDBRANCH  13  15
BRANCH  14  25
ATOM     25  O   UNL     1       5.205   5.510  19.992  0.00  0.00    +0.000 OA
ATOM     26  H   UNL     1       4.705   4.862  20.519  0.00  0.00    +0.000 HD
ENDBRANCH  14  25
BRANCH   1  27
ATOM     27  C   UNL     1       0.438   8.929  19.142  0.00  0.00    +0.000 C 
BRANCH  27  32
ATOM     28  C   UNL     1      -0.362  11.455  21.927  0.00  0.00    +0.000 A 
ATOM     29  C   UNL     1      -0.679  10.632  22.998  0.00  0.00    +0.000 A 
ATOM     30  C   UNL     1      -0.740   9.247  22.807  0.00  0.00    +0.000 A 
ATOM     31  C   UNL     1      -0.351   8.680  21.577  0.00  0.00    +0.000 A 
ATOM     32  C   UNL     1      -0.082   9.502  20.469  0.00  0.00    +0.000 A 
ATOM     33  C   UNL     1      -0.290  10.873  20.664  0.00  0.00    +0.000 A 
BRANCH  28  35
ATOM     34  C   UNL     1      -1.127  13.324  23.155  0.00  0.00    +0.000 C 
ATOM     35  O   UNL     1      -0.240  12.799  22.153  0.00  0.00    +0.000 OA
ENDBRANCH  28  35
BRANCH  33  36
ATOM     36  O   UNL     1      -0.647  11.666  19.601  0.00  0.00    +0.000 OA
ATOM     37  H   UNL     1      -1.301  12.298  19.964  0.00  0.00    +0.000 HD
ENDBRANCH  33  36
ENDBRANCH  27  32
ENDBRANCH   1  27
TORSDOF 7
ENDMDL
MODEL 2
REMARK VINA RESULT:      -8.7      0.973      1.454
REMARK  Name = 
REMARK  8 active torsions:
REMARK  status: ('A' for Active; 'I' for Inactive)
REMARK    1  A    between atoms: C_1  and  O_2
REMARK    2  A    between atoms: O_2  and  C_3
REMARK    3  A    between atoms: C_7  and  C_8
REMARK    4  A    between atoms: C_8  and  N_9
REMARK    5  A    between atoms: C_21  and  N_22
REMARK    6  A    between atoms: C_23  and  C_25
REMARK    7  A    between atoms: C_31  and  O_32
REMARK    8  A    between atoms: C_33  and  O_34
REMARK                            x       y       z     vdW  Elec       q    Type
REMARK                         _______ _______ _______ _____ _____    ______ ____
ROOT
ATOM      1  N   UNL     1       1.735   8.651  19.126  0.00  0.00    +0.000 NA
ATOM      2  C   UNL     1       2.334   7.968  20.280  0.00  0.00    +0.000 C 
ATOM      3  C   UNL     1       2.457   6.455  20.185  0.00  0.00    +0.000 C 
ATOM      4  C   UNL     1       2.978   5.906  18.835  0.00  0.00    +0.000 C 
ATOM      5  C   UNL     1       2.474   6.750  17.633  0.00  0.00    +0.000 C 
ATOM      6  C   UNL     1       2.378   8.256  17.885  0.00  0.00    +0.000 C 
ATOM      7  C   UNL     1       2.520   4.456  18.649  0.00  0.00    +0.000 A 
ATOM      8  C   UNL     1       1.262   3.919  18.914  0.00  0.00    +0.000 A 
ATOM      9  C   UNL     1       1.006   2.583  18.597  0.00  0.00    +0.000 A 
ATOM     10  C   UNL     1       1.995   1.791  18.008  0.00  0.00    +0.000 A 
ATOM     11  C   UNL     1       3.264   2.319  17.763  0.00  0.00    +0.000 A 
ATOM     12  C   UNL     1       3.518   3.645  18.102  0.00  0.00    +0.000 A 
ATOM     13  C   UNL     1       4.809   4.388  17.905  0.00  0.00    +0.000 C 
ATOM     14  C   UNL     1       4.545   5.709  18.729  0.00  0.00    +0.000 C 
ENDROOT
BRANCH  13  15
ATOM     15  N   UNL     1       5.074   4.543  16.484  0.00  0.00    +0.000 N 
ATOM     16  C   UNL     1       6.358   4.553  15.999  0.00  0.00    +0.000 C 
ATOM     17  O   UNL     1       7.348   4.628  16.715  0.00  0.00    +0.000 OA
ATOM     18  H   UNL     1       4.299   4.506  15.841  0.00  0.00    +0.000 HD
BRANCH  16  19
ATOM     19  C   UNL     1       6.536   4.483  14.530  0.00  0.00    +0.000 A 
ATOM     20  C   UNL     1       7.564   5.240  13.951  0.00  0.00    +0.000 A 
ATOM     21  C   UNL     1       7.799   5.168  12.582  0.00  0.00    +0.000 A 
ATOM     22  C   UNL     1       7.053   4.312  11.783  0.00  0.00    +0.000 A 
ATOM     23  C   UNL     1       6.036   3.546  12.356  0.00  0.00    +0.000 A 
ATOM     24  C   UNL     1       5.772   3.630  13.727  0.00  0.00    +0.000 A 
ENDBRANCH  16  19
ENDBRANCH  13  15
BRANCH  14  25
ATOM     25  O   UNL     1       5.151   5.595  20.030  0.00  0.00    +0.000 OA
ATOM     26  H   UNL     1       4.976   4.701  20.370  0.00  0.00    +0.000 HD
ENDBRANCH  14  25
BRANCH   1  27
ATOM     27  C   UNL     1       0.269   8.828  19.109  0.00  0.00    +0.000 C 
BRANCH  27  32
ATOM     28  C   UNL     1      -0.787  12.002  21.003  0.00  0.00    +0.000 A 
ATOM     29  C   UNL     1      -1.339  12.783  19.997  0.00  0.00    +0.000 A 
ATOM     30  C   UNL     1      -1.283  12.338  18.672  0.00  0.00    +0.000 A 
ATOM     31  C   UNL     1      -0.797  11.049  18.373  0.00  0.00    +0.000 A 
ATOM     32  C   UNL     1      -0.185  10.272  19.371  0.00  0.00    +0.000 A 
ATOM     33  C   UNL     1      -0.045  10.887  20.621  0.00  0.00    +0.000 A 
BRANCH  28  35
ATOM     34  C   UNL     1      -1.947  11.765  23.049  0.00  0.00    +0.000 C 
ATOM     35  O   UNL     1      -0.913  12.424  22.298  0.00  0.00    +0.000 OA
ENDBRANCH  28  35
BRANCH  33  36
ATOM     36  O   UNL     1       0.996  10.532  21.442  0.00  0.00    +0.000 OA
ATOM     37  H   UNL     1       0.825   9.598  21.682  0.00  0.00    +0.000 HD
ENDBRANCH  33  36
ENDBRANCH  27  32
ENDBRANCH   1  27
TORSDOF 7
ENDMDL
MODEL 3
REMARK VINA RESULT:      -8.6      1.127      1.485
REMARK  Name = 
REMARK  8 active torsions:
REMARK  status: ('A' for Active; 'I' for Inactive)
REMARK    1  A    between atoms: C_1  and  O_2
REMARK    2  A    between atoms: O_2  and  C_3
REMARK    3  A    between atoms: C_7  and  C_8
REMARK    4  A    between atoms: C_8  and  N_9
REMARK    5  A    between atoms: C_21  and  N_22
REMARK    6  A    between atoms: C_23  and  C_25
REMARK    7  A    between atoms: C_31  and  O_32
REMARK    8  A    between atoms: C_33  and  O_34
REMARK                            x       y       z     vdW  Elec       q    Type
REMARK                         _______ _______ _______ _____ _____    ______ ____
ROOT
ATOM      1  N   UNL     1       1.708   8.745  18.983  0.00  0.00    +0.000 NA
ATOM      2  C   UNL     1       2.297   8.087  20.156  0.00  0.00    +0.000 C 
ATOM      3  C   UNL     1       2.430   6.573  20.090  0.00  0.00    +0.000 C 
ATOM      4  C   UNL     1       2.969   6.002  18.756  0.00  0.00    +0.000 C 
ATOM      5  C   UNL     1       2.474   6.821  17.533  0.00  0.00    +0.000 C 
ATOM      6  C   UNL     1       2.367   8.331  17.757  0.00  0.00    +0.000 C 
ATOM      7  C   UNL     1       2.522   4.547  18.591  0.00  0.00    +0.000 A 
ATOM      8  C   UNL     1       1.263   4.007  18.851  0.00  0.00    +0.000 A 
ATOM      9  C   UNL     1       1.018   2.664  18.556  0.00  0.00    +0.000 A 
ATOM     10  C   UNL     1       2.019   1.868  17.993  0.00  0.00    +0.000 A 
ATOM     11  C   UNL     1       3.288   2.399  17.753  0.00  0.00    +0.000 A 
ATOM     12  C   UNL     1       3.530   3.732  18.071  0.00  0.00    +0.000 A 
ATOM     13  C   UNL     1       4.819   4.479  17.875  0.00  0.00    +0.000 C 
ATOM     14  C   UNL     1       4.538   5.813  18.672  0.00  0.00    +0.000 C 
ENDROOT
BRANCH  13  15
ATOM     15  N   UNL     1       5.099   4.610  16.455  0.00  0.00    +0.000 N 
ATOM     16  C   UNL     1       6.386   4.553  15.977  0.00  0.00    +0.000 C 
ATOM     17  O   UNL     1       7.373   4.585  16.699  0.00  0.00    +0.000 OA
ATOM     18  H   UNL     1       4.327   4.605  15.806  0.00  0.00    +0.000 HD
BRANCH  16  19
ATOM     19  C   UNL     1       6.568   4.463  14.509  0.00  0.00    +0.000 A 
ATOM     20  C   UNL     1       7.575   5.239  13.919  0.00  0.00    +0.000 A 
ATOM     21  C   UNL     1       7.815   5.150  12.553  0.00  0.00    +0.000 A 
ATOM     22  C   UNL     1       7.095   4.259  11.767  0.00  0.00    +0.000 A 
ATOM     23  C   UNL     1       6.100   3.476  12.352  0.00  0.00    +0.000 A 
ATOM     24  C   UNL     1       5.830   3.575  13.721  0.00  0.00    +0.000 A 
ENDBRANCH  16  19
ENDBRANCH  13  15
BRANCH  14  25
ATOM     25  O   UNL     1       5.130   5.726  19.981  0.00  0.00    +0.000 OA
ATOM     26  H   UNL     1       4.984   6.574  20.437  0.00  0.00    +0.000 HD
ENDBRANCH  14  25
BRANCH   1  27
ATOM     27  C   UNL     1       0.241   8.914  18.946  0.00  0.00    +0.000 C 
BRANCH  27  32
ATOM     28  C   UNL     1      -0.574  12.646  19.366  0.00  0.00    +0.000 A 
ATOM     29  C   UNL     1      -0.796  12.754  20.732  0.00  0.00    +0.000 A 
ATOM     30  C   UNL     1      -0.788  11.600  21.523  0.00  0.00    +0.000 A 
ATOM     31  C   UNL     1      -0.423  10.358  20.967  0.00  0.00    +0.000 A 
ATOM     32  C   UNL     1      -0.250  10.224  19.578  0.00  0.00    +0.000 A 
ATOM     33  C   UNL     1      -0.526  11.367  18.818  0.00  0.00    +0.000 A 
BRANCH  28  35
ATOM     34  C   UNL     1       0.606  14.643  18.908  0.00  0.00    +0.000 C 
ATOM     35  O   UNL     1      -0.519  13.794  18.623  0.00  0.00    +0.000 OA
ENDBRANCH  28  35
BRANCH  33  36
ATOM     36  O   UNL     1      -0.975  11.235  17.527  0.00  0.00    +0.000 OA
ATOM     37  H   UNL     1      -1.641  10.518  17.562  0.00  0.00    +0.000 HD
ENDBRANCH  33  36
ENDBRANCH  27  32
ENDBRANCH   1  27
TORSDOF 7
ENDMDL
MODEL 4
REMARK VINA RESULT:      -8.5      2.373     10.443
REMARK  Name = 
REMARK  8 active torsions:
REMARK  status: ('A' for Active; 'I' for Inactive)
REMARK    1  A    between atoms: C_1  and  O_2
REMARK    2  A    between atoms: O_2  and  C_3
REMARK    3  A    between atoms: C_7  and  C_8
REMARK    4  A    between atoms: C_8  and  N_9
REMARK    5  A    between atoms: C_21  and  N_22
REMARK    6  A    between atoms: C_23  and  C_25
REMARK    7  A    between atoms: C_31  and  O_32
REMARK    8  A    between atoms: C_33  and  O_34
REMARK                            x       y       z     vdW  Elec       q    Type
REMARK                         _______ _______ _______ _____ _____    ______ ____
ROOT
ATOM      1  N   UNL     1       2.235   7.512  19.617  0.00  0.00    +0.000 NA
ATOM      2  C   UNL     1       2.564   8.229  18.378  0.00  0.00    +0.000 C 
ATOM      3  C   UNL     1       1.465   9.097  17.784  0.00  0.00    +0.000 C 
ATOM      4  C   UNL     1       0.684   9.977  18.789  0.00  0.00    +0.000 C 
ATOM      5  C   UNL     1       0.497   9.267  20.157  0.00  0.00    +0.000 C 
ATOM      6  C   UNL     1       1.678   8.407  20.615  0.00  0.00    +0.000 C 
ATOM      7  C   UNL     1      -0.694  10.325  18.219  0.00  0.00    +0.000 A 
ATOM      8  C   UNL     1      -1.581   9.478  17.558  0.00  0.00    +0.000 A 
ATOM      9  C   UNL     1      -2.839   9.957  17.184  0.00  0.00    +0.000 A 
ATOM     10  C   UNL     1      -3.213  11.270  17.479  0.00  0.00    +0.000 A 
ATOM     11  C   UNL     1      -2.318  12.129  18.121  0.00  0.00    +0.000 A 
ATOM     12  C   UNL     1      -1.059  11.650  18.470  0.00  0.00    +0.000 A 
ATOM     13  C   UNL     1       0.027  12.415  19.171  0.00  0.00    +0.000 C 
ATOM     14  C   UNL     1       1.256  11.435  19.018  0.00  0.00    +0.000 C 
ENDROOT
BRANCH  13  15
ATOM     15  N   UNL     1      -0.393  12.733  20.526  0.00  0.00    +0.000 N 
ATOM     16  C   UNL     1      -0.969  13.944  20.824  0.00  0.00    +0.000 C 
ATOM     17  O   UNL     1      -0.991  14.888  20.046  0.00  0.00    +0.000 OA
ATOM     18  H   UNL     1      -0.385  12.003  21.220  0.00  0.00    +0.000 HD
BRANCH  16  19
ATOM     19  C   UNL     1      -1.576  14.102  22.166  0.00  0.00    +0.000 A 
ATOM     20  C   UNL     1      -0.804  14.698  23.174  0.00  0.00    +0.000 A 
ATOM     21  C   UNL     1      -1.350  14.911  24.435  0.00  0.00    +0.000 A 
ATOM     22  C   UNL     1      -2.674  14.583  24.697  0.00  0.00    +0.000 A 
ATOM     23  C   UNL     1      -3.449  14.001  23.693  0.00  0.00    +0.000 A 
ATOM     24  C   UNL     1      -2.905  13.757  22.427  0.00  0.00    +0.000 A 
ENDBRANCH  16  19
ENDBRANCH  13  15
BRANCH  14  25
ATOM     25  O   UNL     1       2.077  11.859  17.914  0.00  0.00    +0.000 OA
ATOM     26  H   UNL     1       1.964  11.220  17.189  0.00  0.00    +0.000 HD
ENDBRANCH  14  25
BRANCH   1  27
ATOM     27  C   UNL     1       1.640   6.165  19.501  0.00  0.00    +0.000 C 
BRANCH  27  32
ATOM     28  C   UNL     1       4.720   4.565  17.850  0.00  0.00    +0.000 A 
ATOM     29  C   UNL     1       4.153   3.613  17.014  0.00  0.00    +0.000 A 
ATOM     30  C   UNL     1       2.771   3.403  17.049  0.00  0.00    +0.000 A 
ATOM     31  C   UNL     1       1.943   4.241  17.823  0.00  0.00    +0.000 A 
ATOM     32  C   UNL     1       2.506   5.170  18.714  0.00  0.00    +0.000 A 
ATOM     33  C   UNL     1       3.902   5.147  18.814  0.00  0.00    +0.000 A 
BRANCH  28  35
ATOM     34  C   UNL     1       6.650   4.425  16.492  0.00  0.00    +0.000 C 
ATOM     35  O   UNL     1       6.065   4.801  17.750  0.00  0.00    +0.000 OA
ENDBRANCH  28  35
BRANCH  33  36
ATOM     36  O   UNL     1       4.507   5.517  19.990  0.00  0.00    +0.000 OA
ATOM     37  H   UNL     1       4.440   4.730  20.570  0.00  0.00    +0.000 HD
ENDBRANCH  33  36
ENDBRANCH  27  32
ENDBRANCH   1  27
TORSDOF 7
ENDMDL
MODEL 5
REMARK VINA RESULT:      -8.5      1.554      1.911
REMARK  Name = 
REMARK  8 active torsions:
REMARK  status: ('A' for Active; 'I' for Inactive)
REMARK    1  A    between atoms: C_1  and  O_2
REMARK    2  A    between atoms: O_2  and  C_3
REMARK    3  A    between atoms: C_7  and  C_8
REMARK    4  A    between atoms: C_8  and  N_9
REMARK    5  A    between atoms: C_21  and  N_22
REMARK    6  A    between atoms: C_23  and  C_25
REMARK    7  A    between atoms: C_31  and  O_32
REMARK    8  A    between atoms: C_33  and  O_34
REMARK                            x       y       z     vdW  Elec       q    Type
REMARK                         _______ _______ _______ _____ _____    ______ ____
ROOT
ATOM      1  N   UNL     1       1.875   8.714  18.869  0.00  0.00    +0.000 NA
ATOM      2  C   UNL     1       2.419   8.060  20.067  0.00  0.00    +0.000 C 
ATOM      3  C   UNL     1       2.489   6.541  20.038  0.00  0.00    +0.000 C 
ATOM      4  C   UNL     1       3.023   5.916  18.727  0.00  0.00    +0.000 C 
ATOM      5  C   UNL     1       2.580   6.725  17.478  0.00  0.00    +0.000 C 
ATOM      6  C   UNL     1       2.533   8.243  17.664  0.00  0.00    +0.000 C 
ATOM      7  C   UNL     1       2.517   4.477  18.590  0.00  0.00    +0.000 A 
ATOM      8  C   UNL     1       1.234   3.996  18.844  0.00  0.00    +0.000 A 
ATOM      9  C   UNL     1       0.937   2.658  18.577  0.00  0.00    +0.000 A 
ATOM     10  C   UNL     1       1.911   1.808  18.048  0.00  0.00    +0.000 A 
ATOM     11  C   UNL     1       3.205   2.279  17.815  0.00  0.00    +0.000 A 
ATOM     12  C   UNL     1       3.498   3.608  18.105  0.00  0.00    +0.000 A 
ATOM     13  C   UNL     1       4.820   4.296  17.911  0.00  0.00    +0.000 C 
ATOM     14  C   UNL     1       4.584   5.659  18.672  0.00  0.00    +0.000 C 
ENDROOT
BRANCH  13  15
ATOM     15  N   UNL     1       5.126   4.380  16.492  0.00  0.00    +0.000 N 
ATOM     16  C   UNL     1       6.402   4.636  16.056  0.00  0.00    +0.000 C 
ATOM     17  O   UNL     1       7.307   4.996  16.797  0.00  0.00    +0.000 OA
ATOM     18  H   UNL     1       4.417   4.112  15.828  0.00  0.00    +0.000 HD
BRANCH  16  19
ATOM     19  C   UNL     1       6.676   4.479  14.608  0.00  0.00    +0.000 A 
ATOM     20  C   UNL     1       5.881   3.582  13.879  0.00  0.00    +0.000 A 
ATOM     21  C   UNL     1       6.069   3.439  12.509  0.00  0.00    +0.000 A 
ATOM     22  C   UNL     1       7.009   4.212  11.840  0.00  0.00    +0.000 A 
ATOM     23  C   UNL     1       7.794   5.114  12.560  0.00  0.00    +0.000 A 
ATOM     24  C   UNL     1       7.634   5.250  13.943  0.00  0.00    +0.000 A 
ENDBRANCH  16  19
ENDBRANCH  13  15
BRANCH  14  25
ATOM     25  O   UNL     1       5.153   5.580  19.992  0.00  0.00    +0.000 OA
ATOM     26  H   UNL     1       4.606   4.976  20.523  0.00  0.00    +0.000 HD
ENDBRANCH  14  25
BRANCH   1  27
ATOM     27  C   UNL     1       0.417   8.942  18.806  0.00  0.00    +0.000 C 
BRANCH  27  32
ATOM     28  C   UNL     1       0.702  12.729  19.398  0.00  0.00    +0.000 A 
ATOM     29  C   UNL     1      -0.598  13.080  19.734  0.00  0.00    +0.000 A 
ATOM     30  C   UNL     1      -1.608  12.114  19.672  0.00  0.00    +0.000 A 
ATOM     31  C   UNL     1      -1.291  10.768  19.406  0.00  0.00    +0.000 A 
ATOM     32  C   UNL     1       0.009  10.408  19.010  0.00  0.00    +0.000 A 
ATOM     33  C   UNL     1       0.909  11.468  18.845  0.00  0.00    +0.000 A 
BRANCH  28  35
ATOM     34  C   UNL     1       2.209  13.811  20.863  0.00  0.00    +0.000 C 
ATOM     35  O   UNL     1       1.686  13.671  19.532  0.00  0.00    +0.000 OA
ENDBRANCH  28  35
BRANCH  33  36
ATOM     36  O   UNL     1       1.935  11.355  17.940  0.00  0.00    +0.000 OA
ATOM     37  H   UNL     1       2.212  12.276  17.753  0.00  0.00    +0.000 HD
ENDBRANCH  33  36
ENDBRANCH  27  32
ENDBRANCH   1  27
TORSDOF 7
ENDMDL
MODEL 6
REMARK VINA RESULT:      -8.5      3.832     10.363
REMARK  Name = 
REMARK  8 active torsions:
REMARK  status: ('A' for Active; 'I' for Inactive)
REMARK    1  A    between atoms: C_1  and  O_2
REMARK    2  A    between atoms: O_2  and  C_3
REMARK    3  A    between atoms: C_7  and  C_8
REMARK    4  A    between atoms: C_8  and  N_9
REMARK    5  A    between atoms: C_21  and  N_22
REMARK    6  A    between atoms: C_23  and  C_25
REMARK    7  A    between atoms: C_31  and  O_32
REMARK    8  A    between atoms: C_33  and  O_34
REMARK                            x       y       z     vdW  Elec       q    Type
REMARK                         _______ _______ _______ _____ _____    ______ ____
ROOT
ATOM      1  N   UNL     1       2.216   7.415  19.258  0.00  0.00    +0.000 NA
ATOM      2  C   UNL     1       2.630   8.343  18.198  0.00  0.00    +0.000 C 
ATOM      3  C   UNL     1       1.555   9.268  17.648  0.00  0.00    +0.000 C 
ATOM      4  C   UNL     1       0.641   9.939  18.700  0.00  0.00    +0.000 C 
ATOM      5  C   UNL     1       0.355   8.999  19.903  0.00  0.00    +0.000 C 
ATOM      6  C   UNL     1       1.524   8.108  20.330  0.00  0.00    +0.000 C 
ATOM      7  C   UNL     1      -0.691  10.339  18.057  0.00  0.00    +0.000 A 
ATOM      8  C   UNL     1      -1.469   9.592  17.174  0.00  0.00    +0.000 A 
ATOM      9  C   UNL     1      -2.705  10.092  16.758  0.00  0.00    +0.000 A 
ATOM     10  C   UNL     1      -3.167  11.323  17.230  0.00  0.00    +0.000 A 
ATOM     11  C   UNL     1      -2.380  12.085  18.095  0.00  0.00    +0.000 A 
ATOM     12  C   UNL     1      -1.140  11.590  18.487  0.00  0.00    +0.000 A 
ATOM     13  C   UNL     1      -0.163  12.255  19.416  0.00  0.00    +0.000 C 
ATOM     14  C   UNL     1       1.119  11.352  19.229  0.00  0.00    +0.000 C 
ENDROOT
BRANCH  13  15
ATOM     15  N   UNL     1      -0.728  12.323  20.754  0.00  0.00    +0.000 N 
ATOM     16  C   UNL     1      -1.269  13.489  21.236  0.00  0.00    +0.000 C 
ATOM     17  O   UNL     1      -1.147  14.570  20.677  0.00  0.00    +0.000 OA
ATOM     18  H   UNL     1      -0.842  11.469  21.276  0.00  0.00    +0.000 HD
BRANCH  16  19
ATOM     19  C   UNL     1      -2.026  13.418  22.509  0.00  0.00    +0.000 A 
ATOM     20  C   UNL     1      -1.899  14.482  23.413  0.00  0.00    +0.000 A 
ATOM     21  C   UNL     1      -2.628  14.481  24.597  0.00  0.00    +0.000 A 
ATOM     22  C   UNL     1      -3.523  13.456  24.875  0.00  0.00    +0.000 A 
ATOM     23  C   UNL     1      -3.661  12.401  23.972  0.00  0.00    +0.000 A 
ATOM     24  C   UNL     1      -2.914  12.376  22.789  0.00  0.00    +0.000 A 
ENDBRANCH  16  19
ENDBRANCH  13  15
BRANCH  14  25
ATOM     25  O   UNL     1       2.023  11.984  18.303  0.00  0.00    +0.000 OA
ATOM     26  H   UNL     1       2.933  11.783  18.583  0.00  0.00    +0.000 HD
ENDBRANCH  14  25
BRANCH   1  27
ATOM     27  C   UNL     1       1.699   6.091  18.857  0.00  0.00    +0.000 C 
BRANCH  27  32
ATOM     28  C   UNL     1       3.732   3.154  20.277  0.00  0.00    +0.000 A 
ATOM     29  C   UNL     1       2.861   2.608  21.209  0.00  0.00    +0.000 A 
ATOM     30  C   UNL     1       1.642   3.244  21.467  0.00  0.00    +0.000 A 
ATOM     31  C   UNL     1       1.239   4.351  20.693  0.00  0.00    +0.000 A 
ATOM     32  C   UNL     1       2.131   4.947  19.786  0.00  0.00    +0.000 A 
ATOM     33  C   UNL     1       3.425   4.413  19.766  0.00  0.00    +0.000 A 
BRANCH  28  35
ATOM     34  C   UNL     1       5.190   1.397  20.889  0.00  0.00    +0.000 C 
ATOM     35  O   UNL     1       4.887   2.478  19.991  0.00  0.00    +0.000 OA
ENDBRANCH  28  35
BRANCH  33  36
ATOM     36  O   UNL     1       4.488   5.214  19.429  0.00  0.00    +0.000 OA
ATOM     37  H   UNL     1       4.819   4.854  18.579  0.00  0.00    +0.000 HD
ENDBRANCH  33  36
ENDBRANCH  27  32
ENDBRANCH   1  27
TORSDOF 7
ENDMDL
MODEL 7
REMARK VINA RESULT:      -8.5      1.504      1.937
REMARK  Name = 
REMARK  8 active torsions:
REMARK  status: ('A' for Active; 'I' for Inactive)
REMARK    1  A    between atoms: C_1  and  O_2
REMARK    2  A    between atoms: O_2  and  C_3
REMARK    3  A    between atoms: C_7  and  C_8
REMARK    4  A    between atoms: C_8  and  N_9
REMARK    5  A    between atoms: C_21  and  N_22
REMARK    6  A    between atoms: C_23  and  C_25
REMARK    7  A    between atoms: C_31  and  O_32
REMARK    8  A    between atoms: C_33  and  O_34
REMARK                            x       y       z     vdW  Elec       q    Type
REMARK                         _______ _______ _______ _____ _____    ______ ____
ROOT
ATOM      1  N   UNL     1       1.641   8.598  19.125  0.00  0.00    +0.000 NA
ATOM      2  C   UNL     1       2.261   7.944  20.285  0.00  0.00    +0.000 C 
ATOM      3  C   UNL     1       2.419   6.433  20.207  0.00  0.00    +0.000 C 
ATOM      4  C   UNL     1       2.946   5.879  18.862  0.00  0.00    +0.000 C 
ATOM      5  C   UNL     1       2.416   6.696  17.652  0.00  0.00    +0.000 C 
ATOM      6  C   UNL     1       2.286   8.202  17.886  0.00  0.00    +0.000 C 
ATOM      7  C   UNL     1       2.522   4.416  18.695  0.00  0.00    +0.000 A 
ATOM      8  C   UNL     1       1.277   3.853  18.974  0.00  0.00    +0.000 A 
ATOM      9  C   UNL     1       1.051   2.508  18.675  0.00  0.00    +0.000 A 
ATOM     10  C   UNL     1       2.055   1.733  18.090  0.00  0.00    +0.000 A 
ATOM     11  C   UNL     1       3.311   2.287  17.832  0.00  0.00    +0.000 A 
ATOM     12  C   UNL     1       3.535   3.623  18.154  0.00  0.00    +0.000 A 
ATOM     13  C   UNL     1       4.807   4.393  17.941  0.00  0.00    +0.000 C 
ATOM     14  C   UNL     1       4.517   5.717  18.750  0.00  0.00    +0.000 C 
ENDROOT
BRANCH  13  15
ATOM     15  N   UNL     1       5.061   4.537  16.517  0.00  0.00    +0.000 N 
ATOM     16  C   UNL     1       6.342   4.536  16.021  0.00  0.00    +0.000 C 
ATOM     17  O   UNL     1       7.338   4.610  16.728  0.00  0.00    +0.000 OA
ATOM     18  H   UNL     1       4.282   4.499  15.880  0.00  0.00    +0.000 HD
BRANCH  16  19
ATOM     19  C   UNL     1       6.507   4.454  14.551  0.00  0.00    +0.000 A 
ATOM     20  C   UNL     1       7.518   5.223  13.956  0.00  0.00    +0.000 A 
ATOM     21  C   UNL     1       7.741   5.141  12.586  0.00  0.00    +0.000 A 
ATOM     22  C   UNL     1       7.002   4.265  11.801  0.00  0.00    +0.000 A 
ATOM     23  C   UNL     1       6.004   3.489  12.392  0.00  0.00    +0.000 A 
ATOM     24  C   UNL     1       5.750   3.581  13.764  0.00  0.00    +0.000 A 
ENDBRANCH  16  19
ENDBRANCH  13  15
BRANCH  14  25
ATOM     25  O   UNL     1       5.132   5.634  20.049  0.00  0.00    +0.000 OA
ATOM     26  H   UNL     1       4.810   6.379  20.586  0.00  0.00    +0.000 HD
ENDBRANCH  14  25
BRANCH   1  27
ATOM     27  C   UNL     1       0.171   8.741  19.114  0.00  0.00    +0.000 C 
BRANCH  27  32
ATOM     28  C   UNL     1      -0.436  12.536  19.167  0.00  0.00    +0.000 A 
ATOM     29  C   UNL     1      -1.424  12.696  18.206  0.00  0.00    +0.000 A 
ATOM     30  C   UNL     1      -1.836  11.592  17.452  0.00  0.00    +0.000 A 
ATOM     31  C   UNL     1      -1.354  10.303  17.755  0.00  0.00    +0.000 A 
ATOM     32  C   UNL     1      -0.314  10.133  18.685  0.00  0.00    +0.000 A 
ATOM     33  C   UNL     1       0.226  11.312  19.215  0.00  0.00    +0.000 A 
BRANCH  28  35
ATOM     34  C   UNL     1       0.639  14.639  19.252  0.00  0.00    +0.000 C 
ATOM     35  O   UNL     1      -0.098  13.614  19.939  0.00  0.00    +0.000 OA
ENDBRANCH  28  35
BRANCH  33  36
ATOM     36  O   UNL     1       1.540  11.340  19.615  0.00  0.00    +0.000 OA
ATOM     37  H   UNL     1       2.059  11.268  18.787  0.00  0.00    +0.000 HD
ENDBRANCH  33  36
ENDBRANCH  27  32
ENDBRANCH   1  27
TORSDOF 7
ENDMDL
MODEL 8
REMARK VINA RESULT:      -8.3      1.841      2.532
REMARK  Name = 
REMARK  8 active torsions:
REMARK  status: ('A' for Active; 'I' for Inactive)
REMARK    1  A    between atoms: C_1  and  O_2
REMARK    2  A    between atoms: O_2  and  C_3
REMARK    3  A    between atoms: C_7  and  C_8
REMARK    4  A    between atoms: C_8  and  N_9
REMARK    5  A    between atoms: C_21  and  N_22
REMARK    6  A    between atoms: C_23  and  C_25
REMARK    7  A    between atoms: C_31  and  O_32
REMARK    8  A    between atoms: C_33  and  O_34
REMARK                            x       y       z     vdW  Elec       q    Type
REMARK                         _______ _______ _______ _____ _____    ______ ____
ROOT
ATOM      1  N   UNL     1       1.708   8.576  19.119  0.00  0.00    +0.000 NA
ATOM      2  C   UNL     1       2.333   7.920  20.275  0.00  0.00    +0.000 C 
ATOM      3  C   UNL     1       2.489   6.409  20.196  0.00  0.00    +0.000 C 
ATOM      4  C   UNL     1       3.008   5.855  18.847  0.00  0.00    +0.000 C 
ATOM      5  C   UNL     1       2.473   6.674  17.641  0.00  0.00    +0.000 C 
ATOM      6  C   UNL     1       2.346   8.180  17.876  0.00  0.00    +0.000 C 
ATOM      7  C   UNL     1       2.580   4.393  18.682  0.00  0.00    +0.000 A 
ATOM      8  C   UNL     1       1.337   3.832  18.966  0.00  0.00    +0.000 A 
ATOM      9  C   UNL     1       1.107   2.487  18.667  0.00  0.00    +0.000 A 
ATOM     10  C   UNL     1       2.108   1.711  18.077  0.00  0.00    +0.000 A 
ATOM     11  C   UNL     1       3.363   2.264  17.813  0.00  0.00    +0.000 A 
ATOM     12  C   UNL     1       3.590   3.599  18.135  0.00  0.00    +0.000 A 
ATOM     13  C   UNL     1       4.863   4.368  17.916  0.00  0.00    +0.000 C 
ATOM     14  C   UNL     1       4.578   5.691  18.728  0.00  0.00    +0.000 C 
ENDROOT
BRANCH  13  15
ATOM     15  N   UNL     1       5.109   4.512  16.491  0.00  0.00    +0.000 N 
ATOM     16  C   UNL     1       6.389   4.566  15.995  0.00  0.00    +0.000 C 
ATOM     17  O   UNL     1       7.380   4.692  16.701  0.00  0.00    +0.000 OA
ATOM     18  H   UNL     1       4.332   4.434  15.854  0.00  0.00    +0.000 HD
BRANCH  16  19
ATOM     19  C   UNL     1       6.557   4.481  14.525  0.00  0.00    +0.000 A 
ATOM     20  C   UNL     1       7.588   5.227  13.933  0.00  0.00    +0.000 A 
ATOM     21  C   UNL     1       7.814   5.139  12.564  0.00  0.00    +0.000 A 
ATOM     22  C   UNL     1       7.058   4.281  11.777  0.00  0.00    +0.000 A 
ATOM     23  C   UNL     1       6.039   3.529  12.363  0.00  0.00    +0.000 A 
ATOM     24  C   UNL     1       5.783   3.626  13.735  0.00  0.00    +0.000 A 
ENDBRANCH  16  19
ENDBRANCH  13  15
BRANCH  14  25
ATOM     25  O   UNL     1       5.199   5.607  20.023  0.00  0.00    +0.000 OA
ATOM     26  H   UNL     1       5.027   4.720  20.386  0.00  0.00    +0.000 HD
ENDBRANCH  14  25
BRANCH   1  27
ATOM     27  C   UNL     1       0.238   8.720  19.115  0.00  0.00    +0.000 C 
BRANCH  27  32
ATOM     28  C   UNL     1      -1.798  11.602  17.590  0.00  0.00    +0.000 A 
ATOM     29  C   UNL     1      -1.020  12.712  17.891  0.00  0.00    +0.000 A 
ATOM     30  C   UNL     1       0.123  12.557  18.683  0.00  0.00    +0.000 A 
ATOM     31  C   UNL     1       0.560  11.271  19.058  0.00  0.00    +0.000 A 
ATOM     32  C   UNL     1      -0.245  10.146  18.809  0.00  0.00    +0.000 A 
ATOM     33  C   UNL     1      -1.497  10.408  18.240  0.00  0.00    +0.000 A 
BRANCH  28  35
ATOM     34  C   UNL     1      -2.842  10.959  15.570  0.00  0.00    +0.000 C 
ATOM     35  O   UNL     1      -2.872  11.766  16.759  0.00  0.00    +0.000 OA
ENDBRANCH  28  35
BRANCH  33  36
ATOM     36  O   UNL     1      -2.551   9.565  18.494  0.00  0.00    +0.000 OA
ATOM     37  H   UNL     1      -3.248   9.830  17.858  0.00  0.00    +0.000 HD
ENDBRANCH  33  36
ENDBRANCH  27  32
ENDBRANCH   1  27
TORSDOF 7
ENDMDL
MODEL 9
REMARK VINA RESULT:      -8.2      2.889     10.707
REMARK  Name = 
REMARK  8 active torsions:
REMARK  status: ('A' for Active; 'I' for Inactive)
REMARK    1  A    between atoms: C_1  and  O_2
REMARK    2  A    between atoms: O_2  and  C_3
REMARK    3  A    between atoms: C_7  and  C_8
REMARK    4  A    between atoms: C_8  and  N_9
REMARK    5  A    between atoms: C_21  and  N_22
REMARK    6  A    between atoms: C_23  and  C_25
REMARK    7  A    between atoms: C_31  and  O_32
REMARK    8  A    between atoms: C_33  and  O_34
REMARK                            x       y       z     vdW  Elec       q    Type
REMARK                         _______ _______ _______ _____ _____    ______ ____
ROOT
ATOM      1  N   UNL     1       2.156   7.853  19.427  0.00  0.00    +0.000 NA
ATOM      2  C   UNL     1       2.435   8.726  18.279  0.00  0.00    +0.000 C 
ATOM      3  C   UNL     1       1.254   9.503  17.715  0.00  0.00    +0.000 C 
ATOM      4  C   UNL     1       0.328  10.171  18.759  0.00  0.00    +0.000 C 
ATOM      5  C   UNL     1       0.184   9.310  20.043  0.00  0.00    +0.000 C 
ATOM      6  C   UNL     1       1.450   8.566  20.476  0.00  0.00    +0.000 C 
ATOM      7  C   UNL     1      -1.063  10.396  18.156  0.00  0.00    +0.000 A 
ATOM      8  C   UNL     1      -1.805   9.514  17.374  0.00  0.00    +0.000 A 
ATOM      9  C   UNL     1      -3.100   9.864  16.985  0.00  0.00    +0.000 A 
ATOM     10  C   UNL     1      -3.655  11.083  17.384  0.00  0.00    +0.000 A 
ATOM     11  C   UNL     1      -2.905  11.981  18.147  0.00  0.00    +0.000 A 
ATOM     12  C   UNL     1      -1.607  11.632  18.512  0.00  0.00    +0.000 A 
ATOM     13  C   UNL     1      -0.658  12.455  19.336  0.00  0.00    +0.000 C 
ATOM     14  C   UNL     1       0.694  11.660  19.153  0.00  0.00    +0.000 C 
ENDROOT
BRANCH  13  15
ATOM     15  N   UNL     1      -1.167  12.581  20.692  0.00  0.00    +0.000 N 
ATOM     16  C   UNL     1      -1.796  13.728  21.110  0.00  0.00    +0.000 C 
ATOM     17  O   UNL     1      -1.803  14.766  20.463  0.00  0.00    +0.000 OA
ATOM     18  H   UNL     1      -1.176  11.765  21.283  0.00  0.00    +0.000 HD
BRANCH  16  19
ATOM     19  C   UNL     1      -2.486  13.691  22.421  0.00  0.00    +0.000 A 
ATOM     20  C   UNL     1      -3.134  12.505  22.794  0.00  0.00    +0.000 A 
ATOM     21  C   UNL     1      -3.751  12.409  24.037  0.00  0.00    +0.000 A 
ATOM     22  C   UNL     1      -3.693  13.464  24.938  0.00  0.00    +0.000 A 
ATOM     23  C   UNL     1      -3.038  14.643  24.574  0.00  0.00    +0.000 A 
ATOM     24  C   UNL     1      -2.435  14.762  23.318  0.00  0.00    +0.000 A 
ENDBRANCH  16  19
ENDBRANCH  13  15
BRANCH  14  25
ATOM     25  O   UNL     1       1.493  12.293  18.136  0.00  0.00    +0.000 OA
ATOM     26  H   UNL     1       1.865  13.112  18.508  0.00  0.00    +0.000 HD
ENDBRANCH  14  25
BRANCH   1  27
ATOM     27  C   UNL     1       1.749   6.460  19.155  0.00  0.00    +0.000 C 
BRANCH  27  32
ATOM     28  C   UNL     1       3.528   3.481  17.502  0.00  0.00    +0.000 A 
ATOM     29  C   UNL     1       4.761   4.018  17.161  0.00  0.00    +0.000 A 
ATOM     30  C   UNL     1       4.998   5.382  17.367  0.00  0.00    +0.000 A 
ATOM     31  C   UNL     1       4.047   6.176  18.039  0.00  0.00    +0.000 A 
ATOM     32  C   UNL     1       2.775   5.660  18.339  0.00  0.00    +0.000 A 
ATOM     33  C   UNL     1       2.519   4.364  17.874  0.00  0.00    +0.000 A 
BRANCH  28  35
ATOM     34  C   UNL     1       3.589   1.359  18.542  0.00  0.00    +0.000 C 
ATOM     35  O   UNL     1       3.343   2.132  17.356  0.00  0.00    +0.000 OA
ENDBRANCH  28  35
BRANCH  33  36
ATOM     36  O   UNL     1       1.234   3.994  17.563  0.00  0.00    +0.000 OA
ATOM     37  H   UNL     1       0.663   4.561  18.122  0.00  0.00    +0.000 HD
ENDBRANCH  33  36
ENDBRANCH  27  32
ENDBRANCH   1  27
TORSDOF 7
ENDMDL
