MODEL 1
REMARK VINA RESULT:      -6.8      0.000      0.000
REMARK  Name = 
REMARK  11 active torsions:
REMARK  status: ('A' for Active; 'I' for Inactive)
REMARK    1  A    between atoms: C_1  and  O_2
REMARK    2  A    between atoms: O_2  and  C_3
REMARK    3  A    between atoms: C_6  and  C_7
REMARK    4  A    between atoms: C_8  and  C_9
REMARK    5  A    between atoms: C_8  and  C_11
REMARK    6  A    between atoms: C_14  and  O_15
REMARK    7  A    between atoms: O_15  and  C_16
REMARK    8  A    between atoms: C_17  and  O_18
REMARK    9  A    between atoms: O_18  and  C_19
REMARK   10  A    between atoms: C_22  and  O_23
REMARK   11  A    between atoms: O_23  and  C_24
REMARK                            x       y       z     vdW  Elec       q    Type
REMARK                         _______ _______ _______ _____ _____    ______ ____
ROOT
ATOM      1  C   UNL     1       1.884   6.774  20.126  0.00  0.00    +0.000 C 
ATOM      2  C   UNL     1       1.601   8.060  19.803  0.00  0.00    +0.000 C 
ENDROOT
BRANCH   1   6
ATOM      3  C   UNL     1       4.192   4.066  17.696  0.00  0.00    +0.000 A 
ATOM      4  C   UNL     1       2.829   4.283  17.434  0.00  0.00    +0.000 A 
ATOM      5  C   UNL     1       2.067   5.162  18.217  0.00  0.00    +0.000 A 
ATOM      6  C   UNL     1       2.651   5.829  19.293  0.00  0.00    +0.000 A 
ATOM      7  C   UNL     1       3.998   5.568  19.586  0.00  0.00    +0.000 A 
ATOM      8  C   UNL     1       4.771   4.677  18.817  0.00  0.00    +0.000 A 
BRANCH   3  10
ATOM      9  C   UNL     1       5.734   3.872  15.900  0.00  0.00    +0.000 C 
ATOM     10  O   UNL     1       4.952   3.239  16.910  0.00  0.00    +0.000 OA
ENDBRANCH   3  10
BRANCH   8  11
ATOM     11  O   UNL     1       6.045   4.550  19.305  0.00  0.00    +0.000 OA
ATOM     12  C   UNL     1       6.972   5.614  19.139  0.00  0.00    +0.000 C 
ENDBRANCH   8  11
ENDBRANCH   1   6
BRANCH   2  13
ATOM     13  C   UNL     1       0.930   8.978  20.748  0.00  0.00    +0.000 A 
ATOM     14  C   UNL     1       0.231   8.489  21.852  0.00  0.00    +0.000 A 
ATOM     15  C   UNL     1      -0.427   9.372  22.711  0.00  0.00    +0.000 A 
ATOM     16  C   UNL     1      -0.406  10.758  22.497  0.00  0.00    +0.000 A 
ATOM     17  C   UNL     1       0.285  11.268  21.385  0.00  0.00    +0.000 A 
ATOM     18  C   UNL     1       0.935  10.368  20.525  0.00  0.00    +0.000 A 
BRANCH  16  19
ATOM     19  O   UNL     1      -1.104  11.436  23.460  0.00  0.00    +0.000 OA
ATOM     20  C   UNL     1      -2.414  11.894  23.165  0.00  0.00    +0.000 C 
ENDBRANCH  16  19
BRANCH  17  21
ATOM     21  O   UNL     1       0.286  12.622  21.175  0.00  0.00    +0.000 OA
ATOM     22  C   UNL     1       1.439  13.221  20.596  0.00  0.00    +0.000 C 
ENDBRANCH  17  21
ENDBRANCH   2  13
BRANCH   2  23
ATOM     23  C   UNL     1       2.029   8.546  18.428  0.00  0.00    +0.000 C 
ATOM     24  N   UNL     1       2.383   8.948  17.287  0.00  0.00    +0.000 NA
ENDBRANCH   2  23
TORSDOF 7
ENDMDL
MODEL 2
REMARK VINA RESULT:      -6.7      2.294      8.548
REMARK  Name = 
REMARK  11 active torsions:
REMARK  status: ('A' for Active; 'I' for Inactive)
REMARK    1  A    between atoms: C_1  and  O_2
REMARK    2  A    between atoms: O_2  and  C_3
REMARK    3  A    between atoms: C_6  and  C_7
REMARK    4  A    between atoms: C_8  and  C_9
REMARK    5  A    between atoms: C_8  and  C_11
REMARK    6  A    between atoms: C_14  and  O_15
REMARK    7  A    between atoms: O_15  and  C_16
REMARK    8  A    between atoms: C_17  and  O_18
REMARK    9  A    between atoms: O_18  and  C_19
REMARK   10  A    between atoms: C_22  and  O_23
REMARK   11  A    between atoms: O_23  and  C_24
REMARK                            x       y       z     vdW  Elec       q    Type
REMARK                         _______ _______ _______ _____ _____    ______ ____
ROOT
ATOM      1  C   UNL     1       2.041   8.704  17.690  0.00  0.00    +0.000 C 
ATOM      2  C   UNL     1       2.517   7.730  18.503  0.00  0.00    +0.000 C 
ENDROOT
BRANCH   1   6
ATOM      3  C   UNL     1      -0.765  11.750  18.879  0.00  0.00    +0.000 A 
ATOM      4  C   UNL     1      -1.203  10.583  18.231  0.00  0.00    +0.000 A 
ATOM      5  C   UNL     1      -0.300   9.584  17.839  0.00  0.00    +0.000 A 
ATOM      6  C   UNL     1       1.066   9.742  18.072  0.00  0.00    +0.000 A 
ATOM      7  C   UNL     1       1.506  10.933  18.669  0.00  0.00    +0.000 A 
ATOM      8  C   UNL     1       0.611  11.951  19.056  0.00  0.00    +0.000 A 
BRANCH   3  10
ATOM      9  C   UNL     1      -2.110  12.597  20.645  0.00  0.00    +0.000 C 
ATOM     10  O   UNL     1      -1.647  12.711  19.301  0.00  0.00    +0.000 OA
ENDBRANCH   3  10
BRANCH   8  11
ATOM     11  O   UNL     1       1.263  13.033  19.584  0.00  0.00    +0.000 OA
ATOM     12  C   UNL     1       1.565  14.147  18.756  0.00  0.00    +0.000 C 
ENDBRANCH   8  11
ENDBRANCH   1   6
BRANCH   2  13
ATOM     13  C   UNL     1       3.585   6.801  18.077  0.00  0.00    +0.000 A 
ATOM     14  C   UNL     1       4.209   6.943  16.838  0.00  0.00    +0.000 A 
ATOM     15  C   UNL     1       5.190   6.032  16.439  0.00  0.00    +0.000 A 
ATOM     16  C   UNL     1       5.575   4.962  17.260  0.00  0.00    +0.000 A 
ATOM     17  C   UNL     1       4.951   4.798  18.508  0.00  0.00    +0.000 A 
ATOM     18  C   UNL     1       3.961   5.716  18.892  0.00  0.00    +0.000 A 
BRANCH  16  19
ATOM     19  O   UNL     1       6.555   4.200  16.681  0.00  0.00    +0.000 OA
ATOM     20  C   UNL     1       7.025   4.549  15.390  0.00  0.00    +0.000 C 
ENDBRANCH  16  19
BRANCH  17  21
ATOM     21  O   UNL     1       5.322   3.739  19.294  0.00  0.00    +0.000 OA
ATOM     22  C   UNL     1       4.333   2.786  19.665  0.00  0.00    +0.000 C 
ENDBRANCH  17  21
ENDBRANCH   2  13
BRANCH   2  23
ATOM     23  C   UNL     1       1.928   7.639  19.902  0.00  0.00    +0.000 C 
ATOM     24  N   UNL     1       1.441   7.565  21.062  0.00  0.00    +0.000 NA
ENDBRANCH   2  23
TORSDOF 7
ENDMDL
MODEL 3
REMARK VINA RESULT:      -6.6      2.371      8.586
REMARK  Name = 
REMARK  11 active torsions:
REMARK  status: ('A' for Active; 'I' for Inactive)
REMARK    1  A    between atoms: C_1  and  O_2
REMARK    2  A    between atoms: O_2  and  C_3
REMARK    3  A    between atoms: C_6  and  C_7
REMARK    4  A    between atoms: C_8  and  C_9
REMARK    5  A    between atoms: C_8  and  C_11
REMARK    6  A    between atoms: C_14  and  O_15
REMARK    7  A    between atoms: O_15  and  C_16
REMARK    8  A    between atoms: C_17  and  O_18
REMARK    9  A    between atoms: O_18  and  C_19
REMARK   10  A    between atoms: C_22  and  O_23
REMARK   11  A    between atoms: O_23  and  C_24
REMARK                            x       y       z     vdW  Elec       q    Type
REMARK                         _______ _______ _______ _____ _____    ______ ____
ROOT
ATOM      1  C   UNL     1       1.907   8.733  17.639  0.00  0.00    +0.000 C 
ATOM      2  C   UNL     1       2.368   7.727  18.422  0.00  0.00    +0.000 C 
ENDROOT
BRANCH   1   6
ATOM      3  C   UNL     1      -0.464  12.050  19.032  0.00  0.00    +0.000 A 
ATOM      4  C   UNL     1      -1.076  10.885  18.543  0.00  0.00    +0.000 A 
ATOM      5  C   UNL     1      -0.316   9.798  18.087  0.00  0.00    +0.000 A 
ATOM      6  C   UNL     1       1.077   9.863  18.094  0.00  0.00    +0.000 A 
ATOM      7  C   UNL     1       1.685  11.050  18.531  0.00  0.00    +0.000 A 
ATOM      8  C   UNL     1       0.933  12.154  18.978  0.00  0.00    +0.000 A 
BRANCH   3  10
ATOM      9  C   UNL     1      -2.384  12.761  20.237  0.00  0.00    +0.000 C 
ATOM     10  O   UNL     1      -1.200  13.099  19.516  0.00  0.00    +0.000 OA
ENDBRANCH   3  10
BRANCH   8  11
ATOM     11  O   UNL     1       1.732  13.213  19.322  0.00  0.00    +0.000 OA
ATOM     12  C   UNL     1       2.231  13.316  20.649  0.00  0.00    +0.000 C 
ENDBRANCH   8  11
ENDBRANCH   1   6
BRANCH   2  13
ATOM     13  C   UNL     1       3.296   6.696  17.912  0.00  0.00    +0.000 A 
ATOM     14  C   UNL     1       4.373   7.038  17.093  0.00  0.00    +0.000 A 
ATOM     15  C   UNL     1       5.215   6.043  16.592  0.00  0.00    +0.000 A 
ATOM     16  C   UNL     1       5.011   4.688  16.891  0.00  0.00    +0.000 A 
ATOM     17  C   UNL     1       3.927   4.324  17.707  0.00  0.00    +0.000 A 
ATOM     18  C   UNL     1       3.083   5.333  18.197  0.00  0.00    +0.000 A 
BRANCH  16  19
ATOM     19  O   UNL     1       5.955   3.886  16.307  0.00  0.00    +0.000 OA
ATOM     20  C   UNL     1       6.162   3.977  14.906  0.00  0.00    +0.000 C 
ENDBRANCH  16  19
BRANCH  17  21
ATOM     21  O   UNL     1       3.726   2.996  17.980  0.00  0.00    +0.000 OA
ATOM     22  C   UNL     1       2.454   2.427  17.696  0.00  0.00    +0.000 C 
ENDBRANCH  17  21
ENDBRANCH   2  13
BRANCH   2  23
ATOM     23  C   UNL     1       1.919   7.710  19.874  0.00  0.00    +0.000 C 
ATOM     24  N   UNL     1       1.545   7.695  21.078  0.00  0.00    +0.000 NA
ENDBRANCH   2  23
TORSDOF 7
ENDMDL
MODEL 4
REMARK VINA RESULT:      -6.6      2.558      8.754
REMARK  Name = 
REMARK  11 active torsions:
REMARK  status: ('A' for Active; 'I' for Inactive)
REMARK    1  A    between atoms: C_1  and  O_2
REMARK    2  A    between atoms: O_2  and  C_3
REMARK    3  A    between atoms: C_6  and  C_7
REMARK    4  A    between atoms: C_8  and  C_9
REMARK    5  A    between atoms: C_8  and  C_11
REMARK    6  A    between atoms: C_14  and  O_15
REMARK    7  A    between atoms: O_15  and  C_16
REMARK    8  A    between atoms: C_17  and  O_18
REMARK    9  A    between atoms: O_18  and  C_19
REMARK   10  A    between atoms: C_22  and  O_23
REMARK   11  A    between atoms: O_23  and  C_24
REMARK                            x       y       z     vdW  Elec       q    Type
REMARK                         _______ _______ _______ _____ _____    ______ ____
ROOT
ATOM      1  C   UNL     1       1.858   8.890  17.688  0.00  0.00    +0.000 C 
ATOM      2  C   UNL     1       2.230   7.856  18.480  0.00  0.00    +0.000 C 
ENDROOT
BRANCH   1   6
ATOM      3  C   UNL     1      -0.237  12.441  18.938  0.00  0.00    +0.000 A 
ATOM      4  C   UNL     1       1.166  12.393  18.952  0.00  0.00    +0.000 A 
ATOM      5  C   UNL     1       1.860  11.243  18.547  0.00  0.00    +0.000 A 
ATOM      6  C   UNL     1       1.161  10.109  18.137  0.00  0.00    +0.000 A 
ATOM      7  C   UNL     1      -0.241  10.141  18.177  0.00  0.00    +0.000 A 
ATOM      8  C   UNL     1      -0.951  11.284  18.594  0.00  0.00    +0.000 A 
BRANCH   3  10
ATOM      9  C   UNL     1      -0.257  14.814  19.052  0.00  0.00    +0.000 C 
ATOM     10  O   UNL     1      -0.921  13.575  19.293  0.00  0.00    +0.000 OA
ENDBRANCH   3  10
BRANCH   8  11
ATOM     11  O   UNL     1      -2.306  11.078  18.587  0.00  0.00    +0.000 OA
ATOM     12  C   UNL     1      -3.029  11.200  17.370  0.00  0.00    +0.000 C 
ENDBRANCH   8  11
ENDBRANCH   1   6
BRANCH   2  13
ATOM     13  C   UNL     1       3.034   6.724  17.971  0.00  0.00    +0.000 A 
ATOM     14  C   UNL     1       4.298   6.931  17.419  0.00  0.00    +0.000 A 
ATOM     15  C   UNL     1       5.024   5.852  16.910  0.00  0.00    +0.000 A 
ATOM     16  C   UNL     1       4.517   4.545  16.939  0.00  0.00    +0.000 A 
ATOM     17  C   UNL     1       3.242   4.319  17.484  0.00  0.00    +0.000 A 
ATOM     18  C   UNL     1       2.518   5.413  17.984  0.00  0.00    +0.000 A 
BRANCH  16  19
ATOM     19  O   UNL     1       5.394   3.642  16.399  0.00  0.00    +0.000 OA
ATOM     20  C   UNL     1       5.956   3.908  15.125  0.00  0.00    +0.000 C 
ENDBRANCH  16  19
BRANCH  17  21
ATOM     21  O   UNL     1       2.747   3.041  17.492  0.00  0.00    +0.000 OA
ATOM     22  C   UNL     1       1.656   2.738  18.353  0.00  0.00    +0.000 C 
ENDBRANCH  17  21
ENDBRANCH   2  13
BRANCH   2  23
ATOM     23  C   UNL     1       1.812   7.909  19.941  0.00  0.00    +0.000 C 
ATOM     24  N   UNL     1       1.465   7.954  21.152  0.00  0.00    +0.000 NA
ENDBRANCH   2  23
TORSDOF 7
ENDMDL
MODEL 5
REMARK VINA RESULT:      -6.5      0.946      1.052
REMARK  Name = 
REMARK  11 active torsions:
REMARK  status: ('A' for Active; 'I' for Inactive)
REMARK    1  A    between atoms: C_1  and  O_2
REMARK    2  A    between atoms: O_2  and  C_3
REMARK    3  A    between atoms: C_6  and  C_7
REMARK    4  A    between atoms: C_8  and  C_9
REMARK    5  A    between atoms: C_8  and  C_11
REMARK    6  A    between atoms: C_14  and  O_15
REMARK    7  A    between atoms: O_15  and  C_16
REMARK    8  A    between atoms: C_17  and  O_18
REMARK    9  A    between atoms: O_18  and  C_19
REMARK   10  A    between atoms: C_22  and  O_23
REMARK   11  A    between atoms: O_23  and  C_24
REMARK                            x       y       z     vdW  Elec       q    Type
REMARK                         _______ _______ _______ _____ _____    ______ ____
ROOT
ATOM      1  C   UNL     1       1.907   6.783  20.053  0.00  0.00    +0.000 C 
ATOM      2  C   UNL     1       1.628   8.064  19.712  0.00  0.00    +0.000 C 
ENDROOT
BRANCH   1   6
ATOM      3  C   UNL     1       4.329   4.080  17.732  0.00  0.00    +0.000 A 
ATOM      4  C   UNL     1       2.961   4.235  17.456  0.00  0.00    +0.000 A 
ATOM      5  C   UNL     1       2.161   5.112  18.204  0.00  0.00    +0.000 A 
ATOM      6  C   UNL     1       2.714   5.839  19.258  0.00  0.00    +0.000 A 
ATOM      7  C   UNL     1       4.068   5.640  19.566  0.00  0.00    +0.000 A 
ATOM      8  C   UNL     1       4.879   4.752  18.832  0.00  0.00    +0.000 A 
BRANCH   3  10
ATOM      9  C   UNL     1       5.774   3.855  15.860  0.00  0.00    +0.000 C 
ATOM     10  O   UNL     1       5.125   3.256  16.979  0.00  0.00    +0.000 OA
ENDBRANCH   3  10
BRANCH   8  11
ATOM     11  O   UNL     1       6.154   4.692  19.330  0.00  0.00    +0.000 OA
ATOM     12  C   UNL     1       7.120   5.644  18.908  0.00  0.00    +0.000 C 
ENDBRANCH   8  11
ENDBRANCH   1   6
BRANCH   2  13
ATOM     13  C   UNL     1       0.912   8.982  20.623  0.00  0.00    +0.000 A 
ATOM     14  C   UNL     1       1.044   8.871  22.007  0.00  0.00    +0.000 A 
ATOM     15  C   UNL     1       0.329   9.725  22.850  0.00  0.00    +0.000 A 
ATOM     16  C   UNL     1      -0.529  10.709  22.342  0.00  0.00    +0.000 A 
ATOM     17  C   UNL     1      -0.683  10.831  20.950  0.00  0.00    +0.000 A 
ATOM     18  C   UNL     1       0.035   9.961  20.115  0.00  0.00    +0.000 A 
BRANCH  16  19
ATOM     19  O   UNL     1      -1.121  11.439  23.339  0.00  0.00    +0.000 OA
ATOM     20  C   UNL     1      -1.242  12.843  23.182  0.00  0.00    +0.000 C 
ENDBRANCH  16  19
BRANCH  17  21
ATOM     21  O   UNL     1      -1.537  11.785  20.464  0.00  0.00    +0.000 OA
ATOM     22  C   UNL     1      -1.873  11.757  19.082  0.00  0.00    +0.000 C 
ENDBRANCH  17  21
ENDBRANCH   2  13
BRANCH   2  23
ATOM     23  C   UNL     1       2.107   8.546  18.352  0.00  0.00    +0.000 C 
ATOM     24  N   UNL     1       2.505   8.945  17.225  0.00  0.00    +0.000 NA
ENDBRANCH   2  23
TORSDOF 7
ENDMDL
MODEL 6
REMARK VINA RESULT:      -6.5      2.596      8.689
REMARK  Name = 
REMARK  11 active torsions:
REMARK  status: ('A' for Active; 'I' for Inactive)
REMARK    1  A    between atoms: C_1  and  O_2
REMARK    2  A    between atoms: O_2  and  C_3
REMARK    3  A    between atoms: C_6  and  C_7
REMARK    4  A    between atoms: C_8  and  C_9
REMARK    5  A    between atoms: C_8  and  C_11
REMARK    6  A    between atoms: C_14  and  O_15
REMARK    7  A    between atoms: O_15  and  C_16
REMARK    8  A    between atoms: C_17  and  O_18
REMARK    9  A    between atoms: O_18  and  C_19
REMARK   10  A    between atoms: C_22  and  O_23
REMARK   11  A    between atoms: O_23  and  C_24
REMARK                            x       y       z     vdW  Elec       q    Type
REMARK                         _______ _______ _______ _____ _____    ______ ____
ROOT
ATOM      1  C   UNL     1       1.999   8.642  17.767  0.00  0.00    +0.000 C 
ATOM      2  C   UNL     1       2.497   7.668  18.567  0.00  0.00    +0.000 C 
ENDROOT
BRANCH   1   6
ATOM      3  C   UNL     1      -1.008  11.544  18.813  0.00  0.00    +0.000 A 
ATOM      4  C   UNL     1       0.235  11.530  19.467  0.00  0.00    +0.000 A 
ATOM      5  C   UNL     1       1.223  10.591  19.135  0.00  0.00    +0.000 A 
ATOM      6  C   UNL     1       0.977   9.632  18.153  0.00  0.00    +0.000 A 
ATOM      7  C   UNL     1      -0.285   9.613  17.542  0.00  0.00    +0.000 A 
ATOM      8  C   UNL     1      -1.291  10.542  17.875  0.00  0.00    +0.000 A 
BRANCH   3  10
ATOM      9  C   UNL     1      -2.342  12.595  20.474  0.00  0.00    +0.000 C 
ATOM     10  O   UNL     1      -1.962  12.485  19.104  0.00  0.00    +0.000 OA
ENDBRANCH   3  10
BRANCH   8  11
ATOM     11  O   UNL     1      -2.449  10.314  17.179  0.00  0.00    +0.000 OA
ATOM     12  C   UNL     1      -3.500   9.576  17.786  0.00  0.00    +0.000 C 
ENDBRANCH   8  11
ENDBRANCH   1   6
BRANCH   2  13
ATOM     13  C   UNL     1       3.608   6.791  18.140  0.00  0.00    +0.000 A 
ATOM     14  C   UNL     1       4.281   7.015  16.939  0.00  0.00    +0.000 A 
ATOM     15  C   UNL     1       5.303   6.152  16.537  0.00  0.00    +0.000 A 
ATOM     16  C   UNL     1       5.683   5.051  17.317  0.00  0.00    +0.000 A 
ATOM     17  C   UNL     1       5.012   4.804  18.527  0.00  0.00    +0.000 A 
ATOM     18  C   UNL     1       3.980   5.675  18.914  0.00  0.00    +0.000 A 
BRANCH  16  19
ATOM     19  O   UNL     1       6.709   4.346  16.744  0.00  0.00    +0.000 OA
ATOM     20  C   UNL     1       6.794   4.285  15.330  0.00  0.00    +0.000 C 
ENDBRANCH  16  19
BRANCH  17  21
ATOM     21  O   UNL     1       5.379   3.716  19.273  0.00  0.00    +0.000 OA
ATOM     22  C   UNL     1       4.377   2.780  19.653  0.00  0.00    +0.000 C 
ENDBRANCH  17  21
ENDBRANCH   2  13
BRANCH   2  23
ATOM     23  C   UNL     1       1.887   7.522  19.952  0.00  0.00    +0.000 C 
ATOM     24  N   UNL     1       1.381   7.401  21.100  0.00  0.00    +0.000 NA
ENDBRANCH   2  23
TORSDOF 7
ENDMDL
MODEL 7
REMARK VINA RESULT:      -6.5      2.122      8.437
REMARK  Name = 
REMARK  11 active torsions:
REMARK  status: ('A' for Active; 'I' for Inactive)
REMARK    1  A    between atoms: C_1  and  O_2
REMARK    2  A    between atoms: O_2  and  C_3
REMARK    3  A    between atoms: C_6  and  C_7
REMARK    4  A    between atoms: C_8  and  C_9
REMARK    5  A    between atoms: C_8  and  C_11
REMARK    6  A    between atoms: C_14  and  O_15
REMARK    7  A    between atoms: O_15  and  C_16
REMARK    8  A    between atoms: C_17  and  O_18
REMARK    9  A    between atoms: O_18  and  C_19
REMARK   10  A    between atoms: C_22  and  O_23
REMARK   11  A    between atoms: O_23  and  C_24
REMARK                            x       y       z     vdW  Elec       q    Type
REMARK                         _______ _______ _______ _____ _____    ______ ____
ROOT
ATOM      1  C   UNL     1       2.430   7.785  18.864  0.00  0.00    +0.000 C 
ATOM      2  C   UNL     1       2.675   6.452  18.846  0.00  0.00    +0.000 C 
ENDROOT
BRANCH   1   6
ATOM      3  C   UNL     1      -0.207   9.884  21.547  0.00  0.00    +0.000 A 
ATOM      4  C   UNL     1       0.736   8.967  22.039  0.00  0.00    +0.000 A 
ATOM      5  C   UNL     1       1.600   8.277  21.176  0.00  0.00    +0.000 A 
ATOM      6  C   UNL     1       1.525   8.479  19.798  0.00  0.00    +0.000 A 
ATOM      7  C   UNL     1       0.545   9.354  19.306  0.00  0.00    +0.000 A 
ATOM      8  C   UNL     1      -0.339  10.043  20.161  0.00  0.00    +0.000 A 
BRANCH   3  10
ATOM      9  C   UNL     1      -0.759  11.987  22.505  0.00  0.00    +0.000 C 
ATOM     10  O   UNL     1      -1.027  10.592  22.388  0.00  0.00    +0.000 OA
ENDBRANCH   3  10
BRANCH   8  11
ATOM     11  O   UNL     1      -1.232  10.813  19.462  0.00  0.00    +0.000 OA
ATOM     12  C   UNL     1      -1.795  10.318  18.256  0.00  0.00    +0.000 C 
ENDBRANCH   8  11
ENDBRANCH   1   6
BRANCH   2  13
ATOM     13  C   UNL     1       3.690   5.851  17.954  0.00  0.00    +0.000 A 
ATOM     14  C   UNL     1       3.526   4.565  17.441  0.00  0.00    +0.000 A 
ATOM     15  C   UNL     1       4.514   4.002  16.631  0.00  0.00    +0.000 A 
ATOM     16  C   UNL     1       5.686   4.702  16.309  0.00  0.00    +0.000 A 
ATOM     17  C   UNL     1       5.874   5.996  16.824  0.00  0.00    +0.000 A 
ATOM     18  C   UNL     1       4.875   6.546  17.644  0.00  0.00    +0.000 A 
BRANCH  16  19
ATOM     19  O   UNL     1       6.513   3.971  15.498  0.00  0.00    +0.000 OA
ATOM     20  C   UNL     1       6.312   4.014  14.094  0.00  0.00    +0.000 C 
ENDBRANCH  16  19
BRANCH  17  21
ATOM     21  O   UNL     1       7.029   6.665  16.517  0.00  0.00    +0.000 OA
ATOM     22  C   UNL     1       7.602   7.521  17.499  0.00  0.00    +0.000 C 
ENDBRANCH  17  21
ENDBRANCH   2  13
BRANCH   2  23
ATOM     23  C   UNL     1       1.882   5.583  19.808  0.00  0.00    +0.000 C 
ATOM     24  N   UNL     1       1.224   4.862  20.606  0.00  0.00    +0.000 NA
ENDBRANCH   2  23
TORSDOF 7
ENDMDL
MODEL 8
REMARK VINA RESULT:      -6.5      2.025      2.267
REMARK  Name = 
REMARK  11 active torsions:
REMARK  status: ('A' for Active; 'I' for Inactive)
REMARK    1  A    between atoms: C_1  and  O_2
REMARK    2  A    between atoms: O_2  and  C_3
REMARK    3  A    between atoms: C_6  and  C_7
REMARK    4  A    between atoms: C_8  and  C_9
REMARK    5  A    between atoms: C_8  and  C_11
REMARK    6  A    between atoms: C_14  and  O_15
REMARK    7  A    between atoms: O_15  and  C_16
REMARK    8  A    between atoms: C_17  and  O_18
REMARK    9  A    between atoms: O_18  and  C_19
REMARK   10  A    between atoms: C_22  and  O_23
REMARK   11  A    between atoms: O_23  and  C_24
REMARK                            x       y       z     vdW  Elec       q    Type
REMARK                         _______ _______ _______ _____ _____    ______ ____
ROOT
ATOM      1  C   UNL     1       3.000   7.552  18.367  0.00  0.00    +0.000 C 
ATOM      2  C   UNL     1       2.272   7.371  19.496  0.00  0.00    +0.000 C 
ENDROOT
BRANCH   1   6
ATOM      3  C   UNL     1       5.447   4.613  16.382  0.00  0.00    +0.000 A 
ATOM      4  C   UNL     1       4.128   4.314  16.757  0.00  0.00    +0.000 A 
ATOM      5  C   UNL     1       3.320   5.261  17.403  0.00  0.00    +0.000 A 
ATOM      6  C   UNL     1       3.826   6.526  17.705  0.00  0.00    +0.000 A 
ATOM      7  C   UNL     1       5.162   6.802  17.379  0.00  0.00    +0.000 A 
ATOM      8  C   UNL     1       5.989   5.855  16.742  0.00  0.00    +0.000 A 
BRANCH   3  10
ATOM      9  C   UNL     1       6.285   3.845  14.296  0.00  0.00    +0.000 C 
ATOM     10  O   UNL     1       6.228   3.706  15.714  0.00  0.00    +0.000 OA
ENDBRANCH   3  10
BRANCH   8  11
ATOM     11  O   UNL     1       7.260   6.329  16.553  0.00  0.00    +0.000 OA
ATOM     12  C   UNL     1       7.740   7.397  17.358  0.00  0.00    +0.000 C 
ENDBRANCH   8  11
ENDBRANCH   1   6
BRANCH   2  13
ATOM     13  C   UNL     1       1.374   8.418  20.027  0.00  0.00    +0.000 A 
ATOM     14  C   UNL     1       0.853   8.332  21.319  0.00  0.00    +0.000 A 
ATOM     15  C   UNL     1      -0.023   9.313  21.787  0.00  0.00    +0.000 A 
ATOM     16  C   UNL     1      -0.402  10.402  20.989  0.00  0.00    +0.000 A 
ATOM     17  C   UNL     1       0.105  10.501  19.683  0.00  0.00    +0.000 A 
ATOM     18  C   UNL     1       0.978   9.503  19.221  0.00  0.00    +0.000 A 
BRANCH  16  19
ATOM     19  O   UNL     1      -1.258  11.246  21.646  0.00  0.00    +0.000 OA
ATOM     20  C   UNL     1      -1.327  11.190  23.061  0.00  0.00    +0.000 C 
ENDBRANCH  16  19
BRANCH  17  21
ATOM     21  O   UNL     1      -0.284  11.560  18.905  0.00  0.00    +0.000 OA
ATOM     22  C   UNL     1       0.499  12.747  18.929  0.00  0.00    +0.000 C 
ENDBRANCH  17  21
ENDBRANCH   2  13
BRANCH   2  23
ATOM     23  C   UNL     1       2.387   6.026  20.194  0.00  0.00    +0.000 C 
ATOM     24  N   UNL     1       2.482   4.911  20.773  0.00  0.00    +0.000 NA
ENDBRANCH   2  23
TORSDOF 7
ENDMDL
MODEL 9
REMARK VINA RESULT:      -6.4      2.591      8.591
REMARK  Name = 
REMARK  11 active torsions:
REMARK  status: ('A' for Active; 'I' for Inactive)
REMARK    1  A    between atoms: C_1  and  O_2
REMARK    2  A    between atoms: O_2  and  C_3
REMARK    3  A    between atoms: C_6  and  C_7
REMARK    4  A    between atoms: C_8  and  C_9
REMARK    5  A    between atoms: C_8  and  C_11
REMARK    6  A    between atoms: C_14  and  O_15
REMARK    7  A    between atoms: O_15  and  C_16
REMARK    8  A    between atoms: C_17  and  O_18
REMARK    9  A    between atoms: O_18  and  C_19
REMARK   10  A    between atoms: C_22  and  O_23
REMARK   11  A    between atoms: O_23  and  C_24
REMARK                            x       y       z     vdW  Elec       q    Type
REMARK                         _______ _______ _______ _____ _____    ______ ____
ROOT
ATOM      1  C   UNL     1       1.689   8.882  17.740  0.00  0.00    +0.000 C 
ATOM      2  C   UNL     1       2.199   7.873  18.486  0.00  0.00    +0.000 C 
ENDROOT
BRANCH   1   6
ATOM      3  C   UNL     1      -0.876  12.058  19.120  0.00  0.00    +0.000 A 
ATOM      4  C   UNL     1       0.458  11.973  19.551  0.00  0.00    +0.000 A 
ATOM      5  C   UNL     1       1.303  10.944  19.109  0.00  0.00    +0.000 A 
ATOM      6  C   UNL     1       0.823   9.967  18.238  0.00  0.00    +0.000 A 
ATOM      7  C   UNL     1      -0.525  10.023  17.853  0.00  0.00    +0.000 A 
ATOM      8  C   UNL     1      -1.389  11.042  18.300  0.00  0.00    +0.000 A 
BRANCH   3  10
ATOM      9  C   UNL     1      -1.047  14.277  19.949  0.00  0.00    +0.000 C 
ATOM     10  O   UNL     1      -1.695  13.083  19.516  0.00  0.00    +0.000 OA
ENDBRANCH   3  10
BRANCH   8  11
ATOM     11  O   UNL     1      -2.664  10.878  17.827  0.00  0.00    +0.000 OA
ATOM     12  C   UNL     1      -3.173   9.569  17.617  0.00  0.00    +0.000 C 
ENDBRANCH   8  11
ENDBRANCH   1   6
BRANCH   2  13
ATOM     13  C   UNL     1       3.158   6.893  17.933  0.00  0.00    +0.000 A 
ATOM     14  C   UNL     1       2.858   5.531  17.903  0.00  0.00    +0.000 A 
ATOM     15  C   UNL     1       3.794   4.619  17.410  0.00  0.00    +0.000 A 
ATOM     16  C   UNL     1       5.046   5.035  16.935  0.00  0.00    +0.000 A 
ATOM     17  C   UNL     1       5.370   6.402  16.966  0.00  0.00    +0.000 A 
ATOM     18  C   UNL     1       4.423   7.307  17.472  0.00  0.00    +0.000 A 
BRANCH  16  19
ATOM     19  O   UNL     1       5.801   3.983  16.491  0.00  0.00    +0.000 OA
ATOM     20  C   UNL     1       5.965   3.796  15.095  0.00  0.00    +0.000 C 
ENDBRANCH  16  19
BRANCH  17  21
ATOM     21  O   UNL     1       6.602   6.797  16.516  0.00  0.00    +0.000 OA
ATOM     22  C   UNL     1       7.572   7.218  17.467  0.00  0.00    +0.000 C 
ENDBRANCH  17  21
ENDBRANCH   2  13
BRANCH   2  23
ATOM     23  C   UNL     1       1.771   7.796  19.943  0.00  0.00    +0.000 C 
ATOM     24  N   UNL     1       1.415   7.731  21.150  0.00  0.00    +0.000 NA
ENDBRANCH   2  23
TORSDOF 7
ENDMDL
