MODEL 1
REMARK VINA RESULT:      -7.8      0.000      0.000
REMARK  Name = 
REMARK  8 active torsions:
REMARK  status: ('A' for Active; 'I' for Inactive)
REMARK    1  A    between atoms: C_1  and  N_2
REMARK    2  A    between atoms: C_3  and  C_5
REMARK    3  A    between atoms: C_7  and  C_8
REMARK    4  A    between atoms: C_8  and  O_9
REMARK    5  A    between atoms: C_8  and  O_10
REMARK    6  A    between atoms: C_12  and  N_13
REMARK    7  A    between atoms: C_17  and  N_18
REMARK    8  A    between atoms: C_19  and  C_20
REMARK                            x       y       z     vdW  Elec       q    Type
REMARK                         _______ _______ _______ _____ _____    ______ ____
ROOT
ATOM      1  C   UNL     1       3.420   4.702  17.473  0.00  0.00    +0.000 C 
ATOM      2  O   UNL     1       4.195   3.918  16.539  0.00  0.00    +0.000 OA
ATOM      3  C   UNL     1       5.494   4.340  16.354  0.00  0.00    +0.000 C 
ATOM      4  C   UNL     1       6.146   5.096  17.253  0.00  0.00    +0.000 C 
ATOM      5  C   UNL     1       5.555   5.554  18.552  0.00  0.00    +0.000 C 
ATOM      6  C   UNL     1       4.158   4.937  18.814  0.00  0.00    +0.000 C 
ENDROOT
BRANCH   5   7
ATOM      7  N   UNL     1       6.495   5.138  19.599  0.00  0.00    +0.000 NA
ATOM      8  C   UNL     1       7.650   5.676  19.678  0.00  0.00    +0.000 C 
ATOM      9  N   UNL     1       8.210   6.685  18.975  0.00  0.00    +0.000 N 
ATOM     10  N   UNL     1       8.552   5.207  20.570  0.00  0.00    +0.000 N 
ATOM     11  H   UNL     1       7.675   7.047  18.197  0.00  0.00    +0.000 HD
ATOM     12  H   UNL     1       9.168   6.496  18.705  0.00  0.00    +0.000 HD
ATOM     13  H   UNL     1       8.109   4.603  21.254  0.00  0.00    +0.000 HD
ATOM     14  H   UNL     1       9.103   5.934  21.008  0.00  0.00    +0.000 HD
ENDBRANCH   5   7
BRANCH   1  17
ATOM     15  C   UNL     1       1.000   2.059  18.817  0.00  0.00    +0.000 C 
ATOM     16  N   UNL     1       2.166   2.856  18.527  0.00  0.00    +0.000 N 
ATOM     17  C   UNL     1       2.078   3.978  17.728  0.00  0.00    +0.000 C 
ATOM     18  O   UNL     1       1.014   4.317  17.209  0.00  0.00    +0.000 OA
ATOM     19  H   UNL     1       3.013   2.731  19.074  0.00  0.00    +0.000 HD
ENDBRANCH   1  17
BRANCH   6  20
ATOM     20  N   UNL     1       3.367   5.713  19.795  0.00  0.00    +0.000 N 
ATOM     21  C   UNL     1       2.699   6.874  19.479  0.00  0.00    +0.000 C 
ATOM     22  C   UNL     1       1.779   7.358  20.570  0.00  0.00    +0.000 C 
ATOM     23  O   UNL     1       2.805   7.447  18.400  0.00  0.00    +0.000 OA
ATOM     24  H   UNL     1       2.927   5.145  20.513  0.00  0.00    +0.000 HD
ENDBRANCH   6  20
BRANCH   3  25
ATOM     25  C   UNL     1       6.163   3.918  15.053  0.00  0.00    +0.000 C 
BRANCH  25  26
ATOM     26  O   UNL     1       5.331   4.177  13.940  0.00  0.00    +0.000 OA
ATOM     27  H   UNL     1       5.000   5.083  14.037  0.00  0.00    +0.000 HD
ENDBRANCH  25  26
BRANCH  25  28
ATOM     28  O   UNL     1       7.378   4.636  14.920  0.00  0.00    +0.000 OA
ATOM     29  H   UNL     1       8.089   3.977  14.952  0.00  0.00    +0.000 HD
ENDBRANCH  25  28
ENDBRANCH   3  25
TORSDOF 6
ENDMDL
MODEL 2
REMARK VINA RESULT:      -7.4      2.178      5.783
REMARK  Name = 
REMARK  8 active torsions:
REMARK  status: ('A' for Active; 'I' for Inactive)
REMARK    1  A    between atoms: C_1  and  N_2
REMARK    2  A    between atoms: C_3  and  C_5
REMARK    3  A    between atoms: C_7  and  C_8
REMARK    4  A    between atoms: C_8  and  O_9
REMARK    5  A    between atoms: C_8  and  O_10
REMARK    6  A    between atoms: C_12  and  N_13
REMARK    7  A    between atoms: C_17  and  N_18
REMARK    8  A    between atoms: C_19  and  C_20
REMARK                            x       y       z     vdW  Elec       q    Type
REMARK                         _______ _______ _______ _____ _____    ______ ____
ROOT
ATOM      1  C   UNL     1       4.303   5.963  17.546  0.00  0.00    +0.000 C 
ATOM      2  O   UNL     1       3.866   6.072  18.918  0.00  0.00    +0.000 OA
ATOM      3  C   UNL     1       2.690   5.414  19.214  0.00  0.00    +0.000 C 
ATOM      4  C   UNL     1       2.220   4.401  18.468  0.00  0.00    +0.000 C 
ATOM      5  C   UNL     1       2.908   3.861  17.252  0.00  0.00    +0.000 C 
ATOM      6  C   UNL     1       4.302   4.503  17.030  0.00  0.00    +0.000 C 
ENDROOT
BRANCH   5   7
ATOM      7  N   UNL     1       3.046   2.416  17.466  0.00  0.00    +0.000 NA
ATOM      8  C   UNL     1       3.914   1.967  18.288  0.00  0.00    +0.000 C 
ATOM      9  N   UNL     1       4.761   2.608  19.124  0.00  0.00    +0.000 N 
ATOM     10  N   UNL     1       4.115   0.634  18.394  0.00  0.00    +0.000 N 
ATOM     11  H   UNL     1       4.789   3.616  19.056  0.00  0.00    +0.000 HD
ATOM     12  H   UNL     1       5.695   2.214  19.120  0.00  0.00    +0.000 HD
ATOM     13  H   UNL     1       3.365   0.115  17.950  0.00  0.00    +0.000 HD
ATOM     14  H   UNL     1       4.280   0.324  19.342  0.00  0.00    +0.000 HD
ENDBRANCH   5   7
BRANCH   1  17
ATOM     15  C   UNL     1       7.943   6.691  18.476  0.00  0.00    +0.000 C 
ATOM     16  N   UNL     1       6.596   6.179  18.432  0.00  0.00    +0.000 N 
ATOM     17  C   UNL     1       5.724   6.562  17.433  0.00  0.00    +0.000 C 
ATOM     18  O   UNL     1       6.051   7.376  16.569  0.00  0.00    +0.000 OA
ATOM     19  H   UNL     1       6.342   5.374  18.998  0.00  0.00    +0.000 HD
ENDBRANCH   1  17
BRANCH   6  20
ATOM     20  N   UNL     1       4.776   4.368  15.635  0.00  0.00    +0.000 N 
ATOM     21  C   UNL     1       6.071   4.042  15.305  0.00  0.00    +0.000 C 
ATOM     22  C   UNL     1       6.263   3.735  13.842  0.00  0.00    +0.000 C 
ATOM     23  O   UNL     1       6.983   3.968  16.121  0.00  0.00    +0.000 OA
ATOM     24  H   UNL     1       4.068   4.029  14.989  0.00  0.00    +0.000 HD
ENDBRANCH   6  20
BRANCH   3  25
ATOM     25  C   UNL     1       1.928   5.909  20.436  0.00  0.00    +0.000 C 
BRANCH  25  26
ATOM     26  O   UNL     1       2.301   5.193  21.597  0.00  0.00    +0.000 OA
ATOM     27  H   UNL     1       2.579   4.310  21.309  0.00  0.00    +0.000 HD
ENDBRANCH  25  26
BRANCH  25  28
ATOM     28  O   UNL     1       2.210   7.287  20.611  0.00  0.00    +0.000 OA
ATOM     29  H   UNL     1       2.740   7.355  21.421  0.00  0.00    +0.000 HD
ENDBRANCH  25  28
ENDBRANCH   3  25
TORSDOF 6
ENDMDL
MODEL 3
REMARK VINA RESULT:      -7.3      2.430      5.187
REMARK  Name = 
REMARK  8 active torsions:
REMARK  status: ('A' for Active; 'I' for Inactive)
REMARK    1  A    between atoms: C_1  and  N_2
REMARK    2  A    between atoms: C_3  and  C_5
REMARK    3  A    between atoms: C_7  and  C_8
REMARK    4  A    between atoms: C_8  and  O_9
REMARK    5  A    between atoms: C_8  and  O_10
REMARK    6  A    between atoms: C_12  and  N_13
REMARK    7  A    between atoms: C_17  and  N_18
REMARK    8  A    between atoms: C_19  and  C_20
REMARK                            x       y       z     vdW  Elec       q    Type
REMARK                         _______ _______ _______ _____ _____    ______ ____
ROOT
ATOM      1  C   UNL     1       5.440   4.704  16.428  0.00  0.00    +0.000 C 
ATOM      2  O   UNL     1       4.355   3.766  16.256  0.00  0.00    +0.000 OA
ATOM      3  C   UNL     1       3.391   3.795  17.242  0.00  0.00    +0.000 C 
ATOM      4  C   UNL     1       3.198   4.862  18.035  0.00  0.00    +0.000 C 
ATOM      5  C   UNL     1       3.984   6.134  17.939  0.00  0.00    +0.000 C 
ATOM      6  C   UNL     1       4.948   6.141  16.725  0.00  0.00    +0.000 C 
ENDROOT
BRANCH   5   7
ATOM      7  N   UNL     1       3.000   7.215  17.808  0.00  0.00    +0.000 NA
ATOM      8  C   UNL     1       2.358   7.628  18.832  0.00  0.00    +0.000 C 
ATOM      9  N   UNL     1       2.456   7.291  20.137  0.00  0.00    +0.000 N 
ATOM     10  N   UNL     1       1.373   8.542  18.685  0.00  0.00    +0.000 N 
ATOM     11  H   UNL     1       3.082   6.530  20.363  0.00  0.00    +0.000 HD
ATOM     12  H   UNL     1       1.554   7.168  20.582  0.00  0.00    +0.000 HD
ATOM     13  H   UNL     1       1.409   8.975  17.769  0.00  0.00    +0.000 HD
ATOM     14  H   UNL     1       1.344   9.228  19.427  0.00  0.00    +0.000 HD
ENDBRANCH   5   7
BRANCH   1  17
ATOM     15  C   UNL     1       6.499   3.840  12.853  0.00  0.00    +0.000 C 
ATOM     16  N   UNL     1       5.782   3.967  14.097  0.00  0.00    +0.000 N 
ATOM     17  C   UNL     1       6.306   4.695  15.147  0.00  0.00    +0.000 C 
ATOM     18  O   UNL     1       7.413   5.228  15.071  0.00  0.00    +0.000 OA
ATOM     19  H   UNL     1       4.799   3.713  14.143  0.00  0.00    +0.000 HD
ENDBRANCH   1  17
BRANCH   6  20
ATOM     20  N   UNL     1       6.046   7.123  16.875  0.00  0.00    +0.000 N 
ATOM     21  C   UNL     1       7.033   7.013  17.827  0.00  0.00    +0.000 C 
ATOM     22  C   UNL     1       8.164   7.992  17.641  0.00  0.00    +0.000 C 
ATOM     23  O   UNL     1       7.024   6.176  18.723  0.00  0.00    +0.000 OA
ATOM     24  H   UNL     1       6.335   7.556  16.002  0.00  0.00    +0.000 HD
ENDBRANCH   6  20
BRANCH   3  25
ATOM     25  C   UNL     1       2.552   2.535  17.404  0.00  0.00    +0.000 C 
BRANCH  25  26
ATOM     26  O   UNL     1       3.220   1.573  18.196  0.00  0.00    +0.000 OA
ATOM     27  H   UNL     1       3.949   2.029  18.643  0.00  0.00    +0.000 HD
ENDBRANCH  25  26
BRANCH  25  28
ATOM     28  O   UNL     1       1.324   2.891  18.016  0.00  0.00    +0.000 OA
ATOM     29  H   UNL     1       1.411   2.660  18.955  0.00  0.00    +0.000 HD
ENDBRANCH  25  28
ENDBRANCH   3  25
TORSDOF 6
ENDMDL
MODEL 4
REMARK VINA RESULT:      -7.2      2.380      5.064
REMARK  Name = 
REMARK  8 active torsions:
REMARK  status: ('A' for Active; 'I' for Inactive)
REMARK    1  A    between atoms: C_1  and  N_2
REMARK    2  A    between atoms: C_3  and  C_5
REMARK    3  A    between atoms: C_7  and  C_8
REMARK    4  A    between atoms: C_8  and  O_9
REMARK    5  A    between atoms: C_8  and  O_10
REMARK    6  A    between atoms: C_12  and  N_13
REMARK    7  A    between atoms: C_17  and  N_18
REMARK    8  A    between atoms: C_19  and  C_20
REMARK                            x       y       z     vdW  Elec       q    Type
REMARK                         _______ _______ _______ _____ _____    ______ ____
ROOT
ATOM      1  C   UNL     1       5.815   4.369  16.715  0.00  0.00    +0.000 C 
ATOM      2  O   UNL     1       4.856   3.295  16.592  0.00  0.00    +0.000 OA
ATOM      3  C   UNL     1       4.065   3.085  17.701  0.00  0.00    +0.000 C 
ATOM      4  C   UNL     1       3.854   4.032  18.631  0.00  0.00    +0.000 C 
ATOM      5  C   UNL     1       4.432   5.413  18.571  0.00  0.00    +0.000 C 
ATOM      6  C   UNL     1       5.182   5.680  17.242  0.00  0.00    +0.000 C 
ENDROOT
BRANCH   5   7
ATOM      7  N   UNL     1       3.300   6.337  18.707  0.00  0.00    +0.000 NA
ATOM      8  C   UNL     1       2.560   6.300  19.747  0.00  0.00    +0.000 C 
ATOM      9  N   UNL     1       2.653   5.565  20.878  0.00  0.00    +0.000 N 
ATOM     10  N   UNL     1       1.453   7.074  19.813  0.00  0.00    +0.000 N 
ATOM     11  H   UNL     1       3.378   4.861  20.903  0.00  0.00    +0.000 HD
ATOM     12  H   UNL     1       1.763   5.185  21.177  0.00  0.00    +0.000 HD
ATOM     13  H   UNL     1       1.462   7.786  19.092  0.00  0.00    +0.000 HD
ATOM     14  H   UNL     1       1.288   7.466  20.731  0.00  0.00    +0.000 HD
ENDBRANCH   5   7
BRANCH   1  17
ATOM     15  C   UNL     1       6.496   3.920  12.975  0.00  0.00    +0.000 C 
ATOM     16  N   UNL     1       5.960   3.828  14.311  0.00  0.00    +0.000 N 
ATOM     17  C   UNL     1       6.461   4.612  15.331  0.00  0.00    +0.000 C 
ATOM     18  O   UNL     1       7.399   5.387  15.146  0.00  0.00    +0.000 OA
ATOM     19  H   UNL     1       5.076   3.354  14.471  0.00  0.00    +0.000 HD
ENDBRANCH   1  17
BRANCH   6  20
ATOM     20  N   UNL     1       6.144   6.800  17.346  0.00  0.00    +0.000 N 
ATOM     21  C   UNL     1       7.233   6.785  18.187  0.00  0.00    +0.000 C 
ATOM     22  C   UNL     1       8.191   7.925  17.954  0.00  0.00    +0.000 C 
ATOM     23  O   UNL     1       7.435   5.912  19.024  0.00  0.00    +0.000 OA
ATOM     24  H   UNL     1       6.276   7.314  16.479  0.00  0.00    +0.000 HD
ENDBRANCH   6  20
BRANCH   3  25
ATOM     25  C   UNL     1       3.443   1.701  17.836  0.00  0.00    +0.000 C 
BRANCH  25  26
ATOM     26  O   UNL     1       4.292   0.825  18.551  0.00  0.00    +0.000 OA
ATOM     27  H   UNL     1       5.027   1.357  18.891  0.00  0.00    +0.000 HD
ENDBRANCH  25  26
BRANCH  25  28
ATOM     28  O   UNL     1       2.205   1.830  18.514  0.00  0.00    +0.000 OA
ATOM     29  H   UNL     1       1.769   2.610  18.137  0.00  0.00    +0.000 HD
ENDBRANCH  25  28
ENDBRANCH   3  25
TORSDOF 6
ENDMDL
MODEL 5
REMARK VINA RESULT:      -7.2      2.127      5.058
REMARK  Name = 
REMARK  8 active torsions:
REMARK  status: ('A' for Active; 'I' for Inactive)
REMARK    1  A    between atoms: C_1  and  N_2
REMARK    2  A    between atoms: C_3  and  C_5
REMARK    3  A    between atoms: C_7  and  C_8
REMARK    4  A    between atoms: C_8  and  O_9
REMARK    5  A    between atoms: C_8  and  O_10
REMARK    6  A    between atoms: C_12  and  N_13
REMARK    7  A    between atoms: C_17  and  N_18
REMARK    8  A    between atoms: C_19  and  C_20
REMARK                            x       y       z     vdW  Elec       q    Type
REMARK                         _______ _______ _______ _____ _____    ______ ____
ROOT
ATOM      1  C   UNL     1       5.559   4.106  17.280  0.00  0.00    +0.000 C 
ATOM      2  O   UNL     1       4.347   3.427  16.880  0.00  0.00    +0.000 OA
ATOM      3  C   UNL     1       3.333   3.435  17.814  0.00  0.00    +0.000 C 
ATOM      4  C   UNL     1       3.264   4.344  18.801  0.00  0.00    +0.000 C 
ATOM      5  C   UNL     1       4.256   5.451  18.996  0.00  0.00    +0.000 C 
ATOM      6  C   UNL     1       5.293   5.522  17.846  0.00  0.00    +0.000 C 
ENDROOT
BRANCH   5   7
ATOM      7  N   UNL     1       3.478   6.693  19.053  0.00  0.00    +0.000 NA
ATOM      8  C   UNL     1       2.558   6.837  19.926  0.00  0.00    +0.000 C 
ATOM      9  N   UNL     1       2.163   6.037  20.941  0.00  0.00    +0.000 N 
ATOM     10  N   UNL     1       1.770   7.936  19.898  0.00  0.00    +0.000 N 
ATOM     11  H   UNL     1       2.602   5.128  20.998  0.00  0.00    +0.000 HD
ATOM     12  H   UNL     1       1.156   5.963  21.018  0.00  0.00    +0.000 HD
ATOM     13  H   UNL     1       2.162   8.652  19.298  0.00  0.00    +0.000 HD
ATOM     14  H   UNL     1       1.543   8.294  20.817  0.00  0.00    +0.000 HD
ENDBRANCH   5   7
BRANCH   1  17
ATOM     15  C   UNL     1       6.642   4.053  13.610  0.00  0.00    +0.000 C 
ATOM     16  N   UNL     1       5.881   4.034  14.834  0.00  0.00    +0.000 N 
ATOM     17  C   UNL     1       6.501   4.193  16.057  0.00  0.00    +0.000 C 
ATOM     18  O   UNL     1       7.722   4.321  16.148  0.00  0.00    +0.000 OA
ATOM     19  H   UNL     1       4.869   4.122  14.803  0.00  0.00    +0.000 HD
ENDBRANCH   1  17
BRANCH   6  20
ATOM     20  N   UNL     1       6.525   6.244  18.234  0.00  0.00    +0.000 N 
ATOM     21  C   UNL     1       7.020   7.323  17.537  0.00  0.00    +0.000 C 
ATOM     22  C   UNL     1       8.144   8.035  18.245  0.00  0.00    +0.000 C 
ATOM     23  O   UNL     1       6.570   7.702  16.461  0.00  0.00    +0.000 OA
ATOM     24  H   UNL     1       6.695   6.263  19.236  0.00  0.00    +0.000 HD
ENDBRANCH   6  20
BRANCH   3  25
ATOM     25  C   UNL     1       2.287   2.337  17.685  0.00  0.00    +0.000 C 
BRANCH  25  26
ATOM     26  O   UNL     1       2.615   1.218  18.483  0.00  0.00    +0.000 OA
ATOM     27  H   UNL     1       3.027   1.557  19.293  0.00  0.00    +0.000 HD
ENDBRANCH  25  26
BRANCH  25  28
ATOM     28  O   UNL     1       1.034   2.863  18.089  0.00  0.00    +0.000 OA
ATOM     29  H   UNL     1       0.917   2.605  19.017  0.00  0.00    +0.000 HD
ENDBRANCH  25  28
ENDBRANCH   3  25
TORSDOF 6
ENDMDL
MODEL 6
REMARK VINA RESULT:      -7.1      2.230      4.892
REMARK  Name = 
REMARK  8 active torsions:
REMARK  status: ('A' for Active; 'I' for Inactive)
REMARK    1  A    between atoms: C_1  and  N_2
REMARK    2  A    between atoms: C_3  and  C_5
REMARK    3  A    between atoms: C_7  and  C_8
REMARK    4  A    between atoms: C_8  and  O_9
REMARK    5  A    between atoms: C_8  and  O_10
REMARK    6  A    between atoms: C_12  and  N_13
REMARK    7  A    between atoms: C_17  and  N_18
REMARK    8  A    between atoms: C_19  and  C_20
REMARK                            x       y       z     vdW  Elec       q    Type
REMARK                         _______ _______ _______ _____ _____    ______ ____
ROOT
ATOM      1  C   UNL     1       5.896   4.020  17.452  0.00  0.00    +0.000 C 
ATOM      2  O   UNL     1       4.767   3.140  17.262  0.00  0.00    +0.000 OA
ATOM      3  C   UNL     1       3.915   3.035  18.341  0.00  0.00    +0.000 C 
ATOM      4  C   UNL     1       3.845   3.971  19.302  0.00  0.00    +0.000 C 
ATOM      5  C   UNL     1       4.659   5.229  19.312  0.00  0.00    +0.000 C 
ATOM      6  C   UNL     1       5.488   5.404  18.014  0.00  0.00    +0.000 C 
ENDROOT
BRANCH   5   7
ATOM      7  N   UNL     1       3.705   6.334  19.455  0.00  0.00    +0.000 NA
ATOM      8  C   UNL     1       2.746   6.252  20.294  0.00  0.00    +0.000 C 
ATOM      9  N   UNL     1       2.440   5.299  21.203  0.00  0.00    +0.000 N 
ATOM     10  N   UNL     1       1.806   7.222  20.338  0.00  0.00    +0.000 N 
ATOM     11  H   UNL     1       3.006   4.462  21.190  0.00  0.00    +0.000 HD
ATOM     12  H   UNL     1       1.452   5.074  21.224  0.00  0.00    +0.000 HD
ATOM     13  H   UNL     1       2.107   8.047  19.832  0.00  0.00    +0.000 HD
ATOM     14  H   UNL     1       1.499   7.445  21.276  0.00  0.00    +0.000 HD
ENDBRANCH   5   7
BRANCH   1  17
ATOM     15  C   UNL     1       6.400   3.997  13.658  0.00  0.00    +0.000 C 
ATOM     16  N   UNL     1       5.846   3.916  14.987  0.00  0.00    +0.000 N 
ATOM     17  C   UNL     1       6.619   4.193  16.096  0.00  0.00    +0.000 C 
ATOM     18  O   UNL     1       7.811   4.483  15.994  0.00  0.00    +0.000 OA
ATOM     19  H   UNL     1       4.839   3.869  15.113  0.00  0.00    +0.000 HD
ENDBRANCH   1  17
BRANCH   6  20
ATOM     20  N   UNL     1       6.629   6.331  18.187  0.00  0.00    +0.000 N 
ATOM     21  C   UNL     1       6.841   7.428  17.383  0.00  0.00    +0.000 C 
ATOM     22  C   UNL     1       7.922   8.348  17.888  0.00  0.00    +0.000 C 
ATOM     23  O   UNL     1       6.191   7.664  16.370  0.00  0.00    +0.000 OA
ATOM     24  H   UNL     1       6.931   6.439  19.152  0.00  0.00    +0.000 HD
ENDBRANCH   6  20
BRANCH   3  25
ATOM     25  C   UNL     1       3.055   1.780  18.404  0.00  0.00    +0.000 C 
BRANCH  25  26
ATOM     26  O   UNL     1       2.082   1.773  17.379  0.00  0.00    +0.000 OA
ATOM     27  H   UNL     1       1.573   2.594  17.464  0.00  0.00    +0.000 HD
ENDBRANCH  25  26
BRANCH  25  28
ATOM     28  O   UNL     1       3.901   0.650  18.270  0.00  0.00    +0.000 OA
ATOM     29  H   UNL     1       4.589   0.900  17.633  0.00  0.00    +0.000 HD
ENDBRANCH  25  28
ENDBRANCH   3  25
TORSDOF 6
ENDMDL
MODEL 7
REMARK VINA RESULT:      -7.0      1.350      1.551
REMARK  Name = 
REMARK  8 active torsions:
REMARK  status: ('A' for Active; 'I' for Inactive)
REMARK    1  A    between atoms: C_1  and  N_2
REMARK    2  A    between atoms: C_3  and  C_5
REMARK    3  A    between atoms: C_7  and  C_8
REMARK    4  A    between atoms: C_8  and  O_9
REMARK    5  A    between atoms: C_8  and  O_10
REMARK    6  A    between atoms: C_12  and  N_13
REMARK    7  A    between atoms: C_17  and  N_18
REMARK    8  A    between atoms: C_19  and  C_20
REMARK                            x       y       z     vdW  Elec       q    Type
REMARK                         _______ _______ _______ _____ _____    ______ ____
ROOT
ATOM      1  C   UNL     1       4.031   4.501  16.940  0.00  0.00    +0.000 C 
ATOM      2  O   UNL     1       4.945   4.064  15.910  0.00  0.00    +0.000 OA
ATOM      3  C   UNL     1       5.816   5.028  15.449  0.00  0.00    +0.000 C 
ATOM      4  C   UNL     1       6.129   6.122  16.163  0.00  0.00    +0.000 C 
ATOM      5  C   UNL     1       5.590   6.417  17.530  0.00  0.00    +0.000 C 
ATOM      6  C   UNL     1       4.743   5.248  18.094  0.00  0.00    +0.000 C 
ENDROOT
BRANCH   5   7
ATOM      7  N   UNL     1       6.756   6.656  18.388  0.00  0.00    +0.000 NA
ATOM      8  C   UNL     1       7.491   5.682  18.761  0.00  0.00    +0.000 C 
ATOM      9  N   UNL     1       7.452   4.368  18.447  0.00  0.00    +0.000 N 
ATOM     10  N   UNL     1       8.493   5.894  19.644  0.00  0.00    +0.000 N 
ATOM     11  H   UNL     1       6.672   4.060  17.881  0.00  0.00    +0.000 HD
ATOM     12  H   UNL     1       7.581   3.765  19.251  0.00  0.00    +0.000 HD
ATOM     13  H   UNL     1       8.692   6.884  19.740  0.00  0.00    +0.000 HD
ATOM     14  H   UNL     1       9.327   5.358  19.445  0.00  0.00    +0.000 HD
ENDBRANCH   5   7
BRANCH   1  17
ATOM     15  C   UNL     1       3.525   1.136  18.691  0.00  0.00    +0.000 C 
ATOM     16  N   UNL     1       4.080   2.355  18.157  0.00  0.00    +0.000 N 
ATOM     17  C   UNL     1       3.284   3.265  17.492  0.00  0.00    +0.000 C 
ATOM     18  O   UNL     1       2.086   3.054  17.300  0.00  0.00    +0.000 OA
ATOM     19  H   UNL     1       5.004   2.660  18.449  0.00  0.00    +0.000 HD
ENDBRANCH   1  17
BRANCH   6  20
ATOM     20  N   UNL     1       3.827   5.677  19.174  0.00  0.00    +0.000 N 
ATOM     21  C   UNL     1       2.844   6.625  19.000  0.00  0.00    +0.000 C 
ATOM     22  C   UNL     1       1.892   6.730  20.163  0.00  0.00    +0.000 C 
ATOM     23  O   UNL     1       2.723   7.299  17.982  0.00  0.00    +0.000 OA
ATOM     24  H   UNL     1       3.606   4.946  19.844  0.00  0.00    +0.000 HD
ENDBRANCH   6  20
BRANCH   3  25
ATOM     25  C   UNL     1       6.404   4.801  14.063  0.00  0.00    +0.000 C 
BRANCH  25  26
ATOM     26  O   UNL     1       7.710   5.335  13.966  0.00  0.00    +0.000 OA
ATOM     27  H   UNL     1       8.252   4.676  13.505  0.00  0.00    +0.000 HD
ENDBRANCH  25  26
BRANCH  25  28
ATOM     28  O   UNL     1       6.436   3.406  13.813  0.00  0.00    +0.000 OA
ATOM     29  H   UNL     1       6.249   2.974  14.661  0.00  0.00    +0.000 HD
ENDBRANCH  25  28
ENDBRANCH   3  25
TORSDOF 6
ENDMDL
MODEL 8
REMARK VINA RESULT:      -7.0      1.691      1.871
REMARK  Name = 
REMARK  8 active torsions:
REMARK  status: ('A' for Active; 'I' for Inactive)
REMARK    1  A    between atoms: C_1  and  N_2
REMARK    2  A    between atoms: C_3  and  C_5
REMARK    3  A    between atoms: C_7  and  C_8
REMARK    4  A    between atoms: C_8  and  O_9
REMARK    5  A    between atoms: C_8  and  O_10
REMARK    6  A    between atoms: C_12  and  N_13
REMARK    7  A    between atoms: C_17  and  N_18
REMARK    8  A    between atoms: C_19  and  C_20
REMARK                            x       y       z     vdW  Elec       q    Type
REMARK                         _______ _______ _______ _____ _____    ______ ____
ROOT
ATOM      1  C   UNL     1       4.234   4.459  16.387  0.00  0.00    +0.000 C 
ATOM      2  O   UNL     1       5.298   3.819  15.648  0.00  0.00    +0.000 OA
ATOM      3  C   UNL     1       6.244   4.674  15.122  0.00  0.00    +0.000 C 
ATOM      4  C   UNL     1       6.449   5.912  15.602  0.00  0.00    +0.000 C 
ATOM      5  C   UNL     1       5.698   6.501  16.757  0.00  0.00    +0.000 C 
ATOM      6  C   UNL     1       4.757   5.472  17.435  0.00  0.00    +0.000 C 
ENDROOT
BRANCH   5   7
ATOM      7  N   UNL     1       6.711   6.964  17.712  0.00  0.00    +0.000 NA
ATOM      8  C   UNL     1       7.406   6.121  18.372  0.00  0.00    +0.000 C 
ATOM      9  N   UNL     1       7.451   4.771  18.320  0.00  0.00    +0.000 N 
ATOM     10  N   UNL     1       8.255   6.553  19.332  0.00  0.00    +0.000 N 
ATOM     11  H   UNL     1       6.777   4.319  17.718  0.00  0.00    +0.000 HD
ATOM     12  H   UNL     1       7.473   4.340  19.236  0.00  0.00    +0.000 HD
ATOM     13  H   UNL     1       8.410   7.553  19.260  0.00  0.00    +0.000 HD
ATOM     14  H   UNL     1       9.124   6.037  19.366  0.00  0.00    +0.000 HD
ENDBRANCH   5   7
BRANCH   1  17
ATOM     15  C   UNL     1       3.463   1.418  18.580  0.00  0.00    +0.000 C 
ATOM     16  N   UNL     1       4.111   2.510  17.897  0.00  0.00    +0.000 N 
ATOM     17  C   UNL     1       3.393   3.365  17.084  0.00  0.00    +0.000 C 
ATOM     18  O   UNL     1       2.188   3.205  16.887  0.00  0.00    +0.000 OA
ATOM     19  H   UNL     1       5.047   2.795  18.171  0.00  0.00    +0.000 HD
ENDBRANCH   1  17
BRANCH   6  20
ATOM     20  N   UNL     1       3.682   6.115  18.223  0.00  0.00    +0.000 N 
ATOM     21  C   UNL     1       3.354   5.735  19.504  0.00  0.00    +0.000 C 
ATOM     22  C   UNL     1       2.395   6.677  20.187  0.00  0.00    +0.000 C 
ATOM     23  O   UNL     1       3.820   4.747  20.061  0.00  0.00    +0.000 OA
ATOM     24  H   UNL     1       3.557   7.103  18.021  0.00  0.00    +0.000 HD
ENDBRANCH   6  20
BRANCH   3  25
ATOM     25  C   UNL     1       7.047   4.148  13.940  0.00  0.00    +0.000 C 
BRANCH  25  26
ATOM     26  O   UNL     1       6.248   3.348  13.092  0.00  0.00    +0.000 OA
ATOM     27  H   UNL     1       5.814   3.945  12.464  0.00  0.00    +0.000 HD
ENDBRANCH  25  26
BRANCH  25  28
ATOM     28  O   UNL     1       7.555   5.256  13.216  0.00  0.00    +0.000 OA
ATOM     29  H   UNL     1       8.416   4.979  12.864  0.00  0.00    +0.000 HD
ENDBRANCH  25  28
ENDBRANCH   3  25
TORSDOF 6
ENDMDL
MODEL 9
REMARK VINA RESULT:      -7.0      2.597      4.024
REMARK  Name = 
REMARK  8 active torsions:
REMARK  status: ('A' for Active; 'I' for Inactive)
REMARK    1  A    between atoms: C_1  and  N_2
REMARK    2  A    between atoms: C_3  and  C_5
REMARK    3  A    between atoms: C_7  and  C_8
REMARK    4  A    between atoms: C_8  and  O_9
REMARK    5  A    between atoms: C_8  and  O_10
REMARK    6  A    between atoms: C_12  and  N_13
REMARK    7  A    between atoms: C_17  and  N_18
REMARK    8  A    between atoms: C_19  and  C_20
REMARK                            x       y       z     vdW  Elec       q    Type
REMARK                         _______ _______ _______ _____ _____    ______ ____
ROOT
ATOM      1  C   UNL     1       3.745   6.535  18.804  0.00  0.00    +0.000 C 
ATOM      2  O   UNL     1       4.299   6.852  17.508  0.00  0.00    +0.000 OA
ATOM      3  C   UNL     1       5.326   6.031  17.092  0.00  0.00    +0.000 C 
ATOM      4  C   UNL     1       5.511   4.795  17.584  0.00  0.00    +0.000 C 
ATOM      5  C   UNL     1       4.632   4.162  18.619  0.00  0.00    +0.000 C 
ATOM      6  C   UNL     1       3.395   5.034  18.954  0.00  0.00    +0.000 C 
ENDROOT
BRANCH   5   7
ATOM      7  N   UNL     1       4.205   2.873  18.062  0.00  0.00    +0.000 NA
ATOM      8  C   UNL     1       4.374   1.797  18.727  0.00  0.00    +0.000 C 
ATOM      9  N   UNL     1       4.846   1.590  19.977  0.00  0.00    +0.000 N 
ATOM     10  N   UNL     1       4.086   0.603  18.161  0.00  0.00    +0.000 N 
ATOM     11  H   UNL     1       5.205   2.399  20.466  0.00  0.00    +0.000 HD
ATOM     12  H   UNL     1       5.492   0.812  20.032  0.00  0.00    +0.000 HD
ATOM     13  H   UNL     1       3.536   0.722  17.318  0.00  0.00    +0.000 HD
ATOM     14  H   UNL     1       3.660  -0.055  18.801  0.00  0.00    +0.000 HD
ENDBRANCH   5   7
BRANCH   1  17
ATOM     15  C   UNL     1       1.105   9.219  18.119  0.00  0.00    +0.000 C 
ATOM     16  N   UNL     1       2.228   8.320  18.028  0.00  0.00    +0.000 N 
ATOM     17  C   UNL     1       2.480   7.397  19.023  0.00  0.00    +0.000 C 
ATOM     18  O   UNL     1       1.780   7.332  20.033  0.00  0.00    +0.000 OA
ATOM     19  H   UNL     1       2.714   8.205  17.143  0.00  0.00    +0.000 HD
ENDBRANCH   1  17
BRANCH   6  20
ATOM     20  N   UNL     1       2.798   4.695  20.266  0.00  0.00    +0.000 N 
ATOM     21  C   UNL     1       1.782   3.780  20.419  0.00  0.00    +0.000 C 
ATOM     22  C   UNL     1       1.497   3.429  21.857  0.00  0.00    +0.000 C 
ATOM     23  O   UNL     1       1.184   3.263  19.481  0.00  0.00    +0.000 OA
ATOM     24  H   UNL     1       3.450   4.750  21.043  0.00  0.00    +0.000 HD
ENDBRANCH   6  20
BRANCH   3  25
ATOM     25  C   UNL     1       6.267   6.607  16.042  0.00  0.00    +0.000 C 
BRANCH  25  26
ATOM     26  O   UNL     1       7.604   6.616  16.501  0.00  0.00    +0.000 OA
ATOM     27  H   UNL     1       7.924   7.528  16.426  0.00  0.00    +0.000 HD
ENDBRANCH  25  26
BRANCH  25  28
ATOM     28  O   UNL     1       6.168   5.814  14.870  0.00  0.00    +0.000 OA
ATOM     29  H   UNL     1       7.028   5.377  14.764  0.00  0.00    +0.000 HD
ENDBRANCH  25  28
ENDBRANCH   3  25
TORSDOF 6
ENDMDL
