MODEL 1
REMARK VINA RESULT:      -8.4      0.000      0.000
REMARK  Name = 
REMARK  6 active torsions:
REMARK  status: ('A' for Active; 'I' for Inactive)
REMARK    1  A    between atoms: N_1  and  C_2
REMARK    2  A    between atoms: C_7  and  N_8
REMARK    3  A    between atoms: C_9  and  C_11
REMARK    4  A    between atoms: C_14  and  C_15
REMARK    5  A    between atoms: C_15  and  N_16
REMARK    6  A    between atoms: C_17  and  C_19
REMARK                            x       y       z     vdW  Elec       q    Type
REMARK                         _______ _______ _______ _____ _____    ______ ____
ROOT
ATOM      1  C   UNL     1       6.201   5.789  18.457  0.00  0.00    +0.000 A 
ATOM      2  C   UNL     1       7.419   5.882  19.135  0.00  0.00    +0.000 A 
ATOM      3  C   UNL     1       8.282   6.951  18.865  0.00  0.00    +0.000 A 
ATOM      4  C   UNL     1       7.935   7.931  17.923  0.00  0.00    +0.000 A 
ATOM      5  C   UNL     1       6.744   7.788  17.195  0.00  0.00    +0.000 A 
ATOM      6  C   UNL     1       5.882   6.720  17.462  0.00  0.00    +0.000 A 
ENDROOT
BRANCH   1   8
ATOM      7  N   UNL     1       3.890   5.092  18.698  0.00  0.00    +0.000 N 
ATOM      8  C   UNL     1       5.222   4.717  18.768  0.00  0.00    +0.000 C 
ATOM      9  O   UNL     1       5.661   3.594  18.992  0.00  0.00    +0.000 OA
ATOM     10  H   UNL     1       3.668   6.010  18.340  0.00  0.00    +0.000 HD
BRANCH   7  16
ATOM     11  C   UNL     1       2.022   4.486  20.146  0.00  0.00    +0.000 A 
ATOM     12  C   UNL     1       0.971   3.607  20.455  0.00  0.00    +0.000 A 
ATOM     13  C   UNL     1       0.611   2.580  19.580  0.00  0.00    +0.000 A 
ATOM     14  C   UNL     1       1.332   2.387  18.408  0.00  0.00    +0.000 A 
ATOM     15  C   UNL     1       2.411   3.219  18.111  0.00  0.00    +0.000 A 
ATOM     16  C   UNL     1       2.773   4.264  18.968  0.00  0.00    +0.000 A 
BRANCH  11  17
ATOM     17  N   UNL     1       2.403   5.444  21.115  0.00  0.00    +0.000 N 
ATOM     18  H   UNL     1       2.339   6.394  20.756  0.00  0.00    +0.000 HD
ATOM     19  H   UNL     1       3.324   5.276  21.503  0.00  0.00    +0.000 HD
ENDBRANCH  11  17
ENDBRANCH   7  16
ENDBRANCH   1   8
BRANCH   4  20
ATOM     20  C   UNL     1       8.773   9.169  17.779  0.00  0.00    +0.000 C 
BRANCH  20  21
ATOM     21  N   UNL     1       8.745  10.073  18.901  0.00  0.00    +0.000 N 
ATOM     22  C   UNL     1       9.659  11.113  18.892  0.00  0.00    +0.000 C 
ATOM     23  O   UNL     1      10.453  11.221  17.957  0.00  0.00    +0.000 OA
ATOM     24  H   UNL     1       8.034  10.009  19.618  0.00  0.00    +0.000 HD
BRANCH  22  25
ATOM     25  C   UNL     1       9.658  12.070  19.985  0.00  0.00    +0.000 A 
ATOM     26  C   UNL     1       9.028  11.849  21.194  0.00  0.00    +0.000 A 
ATOM     27  C   UNL     1       9.100  12.949  22.098  0.00  0.00    +0.000 A 
ATOM     28  C   UNL     1       8.567  13.092  23.399  0.00  0.00    +0.000 A 
ATOM     29  C   UNL     1       8.704  14.297  24.089  0.00  0.00    +0.000 A 
ATOM     30  C   UNL     1       9.376  15.361  23.502  0.00  0.00    +0.000 A 
ATOM     31  C   UNL     1       9.939  15.236  22.225  0.00  0.00    +0.000 A 
ATOM     32  C   UNL     1       9.795  14.019  21.528  0.00  0.00    +0.000 A 
ATOM     33  S   UNL     1      10.386  13.609  19.951  0.00  0.00    +0.000 S 
ENDBRANCH  22  25
ENDBRANCH  20  21
ENDBRANCH   4  20
TORSDOF 6
ENDMDL
MODEL 2
REMARK VINA RESULT:      -8.3      7.564     10.221
REMARK  Name = 
REMARK  6 active torsions:
REMARK  status: ('A' for Active; 'I' for Inactive)
REMARK    1  A    between atoms: N_1  and  C_2
REMARK    2  A    between atoms: C_7  and  N_8
REMARK    3  A    between atoms: C_9  and  C_11
REMARK    4  A    between atoms: C_14  and  C_15
REMARK    5  A    between atoms: C_15  and  N_16
REMARK    6  A    between atoms: C_17  and  C_19
REMARK                            x       y       z     vdW  Elec       q    Type
REMARK                         _______ _______ _______ _____ _____    ______ ____
ROOT
ATOM      1  C   UNL     1       2.326   7.548  18.691  0.00  0.00    +0.000 A 
ATOM      2  C   UNL     1       1.877   8.655  17.967  0.00  0.00    +0.000 A 
ATOM      3  C   UNL     1       1.209   9.691  18.630  0.00  0.00    +0.000 A 
ATOM      4  C   UNL     1       0.988   9.630  20.015  0.00  0.00    +0.000 A 
ATOM      5  C   UNL     1       1.376   8.480  20.719  0.00  0.00    +0.000 A 
ATOM      6  C   UNL     1       2.043   7.443  20.057  0.00  0.00    +0.000 A 
ENDROOT
BRANCH   1   8
ATOM      7  N   UNL     1       4.364   6.831  17.588  0.00  0.00    +0.000 N 
ATOM      8  C   UNL     1       3.108   6.464  18.042  0.00  0.00    +0.000 C 
ATOM      9  O   UNL     1       2.616   5.341  18.024  0.00  0.00    +0.000 OA
ATOM     10  H   UNL     1       4.708   7.753  17.818  0.00  0.00    +0.000 HD
BRANCH   7  16
ATOM     11  C   UNL     1       6.254   5.289  17.680  0.00  0.00    +0.000 A 
ATOM     12  C   UNL     1       7.223   4.529  17.007  0.00  0.00    +0.000 A 
ATOM     13  C   UNL     1       7.195   4.393  15.618  0.00  0.00    +0.000 A 
ATOM     14  C   UNL     1       6.225   5.058  14.879  0.00  0.00    +0.000 A 
ATOM     15  C   UNL     1       5.286   5.859  15.527  0.00  0.00    +0.000 A 
ATOM     16  C   UNL     1       5.289   5.991  16.920  0.00  0.00    +0.000 A 
BRANCH  11  17
ATOM     17  N   UNL     1       6.391   5.470  19.076  0.00  0.00    +0.000 N 
ATOM     18  H   UNL     1       5.490   5.474  19.549  0.00  0.00    +0.000 HD
ATOM     19  H   UNL     1       6.922   6.296  19.322  0.00  0.00    +0.000 HD
ENDBRANCH  11  17
ENDBRANCH   7  16
ENDBRANCH   1   8
BRANCH   4  20
ATOM     20  C   UNL     1       0.443  10.824  20.745  0.00  0.00    +0.000 C 
BRANCH  20  21
ATOM     21  N   UNL     1      -0.984  11.011  20.653  0.00  0.00    +0.000 N 
ATOM     22  C   UNL     1      -1.430  12.036  19.837  0.00  0.00    +0.000 C 
ATOM     23  O   UNL     1      -0.616  12.743  19.242  0.00  0.00    +0.000 OA
ATOM     24  H   UNL     1      -1.633  10.371  21.090  0.00  0.00    +0.000 HD
BRANCH  22  25
ATOM     25  C   UNL     1      -2.859  12.254  19.687  0.00  0.00    +0.000 A 
ATOM     26  C   UNL     1      -3.606  11.739  18.646  0.00  0.00    +0.000 A 
ATOM     27  C   UNL     1      -4.975  12.132  18.661  0.00  0.00    +0.000 A 
ATOM     28  C   UNL     1      -6.021  11.820  17.762  0.00  0.00    +0.000 A 
ATOM     29  C   UNL     1      -7.290  12.374  17.936  0.00  0.00    +0.000 A 
ATOM     30  C   UNL     1      -7.534  13.228  19.003  0.00  0.00    +0.000 A 
ATOM     31  C   UNL     1      -6.525  13.531  19.925  0.00  0.00    +0.000 A 
ATOM     32  C   UNL     1      -5.242  12.974  19.744  0.00  0.00    +0.000 A 
ATOM     33  S   UNL     1      -3.829  13.189  20.727  0.00  0.00    +0.000 S 
ENDBRANCH  22  25
ENDBRANCH  20  21
ENDBRANCH   4  20
TORSDOF 6
ENDMDL
MODEL 3
REMARK VINA RESULT:      -8.2      0.555      1.255
REMARK  Name = 
REMARK  6 active torsions:
REMARK  status: ('A' for Active; 'I' for Inactive)
REMARK    1  A    between atoms: N_1  and  C_2
REMARK    2  A    between atoms: C_7  and  N_8
REMARK    3  A    between atoms: C_9  and  C_11
REMARK    4  A    between atoms: C_14  and  C_15
REMARK    5  A    between atoms: C_15  and  N_16
REMARK    6  A    between atoms: C_17  and  C_19
REMARK                            x       y       z     vdW  Elec       q    Type
REMARK                         _______ _______ _______ _____ _____    ______ ____
ROOT
ATOM      1  C   UNL     1       6.208   5.697  18.484  0.00  0.00    +0.000 A 
ATOM      2  C   UNL     1       7.414   5.839  19.175  0.00  0.00    +0.000 A 
ATOM      3  C   UNL     1       8.259   6.915  18.879  0.00  0.00    +0.000 A 
ATOM      4  C   UNL     1       7.906   7.854  17.898  0.00  0.00    +0.000 A 
ATOM      5  C   UNL     1       6.730   7.660  17.159  0.00  0.00    +0.000 A 
ATOM      6  C   UNL     1       5.885   6.585  17.452  0.00  0.00    +0.000 A 
ENDROOT
BRANCH   1   8
ATOM      7  N   UNL     1       3.942   5.031  19.038  0.00  0.00    +0.000 N 
ATOM      8  C   UNL     1       5.246   4.616  18.820  0.00  0.00    +0.000 C 
ATOM      9  O   UNL     1       5.661   3.462  18.810  0.00  0.00    +0.000 OA
ATOM     10  H   UNL     1       3.707   5.996  18.850  0.00  0.00    +0.000 HD
BRANCH   7  16
ATOM     11  C   UNL     1       2.310   3.324  18.421  0.00  0.00    +0.000 A 
ATOM     12  C   UNL     1       1.173   2.570  18.749  0.00  0.00    +0.000 A 
ATOM     13  C   UNL     1       0.625   2.614  20.032  0.00  0.00    +0.000 A 
ATOM     14  C   UNL     1       1.178   3.453  20.991  0.00  0.00    +0.000 A 
ATOM     15  C   UNL     1       2.277   4.248  20.667  0.00  0.00    +0.000 A 
ATOM     16  C   UNL     1       2.850   4.202  19.391  0.00  0.00    +0.000 A 
BRANCH  11  17
ATOM     17  N   UNL     1       2.761   3.314  17.080  0.00  0.00    +0.000 N 
ATOM     18  H   UNL     1       2.388   2.523  16.560  0.00  0.00    +0.000 HD
ATOM     19  H   UNL     1       3.770   3.345  16.997  0.00  0.00    +0.000 HD
ENDBRANCH  11  17
ENDBRANCH   7  16
ENDBRANCH   1   8
BRANCH   4  20
ATOM     20  C   UNL     1       8.722   9.103  17.721  0.00  0.00    +0.000 C 
BRANCH  20  21
ATOM     21  N   UNL     1       8.729  10.004  18.846  0.00  0.00    +0.000 N 
ATOM     22  C   UNL     1       9.610  11.071  18.788  0.00  0.00    +0.000 C 
ATOM     23  O   UNL     1      10.346  11.204  17.810  0.00  0.00    +0.000 OA
ATOM     24  H   UNL     1       8.062   9.918  19.601  0.00  0.00    +0.000 HD
BRANCH  22  25
ATOM     25  C   UNL     1       9.641  12.027  19.882  0.00  0.00    +0.000 A 
ATOM     26  C   UNL     1       9.007  11.825  21.092  0.00  0.00    +0.000 A 
ATOM     27  C   UNL     1       9.115  12.921  21.996  0.00  0.00    +0.000 A 
ATOM     28  C   UNL     1       8.588  13.080  23.299  0.00  0.00    +0.000 A 
ATOM     29  C   UNL     1       8.765  14.280  23.990  0.00  0.00    +0.000 A 
ATOM     30  C   UNL     1       9.469  15.322  23.402  0.00  0.00    +0.000 A 
ATOM     31  C   UNL     1      10.027  15.181  22.125  0.00  0.00    +0.000 A 
ATOM     32  C   UNL     1       9.842  13.969  21.427  0.00  0.00    +0.000 A 
ATOM     33  S   UNL     1      10.417  13.541  19.848  0.00  0.00    +0.000 S 
ENDBRANCH  22  25
ENDBRANCH  20  21
ENDBRANCH   4  20
TORSDOF 6
ENDMDL
MODEL 4
REMARK VINA RESULT:      -8.1      7.985     11.286
REMARK  Name = 
REMARK  6 active torsions:
REMARK  status: ('A' for Active; 'I' for Inactive)
REMARK    1  A    between atoms: N_1  and  C_2
REMARK    2  A    between atoms: C_7  and  N_8
REMARK    3  A    between atoms: C_9  and  C_11
REMARK    4  A    between atoms: C_14  and  C_15
REMARK    5  A    between atoms: C_15  and  N_16
REMARK    6  A    between atoms: C_17  and  C_19
REMARK                            x       y       z     vdW  Elec       q    Type
REMARK                         _______ _______ _______ _____ _____    ______ ____
ROOT
ATOM      1  C   UNL     1      -1.141  11.485  21.927  0.00  0.00    +0.000 A 
ATOM      2  C   UNL     1      -0.476  11.170  20.739  0.00  0.00    +0.000 A 
ATOM      3  C   UNL     1       0.285   9.998  20.661  0.00  0.00    +0.000 A 
ATOM      4  C   UNL     1       0.384   9.134  21.763  0.00  0.00    +0.000 A 
ATOM      5  C   UNL     1      -0.227   9.497  22.972  0.00  0.00    +0.000 A 
ATOM      6  C   UNL     1      -0.986  10.669  23.052  0.00  0.00    +0.000 A 
ENDROOT
BRANCH   1   8
ATOM      7  N   UNL     1      -2.663  12.838  23.246  0.00  0.00    +0.000 N 
ATOM      8  C   UNL     1      -2.022  12.677  22.028  0.00  0.00    +0.000 C 
ATOM      9  O   UNL     1      -2.056  13.441  21.069  0.00  0.00    +0.000 OA
ATOM     10  H   UNL     1      -2.414  12.220  24.005  0.00  0.00    +0.000 HD
BRANCH   7  16
ATOM     11  C   UNL     1      -4.950  13.683  23.360  0.00  0.00    +0.000 A 
ATOM     12  C   UNL     1      -5.830  14.747  23.614  0.00  0.00    +0.000 A 
ATOM     13  C   UNL     1      -5.371  15.948  24.156  0.00  0.00    +0.000 A 
ATOM     14  C   UNL     1      -4.015  16.120  24.404  0.00  0.00    +0.000 A 
ATOM     15  C   UNL     1      -3.119  15.093  24.110  0.00  0.00    +0.000 A 
ATOM     16  C   UNL     1      -3.566  13.875  23.584  0.00  0.00    +0.000 A 
BRANCH  11  17
ATOM     17  N   UNL     1      -5.457  12.528  22.721  0.00  0.00    +0.000 N 
ATOM     18  H   UNL     1      -4.946  11.690  22.989  0.00  0.00    +0.000 HD
ATOM     19  H   UNL     1      -5.491  12.612  21.712  0.00  0.00    +0.000 HD
ENDBRANCH  11  17
ENDBRANCH   7  16
ENDBRANCH   1   8
BRANCH   4  20
ATOM     20  C   UNL     1       1.041   7.792  21.612  0.00  0.00    +0.000 C 
BRANCH  20  21
ATOM     21  N   UNL     1       1.853   7.627  20.433  0.00  0.00    +0.000 N 
ATOM     22  C   UNL     1       2.169   6.329  20.065  0.00  0.00    +0.000 C 
ATOM     23  O   UNL     1       1.766   5.386  20.746  0.00  0.00    +0.000 OA
ATOM     24  H   UNL     1       2.108   8.411  19.848  0.00  0.00    +0.000 HD
BRANCH  22  25
ATOM     25  C   UNL     1       2.964   6.103  18.870  0.00  0.00    +0.000 A 
ATOM     26  C   UNL     1       3.378   4.853  18.453  0.00  0.00    +0.000 A 
ATOM     27  C   UNL     1       4.203   4.871  17.291  0.00  0.00    +0.000 A 
ATOM     28  C   UNL     1       4.818   3.804  16.596  0.00  0.00    +0.000 A 
ATOM     29  C   UNL     1       5.647   4.059  15.504  0.00  0.00    +0.000 A 
ATOM     30  C   UNL     1       5.865   5.365  15.087  0.00  0.00    +0.000 A 
ATOM     31  C   UNL     1       5.245   6.439  15.739  0.00  0.00    +0.000 A 
ATOM     32  C   UNL     1       4.411   6.179  16.846  0.00  0.00    +0.000 A 
ATOM     33  S   UNL     1       3.537   7.315  17.822  0.00  0.00    +0.000 S 
ENDBRANCH  22  25
ENDBRANCH  20  21
ENDBRANCH   4  20
TORSDOF 6
ENDMDL
MODEL 5
REMARK VINA RESULT:      -8.0      6.734      7.743
REMARK  Name = 
REMARK  6 active torsions:
REMARK  status: ('A' for Active; 'I' for Inactive)
REMARK    1  A    between atoms: N_1  and  C_2
REMARK    2  A    between atoms: C_7  and  N_8
REMARK    3  A    between atoms: C_9  and  C_11
REMARK    4  A    between atoms: C_14  and  C_15
REMARK    5  A    between atoms: C_15  and  N_16
REMARK    6  A    between atoms: C_17  and  C_19
REMARK                            x       y       z     vdW  Elec       q    Type
REMARK                         _______ _______ _______ _____ _____    ______ ____
ROOT
ATOM      1  C   UNL     1       2.181   7.647  18.928  0.00  0.00    +0.000 A 
ATOM      2  C   UNL     1       1.887   8.816  18.221  0.00  0.00    +0.000 A 
ATOM      3  C   UNL     1       1.262   9.883  18.877  0.00  0.00    +0.000 A 
ATOM      4  C   UNL     1       0.932   9.792  20.238  0.00  0.00    +0.000 A 
ATOM      5  C   UNL     1       1.165   8.588  20.919  0.00  0.00    +0.000 A 
ATOM      6  C   UNL     1       1.788   7.520  20.264  0.00  0.00    +0.000 A 
ENDROOT
BRANCH   1   8
ATOM      7  N   UNL     1       4.114   6.861  17.689  0.00  0.00    +0.000 N 
ATOM      8  C   UNL     1       2.914   6.522  18.291  0.00  0.00    +0.000 C 
ATOM      9  O   UNL     1       2.438   5.397  18.408  0.00  0.00    +0.000 OA
ATOM     10  H   UNL     1       4.465   7.801  17.812  0.00  0.00    +0.000 HD
BRANCH   7  16
ATOM     11  C   UNL     1       6.332   6.356  16.804  0.00  0.00    +0.000 A 
ATOM     12  C   UNL     1       7.164   5.519  16.045  0.00  0.00    +0.000 A 
ATOM     13  C   UNL     1       6.704   4.293  15.561  0.00  0.00    +0.000 A 
ATOM     14  C   UNL     1       5.388   3.912  15.786  0.00  0.00    +0.000 A 
ATOM     15  C   UNL     1       4.532   4.755  16.493  0.00  0.00    +0.000 A 
ATOM     16  C   UNL     1       4.982   5.979  17.002  0.00  0.00    +0.000 A 
BRANCH  11  17
ATOM     17  N   UNL     1       6.822   7.628  17.184  0.00  0.00    +0.000 N 
ATOM     18  H   UNL     1       6.170   8.121  17.789  0.00  0.00    +0.000 HD
ATOM     19  H   UNL     1       7.080   8.209  16.395  0.00  0.00    +0.000 HD
ENDBRANCH  11  17
ENDBRANCH   7  16
ENDBRANCH   1   8
BRANCH   4  20
ATOM     20  C   UNL     1       0.440  11.004  20.977  0.00  0.00    +0.000 C 
BRANCH  20  21
ATOM     21  N   UNL     1       0.345  12.212  20.197  0.00  0.00    +0.000 N 
ATOM     22  C   UNL     1       1.270  13.206  20.466  0.00  0.00    +0.000 C 
ATOM     23  O   UNL     1       2.112  13.035  21.348  0.00  0.00    +0.000 OA
ATOM     24  H   UNL     1      -0.306  12.298  19.427  0.00  0.00    +0.000 HD
BRANCH  22  25
ATOM     25  C   UNL     1       1.238  14.435  19.692  0.00  0.00    +0.000 A 
ATOM     26  C   UNL     1       0.072  15.088  19.341  0.00  0.00    +0.000 A 
ATOM     27  C   UNL     1       0.272  16.239  18.525  0.00  0.00    +0.000 A 
ATOM     28  C   UNL     1      -0.671  17.133  17.968  0.00  0.00    +0.000 A 
ATOM     29  C   UNL     1      -0.252  18.171  17.134  0.00  0.00    +0.000 A 
ATOM     30  C   UNL     1       1.098  18.337  16.857  0.00  0.00    +0.000 A 
ATOM     31  C   UNL     1       2.056  17.483  17.419  0.00  0.00    +0.000 A 
ATOM     32  C   UNL     1       1.629  16.432  18.257  0.00  0.00    +0.000 A 
ATOM     33  S   UNL     1       2.599  15.244  19.067  0.00  0.00    +0.000 S 
ENDBRANCH  22  25
ENDBRANCH  20  21
ENDBRANCH   4  20
TORSDOF 6
ENDMDL
MODEL 6
REMARK VINA RESULT:      -8.0      3.432     11.001
REMARK  Name = 
REMARK  6 active torsions:
REMARK  status: ('A' for Active; 'I' for Inactive)
REMARK    1  A    between atoms: N_1  and  C_2
REMARK    2  A    between atoms: C_7  and  N_8
REMARK    3  A    between atoms: C_9  and  C_11
REMARK    4  A    between atoms: C_14  and  C_15
REMARK    5  A    between atoms: C_15  and  N_16
REMARK    6  A    between atoms: C_17  and  C_19
REMARK                            x       y       z     vdW  Elec       q    Type
REMARK                         _______ _______ _______ _____ _____    ______ ____
ROOT
ATOM      1  C   UNL     1       9.140  11.616  18.745  0.00  0.00    +0.000 A 
ATOM      2  C   UNL     1       9.542  10.525  19.519  0.00  0.00    +0.000 A 
ATOM      3  C   UNL     1       9.110   9.238  19.178  0.00  0.00    +0.000 A 
ATOM      4  C   UNL     1       8.281   9.032  18.065  0.00  0.00    +0.000 A 
ATOM      5  C   UNL     1       7.824  10.142  17.339  0.00  0.00    +0.000 A 
ATOM      6  C   UNL     1       8.253  11.429  17.680  0.00  0.00    +0.000 A 
ENDROOT
BRANCH   1   8
ATOM      7  N   UNL     1       9.227  13.961  18.128  0.00  0.00    +0.000 N 
ATOM      8  C   UNL     1       9.638  12.988  19.024  0.00  0.00    +0.000 C 
ATOM      9  O   UNL     1      10.303  13.155  20.041  0.00  0.00    +0.000 OA
ATOM     10  H   UNL     1       8.544  13.710  17.427  0.00  0.00    +0.000 HD
BRANCH   7  16
ATOM     11  C   UNL     1      10.512  15.827  17.220  0.00  0.00    +0.000 A 
ATOM     12  C   UNL     1      10.926  17.165  17.316  0.00  0.00    +0.000 A 
ATOM     13  C   UNL     1      10.372  18.024  18.266  0.00  0.00    +0.000 A 
ATOM     14  C   UNL     1       9.433  17.541  19.169  0.00  0.00    +0.000 A 
ATOM     15  C   UNL     1       9.049  16.201  19.122  0.00  0.00    +0.000 A 
ATOM     16  C   UNL     1       9.581  15.332  18.163  0.00  0.00    +0.000 A 
BRANCH  11  17
ATOM     17  N   UNL     1      11.179  14.980  16.303  0.00  0.00    +0.000 N 
ATOM     18  H   UNL     1      12.190  15.033  16.403  0.00  0.00    +0.000 HD
ATOM     19  H   UNL     1      10.911  15.143  15.340  0.00  0.00    +0.000 HD
ENDBRANCH  11  17
ENDBRANCH   7  16
ENDBRANCH   1   8
BRANCH   4  20
ATOM     20  C   UNL     1       7.980   7.637  17.596  0.00  0.00    +0.000 C 
BRANCH  20  21
ATOM     21  N   UNL     1       6.630   7.184  17.821  0.00  0.00    +0.000 N 
ATOM     22  C   UNL     1       6.450   5.824  18.015  0.00  0.00    +0.000 C 
ATOM     23  O   UNL     1       7.420   5.067  17.977  0.00  0.00    +0.000 OA
ATOM     24  H   UNL     1       5.861   7.832  17.925  0.00  0.00    +0.000 HD
BRANCH  22  25
ATOM     25  C   UNL     1       5.114   5.314  18.273  0.00  0.00    +0.000 A 
ATOM     26  C   UNL     1       4.439   5.506  19.463  0.00  0.00    +0.000 A 
ATOM     27  C   UNL     1       3.168   4.863  19.521  0.00  0.00    +0.000 A 
ATOM     28  C   UNL     1       2.217   4.822  20.566  0.00  0.00    +0.000 A 
ATOM     29  C   UNL     1       1.051   4.069  20.430  0.00  0.00    +0.000 A 
ATOM     30  C   UNL     1       0.814   3.361  19.260  0.00  0.00    +0.000 A 
ATOM     31  C   UNL     1       1.726   3.407  18.197  0.00  0.00    +0.000 A 
ATOM     32  C   UNL     1       2.906   4.166  18.339  0.00  0.00    +0.000 A 
ATOM     33  S   UNL     1       4.187   4.384  17.190  0.00  0.00    +0.000 S 
ENDBRANCH  22  25
ENDBRANCH  20  21
ENDBRANCH   4  20
TORSDOF 6
ENDMDL
MODEL 7
REMARK VINA RESULT:      -8.0      7.641      9.948
REMARK  Name = 
REMARK  6 active torsions:
REMARK  status: ('A' for Active; 'I' for Inactive)
REMARK    1  A    between atoms: N_1  and  C_2
REMARK    2  A    between atoms: C_7  and  N_8
REMARK    3  A    between atoms: C_9  and  C_11
REMARK    4  A    between atoms: C_14  and  C_15
REMARK    5  A    between atoms: C_15  and  N_16
REMARK    6  A    between atoms: C_17  and  C_19
REMARK                            x       y       z     vdW  Elec       q    Type
REMARK                         _______ _______ _______ _____ _____    ______ ____
ROOT
ATOM      1  C   UNL     1       2.299   7.424  18.954  0.00  0.00    +0.000 A 
ATOM      2  C   UNL     1       1.913   8.662  18.433  0.00  0.00    +0.000 A 
ATOM      3  C   UNL     1       1.295   9.601  19.267  0.00  0.00    +0.000 A 
ATOM      4  C   UNL     1       1.063   9.314  20.621  0.00  0.00    +0.000 A 
ATOM      5  C   UNL     1       1.387   8.042  21.114  0.00  0.00    +0.000 A 
ATOM      6  C   UNL     1       2.003   7.101  20.282  0.00  0.00    +0.000 A 
ENDROOT
BRANCH   1   8
ATOM      7  N   UNL     1       4.357   6.728  17.874  0.00  0.00    +0.000 N 
ATOM      8  C   UNL     1       3.028   6.429  18.125  0.00  0.00    +0.000 C 
ATOM      9  O   UNL     1       2.424   5.414  17.795  0.00  0.00    +0.000 OA
ATOM     10  H   UNL     1       4.770   7.519  18.347  0.00  0.00    +0.000 HD
BRANCH   7  16
ATOM     11  C   UNL     1       6.233   5.171  17.754  0.00  0.00    +0.000 A 
ATOM     12  C   UNL     1       7.176   4.477  16.979  0.00  0.00    +0.000 A 
ATOM     13  C   UNL     1       7.107   4.484  15.585  0.00  0.00    +0.000 A 
ATOM     14  C   UNL     1       6.124   5.228  14.946  0.00  0.00    +0.000 A 
ATOM     15  C   UNL     1       5.211   5.966  15.699  0.00  0.00    +0.000 A 
ATOM     16  C   UNL     1       5.255   5.954  17.098  0.00  0.00    +0.000 A 
BRANCH  11  17
ATOM     17  N   UNL     1       6.411   5.207  19.157  0.00  0.00    +0.000 N 
ATOM     18  H   UNL     1       6.587   4.282  19.542  0.00  0.00    +0.000 HD
ATOM     19  H   UNL     1       5.644   5.652  19.646  0.00  0.00    +0.000 HD
ENDBRANCH  11  17
ENDBRANCH   7  16
ENDBRANCH   1   8
BRANCH   4  20
ATOM     20  C   UNL     1       0.577  10.392  21.547  0.00  0.00    +0.000 C 
BRANCH  20  21
ATOM     21  N   UNL     1      -0.789  10.810  21.352  0.00  0.00    +0.000 N 
ATOM     22  C   UNL     1      -1.224  11.895  22.094  0.00  0.00    +0.000 C 
ATOM     23  O   UNL     1      -0.456  12.443  22.885  0.00  0.00    +0.000 OA
ATOM     24  H   UNL     1      -1.376  10.393  20.642  0.00  0.00    +0.000 HD
BRANCH  22  25
ATOM     25  C   UNL     1      -2.584  12.376  21.918  0.00  0.00    +0.000 A 
ATOM     26  C   UNL     1      -3.502  12.467  22.946  0.00  0.00    +0.000 A 
ATOM     27  C   UNL     1      -4.795  12.903  22.534  0.00  0.00    +0.000 A 
ATOM     28  C   UNL     1      -5.973  13.096  23.292  0.00  0.00    +0.000 A 
ATOM     29  C   UNL     1      -7.161  13.472  22.666  0.00  0.00    +0.000 A 
ATOM     30  C   UNL     1      -7.189  13.671  21.292  0.00  0.00    +0.000 A 
ATOM     31  C   UNL     1      -6.029  13.516  20.521  0.00  0.00    +0.000 A 
ATOM     32  C   UNL     1      -4.831  13.130  21.157  0.00  0.00    +0.000 A 
ATOM     33  S   UNL     1      -3.273  12.867  20.441  0.00  0.00    +0.000 S 
ENDBRANCH  22  25
ENDBRANCH  20  21
ENDBRANCH   4  20
TORSDOF 6
ENDMDL
MODEL 8
REMARK VINA RESULT:      -7.9      0.901      1.271
REMARK  Name = 
REMARK  6 active torsions:
REMARK  status: ('A' for Active; 'I' for Inactive)
REMARK    1  A    between atoms: N_1  and  C_2
REMARK    2  A    between atoms: C_7  and  N_8
REMARK    3  A    between atoms: C_9  and  C_11
REMARK    4  A    between atoms: C_14  and  C_15
REMARK    5  A    between atoms: C_15  and  N_16
REMARK    6  A    between atoms: C_17  and  C_19
REMARK                            x       y       z     vdW  Elec       q    Type
REMARK                         _______ _______ _______ _____ _____    ______ ____
ROOT
ATOM      1  C   UNL     1       6.127   5.746  18.492  0.00  0.00    +0.000 A 
ATOM      2  C   UNL     1       7.375   5.865  19.107  0.00  0.00    +0.000 A 
ATOM      3  C   UNL     1       8.226   6.917  18.749  0.00  0.00    +0.000 A 
ATOM      4  C   UNL     1       7.837   7.855  17.780  0.00  0.00    +0.000 A 
ATOM      5  C   UNL     1       6.613   7.683  17.116  0.00  0.00    +0.000 A 
ATOM      6  C   UNL     1       5.762   6.631  17.471  0.00  0.00    +0.000 A 
ENDROOT
BRANCH   1   8
ATOM      7  N   UNL     1       3.831   4.970  18.622  0.00  0.00    +0.000 N 
ATOM      8  C   UNL     1       5.161   4.693  18.898  0.00  0.00    +0.000 C 
ATOM      9  O   UNL     1       5.616   3.657  19.372  0.00  0.00    +0.000 OA
ATOM     10  H   UNL     1       3.615   5.793  18.077  0.00  0.00    +0.000 HD
BRANCH   7  16
ATOM     11  C   UNL     1       1.989   4.384  20.112  0.00  0.00    +0.000 A 
ATOM     12  C   UNL     1       0.949   3.506  20.455  0.00  0.00    +0.000 A 
ATOM     13  C   UNL     1       0.584   2.457  19.609  0.00  0.00    +0.000 A 
ATOM     14  C   UNL     1       1.288   2.242  18.432  0.00  0.00    +0.000 A 
ATOM     15  C   UNL     1       2.357   3.074  18.100  0.00  0.00    +0.000 A 
ATOM     16  C   UNL     1       2.725   4.141  18.928  0.00  0.00    +0.000 A 
BRANCH  11  17
ATOM     17  N   UNL     1       2.378   5.367  21.052  0.00  0.00    +0.000 N 
ATOM     18  H   UNL     1       2.409   4.995  21.999  0.00  0.00    +0.000 HD
ATOM     19  H   UNL     1       1.805   6.201  21.020  0.00  0.00    +0.000 HD
ENDBRANCH  11  17
ENDBRANCH   7  16
ENDBRANCH   1   8
BRANCH   4  20
ATOM     20  C   UNL     1       8.670   9.082  17.540  0.00  0.00    +0.000 C 
BRANCH  20  21
ATOM     21  N   UNL     1       8.535  10.126  18.524  0.00  0.00    +0.000 N 
ATOM     22  C   UNL     1       9.457  11.158  18.473  0.00  0.00    +0.000 C 
ATOM     23  O   UNL     1      10.344  11.144  17.619  0.00  0.00    +0.000 OA
ATOM     24  H   UNL     1       7.754  10.156  19.165  0.00  0.00    +0.000 HD
BRANCH  22  25
ATOM     25  C   UNL     1       9.353  12.252  19.425  0.00  0.00    +0.000 A 
ATOM     26  C   UNL     1       8.649  13.414  19.180  0.00  0.00    +0.000 A 
ATOM     27  C   UNL     1       8.736  14.378  20.226  0.00  0.00    +0.000 A 
ATOM     28  C   UNL     1       8.170  15.671  20.320  0.00  0.00    +0.000 A 
ATOM     29  C   UNL     1       8.441  16.481  21.422  0.00  0.00    +0.000 A 
ATOM     30  C   UNL     1       9.263  16.016  22.441  0.00  0.00    +0.000 A 
ATOM     31  C   UNL     1       9.813  14.728  22.387  0.00  0.00    +0.000 A 
ATOM     32  C   UNL     1       9.541  13.913  21.268  0.00  0.00    +0.000 A 
ATOM     33  S   UNL     1      10.095  12.300  20.956  0.00  0.00    +0.000 S 
ENDBRANCH  22  25
ENDBRANCH  20  21
ENDBRANCH   4  20
TORSDOF 6
ENDMDL
MODEL 9
REMARK VINA RESULT:      -7.9      6.806      7.910
REMARK  Name = 
REMARK  6 active torsions:
REMARK  status: ('A' for Active; 'I' for Inactive)
REMARK    1  A    between atoms: N_1  and  C_2
REMARK    2  A    between atoms: C_7  and  N_8
REMARK    3  A    between atoms: C_9  and  C_11
REMARK    4  A    between atoms: C_14  and  C_15
REMARK    5  A    between atoms: C_15  and  N_16
REMARK    6  A    between atoms: C_17  and  C_19
REMARK                            x       y       z     vdW  Elec       q    Type
REMARK                         _______ _______ _______ _____ _____    ______ ____
ROOT
ATOM      1  C   UNL     1       2.367   7.352  19.015  0.00  0.00    +0.000 A 
ATOM      2  C   UNL     1       2.001   8.522  18.345  0.00  0.00    +0.000 A 
ATOM      3  C   UNL     1       1.307   9.525  19.032  0.00  0.00    +0.000 A 
ATOM      4  C   UNL     1       0.978   9.369  20.387  0.00  0.00    +0.000 A 
ATOM      5  C   UNL     1       1.286   8.160  21.030  0.00  0.00    +0.000 A 
ATOM      6  C   UNL     1       1.978   7.156  20.344  0.00  0.00    +0.000 A 
ENDROOT
BRANCH   1   8
ATOM      7  N   UNL     1       4.347   6.734  17.756  0.00  0.00    +0.000 N 
ATOM      8  C   UNL     1       3.173   6.297  18.347  0.00  0.00    +0.000 C 
ATOM      9  O   UNL     1       2.774   5.140  18.430  0.00  0.00    +0.000 OA
ATOM     10  H   UNL     1       4.634   7.691  17.907  0.00  0.00    +0.000 HD
BRANCH   7  16
ATOM     11  C   UNL     1       6.272   5.232  17.761  0.00  0.00    +0.000 A 
ATOM     12  C   UNL     1       7.239   4.511  17.044  0.00  0.00    +0.000 A 
ATOM     13  C   UNL     1       7.177   4.409  15.653  0.00  0.00    +0.000 A 
ATOM     14  C   UNL     1       6.174   5.070  14.956  0.00  0.00    +0.000 A 
ATOM     15  C   UNL     1       5.235   5.834  15.648  0.00  0.00    +0.000 A 
ATOM     16  C   UNL     1       5.272   5.932  17.044  0.00  0.00    +0.000 A 
BRANCH  11  17
ATOM     17  N   UNL     1       6.442   5.382  19.157  0.00  0.00    +0.000 N 
ATOM     18  H   UNL     1       7.124   6.103  19.382  0.00  0.00    +0.000 HD
ATOM     19  H   UNL     1       6.677   4.516  19.627  0.00  0.00    +0.000 HD
ENDBRANCH  11  17
ENDBRANCH   7  16
ENDBRANCH   1   8
BRANCH   4  20
ATOM     20  C   UNL     1       0.406  10.521  21.162  0.00  0.00    +0.000 C 
BRANCH  20  21
ATOM     21  N   UNL     1       0.792  11.832  20.702  0.00  0.00    +0.000 N 
ATOM     22  C   UNL     1      -0.131  12.525  19.939  0.00  0.00    +0.000 C 
ATOM     23  O   UNL     1      -1.218  12.009  19.674  0.00  0.00    +0.000 OA
ATOM     24  H   UNL     1       1.657  12.265  20.996  0.00  0.00    +0.000 HD
BRANCH  22  25
ATOM     25  C   UNL     1       0.194  13.862  19.470  0.00  0.00    +0.000 A 
ATOM     26  C   UNL     1      -0.747  14.853  19.273  0.00  0.00    +0.000 A 
ATOM     27  C   UNL     1      -0.213  16.066  18.747  0.00  0.00    +0.000 A 
ATOM     28  C   UNL     1      -0.866  17.273  18.406  0.00  0.00    +0.000 A 
ATOM     29  C   UNL     1      -0.148  18.327  17.839  0.00  0.00    +0.000 A 
ATOM     30  C   UNL     1       1.216  18.197  17.616  0.00  0.00    +0.000 A 
ATOM     31  C   UNL     1       1.893  17.022  17.971  0.00  0.00    +0.000 A 
ATOM     32  C   UNL     1       1.164  15.957  18.540  0.00  0.00    +0.000 A 
ATOM     33  S   UNL     1       1.752  14.411  19.059  0.00  0.00    +0.000 S 
ENDBRANCH  22  25
ENDBRANCH  20  21
ENDBRANCH   4  20
TORSDOF 6
ENDMDL
