MODEL 1
REMARK VINA RESULT:      -8.1      0.000      0.000
REMARK  Name = 
REMARK  12 active torsions:
REMARK  status: ('A' for Active; 'I' for Inactive)
REMARK    1  A    between atoms: C_1  and  O_2
REMARK    2  A    between atoms: O_2  and  C_3
REMARK    3  A    between atoms: C_5  and  C_6
REMARK    4  A    between atoms: C_6  and  O_7
REMARK    5  A    between atoms: C_6  and  C_8
REMARK    6  A    between atoms: C_8  and  N_9
REMARK    7  A    between atoms: C_10  and  C_12
REMARK    8  A    between atoms: C_13  and  C_14
REMARK    9  A    between atoms: C_21  and  O_22
REMARK   10  A    between atoms: O_22  and  C_23
REMARK   11  A    between atoms: C_24  and  O_25
REMARK   12  A    between atoms: O_25  and  C_26
REMARK                            x       y       z     vdW  Elec       q    Type
REMARK                         _______ _______ _______ _____ _____    ______ ____
ROOT
ATOM      1  C   UNL     1       5.676   5.247  15.818  0.00  0.00    +0.000 C 
ENDROOT
BRANCH   1   4
ATOM      2  C   UNL     1       3.667   3.647  18.684  0.00  0.00    +0.000 A 
ATOM      3  C   UNL     1       4.422   3.799  17.506  0.00  0.00    +0.000 A 
ATOM      4  C   UNL     1       4.671   5.052  16.940  0.00  0.00    +0.000 A 
ATOM      5  C   UNL     1       4.042   6.153  17.531  0.00  0.00    +0.000 A 
ATOM      6  C   UNL     1       3.213   6.025  18.663  0.00  0.00    +0.000 A 
ATOM      7  C   UNL     1       3.021   4.761  19.262  0.00  0.00    +0.000 A 
BRANCH   2   9
ATOM      8  C   UNL     1       4.566   2.062  20.207  0.00  0.00    +0.000 C 
ATOM      9  O   UNL     1       3.550   2.406  19.261  0.00  0.00    +0.000 OA
ENDBRANCH   2   9
BRANCH   6  10
ATOM     10  O   UNL     1       2.720   7.247  19.055  0.00  0.00    +0.000 OA
ATOM     11  C   UNL     1       2.199   8.140  18.084  0.00  0.00    +0.000 C 
ENDBRANCH   6  10
BRANCH   7  12
ATOM     12  O   UNL     1       2.211   4.734  20.365  0.00  0.00    +0.000 OA
ATOM     13  C   UNL     1       0.913   4.169  20.304  0.00  0.00    +0.000 C 
ENDBRANCH   7  12
ENDBRANCH   1   4
BRANCH   1  14
ATOM     14  O   UNL     1       5.340   6.389  15.012  0.00  0.00    +0.000 OA
ATOM     15  H   UNL     1       5.204   7.120  15.637  0.00  0.00    +0.000 HD
ENDBRANCH   1  14
BRANCH   1  16
ATOM     16  C   UNL     1       7.160   5.365  16.216  0.00  0.00    +0.000 C 
BRANCH  16  17
ATOM     17  N   UNL     1       7.575   6.739  16.473  0.00  0.00    +0.000 N 
ATOM     18  C   UNL     1       7.710   7.192  17.756  0.00  0.00    +0.000 C 
ATOM     19  O   UNL     1       7.542   6.504  18.755  0.00  0.00    +0.000 OA
ATOM     20  H   UNL     1       7.784   7.339  15.691  0.00  0.00    +0.000 HD
BRANCH  18  21
ATOM     21  C   UNL     1       8.089   8.622  17.837  0.00  0.00    +0.000 C 
ATOM     22  C   UNL     1       8.805   9.048  18.890  0.00  0.00    +0.000 C 
BRANCH  22  23
ATOM     23  C   UNL     1       9.252  10.432  19.085  0.00  0.00    +0.000 A 
ATOM     24  C   UNL     1       9.148  11.332  18.015  0.00  0.00    +0.000 A 
ATOM     25  C   UNL     1       9.537  12.665  18.164  0.00  0.00    +0.000 A 
ATOM     26  C   UNL     1      10.027  13.114  19.388  0.00  0.00    +0.000 A 
ATOM     27  C   UNL     1      10.113  12.238  20.465  0.00  0.00    +0.000 A 
ATOM     28  C   UNL     1       9.721  10.906  20.317  0.00  0.00    +0.000 A 
ENDBRANCH  22  23
ENDBRANCH  18  21
ENDBRANCH  16  17
ENDBRANCH   1  16
TORSDOF 9
ENDMDL
MODEL 2
REMARK VINA RESULT:      -7.9      0.515      2.568
REMARK  Name = 
REMARK  12 active torsions:
REMARK  status: ('A' for Active; 'I' for Inactive)
REMARK    1  A    between atoms: C_1  and  O_2
REMARK    2  A    between atoms: O_2  and  C_3
REMARK    3  A    between atoms: C_5  and  C_6
REMARK    4  A    between atoms: C_6  and  O_7
REMARK    5  A    between atoms: C_6  and  C_8
REMARK    6  A    between atoms: C_8  and  N_9
REMARK    7  A    between atoms: C_10  and  C_12
REMARK    8  A    between atoms: C_13  and  C_14
REMARK    9  A    between atoms: C_21  and  O_22
REMARK   10  A    between atoms: O_22  and  C_23
REMARK   11  A    between atoms: C_24  and  O_25
REMARK   12  A    between atoms: O_25  and  C_26
REMARK                            x       y       z     vdW  Elec       q    Type
REMARK                         _______ _______ _______ _____ _____    ______ ____
ROOT
ATOM      1  C   UNL     1       5.535   5.397  16.055  0.00  0.00    +0.000 C 
ENDROOT
BRANCH   1   4
ATOM      2  C   UNL     1       2.970   6.487  18.707  0.00  0.00    +0.000 A 
ATOM      3  C   UNL     1       3.965   6.537  17.713  0.00  0.00    +0.000 A 
ATOM      4  C   UNL     1       4.642   5.393  17.283  0.00  0.00    +0.000 A 
ATOM      5  C   UNL     1       4.372   4.201  17.963  0.00  0.00    +0.000 A 
ATOM      6  C   UNL     1       3.441   4.133  19.018  0.00  0.00    +0.000 A 
ATOM      7  C   UNL     1       2.717   5.284  19.400  0.00  0.00    +0.000 A 
BRANCH   2   9
ATOM      8  C   UNL     1       2.212   8.620  17.987  0.00  0.00    +0.000 C 
ATOM      9  O   UNL     1       2.255   7.620  19.010  0.00  0.00    +0.000 OA
ENDBRANCH   2   9
BRANCH   6  10
ATOM     10  O   UNL     1       3.352   2.855  19.516  0.00  0.00    +0.000 OA
ATOM     11  C   UNL     1       3.685   1.752  18.689  0.00  0.00    +0.000 C 
ENDBRANCH   6  10
BRANCH   7  12
ATOM     12  O   UNL     1       1.826   5.122  20.425  0.00  0.00    +0.000 OA
ATOM     13  C   UNL     1       0.842   4.102  20.383  0.00  0.00    +0.000 C 
ENDBRANCH   7  12
ENDBRANCH   1   4
BRANCH   1  14
ATOM     14  O   UNL     1       5.144   6.427  15.131  0.00  0.00    +0.000 OA
ATOM     15  H   UNL     1       5.074   5.990  14.266  0.00  0.00    +0.000 HD
ENDBRANCH   1  14
BRANCH   1  16
ATOM     16  C   UNL     1       7.054   5.520  16.290  0.00  0.00    +0.000 C 
BRANCH  16  17
ATOM     17  N   UNL     1       7.487   6.894  16.516  0.00  0.00    +0.000 N 
ATOM     18  C   UNL     1       7.814   7.318  17.774  0.00  0.00    +0.000 C 
ATOM     19  O   UNL     1       7.810   6.603  18.768  0.00  0.00    +0.000 OA
ATOM     20  H   UNL     1       7.566   7.516  15.727  0.00  0.00    +0.000 HD
BRANCH  18  21
ATOM     21  C   UNL     1       8.184   8.751  17.834  0.00  0.00    +0.000 C 
ATOM     22  C   UNL     1       8.862   9.206  18.900  0.00  0.00    +0.000 C 
BRANCH  22  23
ATOM     23  C   UNL     1       9.296  10.596  19.076  0.00  0.00    +0.000 A 
ATOM     24  C   UNL     1       9.054  11.515  18.046  0.00  0.00    +0.000 A 
ATOM     25  C   UNL     1       9.428  12.853  18.182  0.00  0.00    +0.000 A 
ATOM     26  C   UNL     1      10.039  13.290  19.354  0.00  0.00    +0.000 A 
ATOM     27  C   UNL     1      10.265  12.393  20.395  0.00  0.00    +0.000 A 
ATOM     28  C   UNL     1       9.888  11.056  20.260  0.00  0.00    +0.000 A 
ENDBRANCH  22  23
ENDBRANCH  18  21
ENDBRANCH  16  17
ENDBRANCH   1  16
TORSDOF 9
ENDMDL
MODEL 3
REMARK VINA RESULT:      -7.5      1.413      1.884
REMARK  Name = 
REMARK  12 active torsions:
REMARK  status: ('A' for Active; 'I' for Inactive)
REMARK    1  A    between atoms: C_1  and  O_2
REMARK    2  A    between atoms: O_2  and  C_3
REMARK    3  A    between atoms: C_5  and  C_6
REMARK    4  A    between atoms: C_6  and  O_7
REMARK    5  A    between atoms: C_6  and  C_8
REMARK    6  A    between atoms: C_8  and  N_9
REMARK    7  A    between atoms: C_10  and  C_12
REMARK    8  A    between atoms: C_13  and  C_14
REMARK    9  A    between atoms: C_21  and  O_22
REMARK   10  A    between atoms: O_22  and  C_23
REMARK   11  A    between atoms: C_24  and  O_25
REMARK   12  A    between atoms: O_25  and  C_26
REMARK                            x       y       z     vdW  Elec       q    Type
REMARK                         _______ _______ _______ _____ _____    ______ ____
ROOT
ATOM      1  C   UNL     1       4.239   6.598  16.996  0.00  0.00    +0.000 C 
ENDROOT
BRANCH   1   4
ATOM      2  C   UNL     1       2.389   3.571  18.485  0.00  0.00    +0.000 A 
ATOM      3  C   UNL     1       3.075   4.403  17.581  0.00  0.00    +0.000 A 
ATOM      4  C   UNL     1       3.300   5.757  17.843  0.00  0.00    +0.000 A 
ATOM      5  C   UNL     1       2.717   6.287  18.998  0.00  0.00    +0.000 A 
ATOM      6  C   UNL     1       1.955   5.499  19.883  0.00  0.00    +0.000 A 
ATOM      7  C   UNL     1       1.787   4.118  19.639  0.00  0.00    +0.000 A 
BRANCH   2   9
ATOM      8  C   UNL     1       3.512   1.482  18.356  0.00  0.00    +0.000 C 
ATOM      9  O   UNL     1       2.295   2.224  18.232  0.00  0.00    +0.000 OA
ENDBRANCH   2   9
BRANCH   6  10
ATOM     10  O   UNL     1       1.496   6.247  20.941  0.00  0.00    +0.000 OA
ATOM     11  C   UNL     1       1.521   7.663  20.864  0.00  0.00    +0.000 C 
ENDBRANCH   6  10
BRANCH   7  12
ATOM     12  O   UNL     1       1.043   3.430  20.558  0.00  0.00    +0.000 OA
ATOM     13  C   UNL     1       1.663   2.736  21.627  0.00  0.00    +0.000 C 
ENDBRANCH   7  12
ENDBRANCH   1   4
BRANCH   1  14
ATOM     14  O   UNL     1       4.118   7.994  17.316  0.00  0.00    +0.000 OA
ATOM     15  H   UNL     1       4.619   8.119  18.139  0.00  0.00    +0.000 HD
ENDBRANCH   1  14
BRANCH   1  16
ATOM     16  C   UNL     1       5.736   6.230  17.029  0.00  0.00    +0.000 C 
BRANCH  16  17
ATOM     17  N   UNL     1       6.610   7.397  17.040  0.00  0.00    +0.000 N 
ATOM     18  C   UNL     1       7.660   7.466  17.914  0.00  0.00    +0.000 C 
ATOM     19  O   UNL     1       7.967   6.579  18.699  0.00  0.00    +0.000 OA
ATOM     20  H   UNL     1       6.444   8.137  16.378  0.00  0.00    +0.000 HD
BRANCH  18  21
ATOM     21  C   UNL     1       8.414   8.738  17.827  0.00  0.00    +0.000 C 
ATOM     22  C   UNL     1       8.749   9.377  18.959  0.00  0.00    +0.000 C 
BRANCH  22  23
ATOM     23  C   UNL     1       9.501  10.636  19.011  0.00  0.00    +0.000 A 
ATOM     24  C   UNL     1      10.011  11.067  20.243  0.00  0.00    +0.000 A 
ATOM     25  C   UNL     1      10.754  12.246  20.334  0.00  0.00    +0.000 A 
ATOM     26  C   UNL     1      11.004  13.001  19.191  0.00  0.00    +0.000 A 
ATOM     27  C   UNL     1      10.524  12.573  17.958  0.00  0.00    +0.000 A 
ATOM     28  C   UNL     1       9.783  11.393  17.866  0.00  0.00    +0.000 A 
ENDBRANCH  22  23
ENDBRANCH  18  21
ENDBRANCH  16  17
ENDBRANCH   1  16
TORSDOF 9
ENDMDL
MODEL 4
REMARK VINA RESULT:      -7.5      0.552      1.093
REMARK  Name = 
REMARK  12 active torsions:
REMARK  status: ('A' for Active; 'I' for Inactive)
REMARK    1  A    between atoms: C_1  and  O_2
REMARK    2  A    between atoms: O_2  and  C_3
REMARK    3  A    between atoms: C_5  and  C_6
REMARK    4  A    between atoms: C_6  and  O_7
REMARK    5  A    between atoms: C_6  and  C_8
REMARK    6  A    between atoms: C_8  and  N_9
REMARK    7  A    between atoms: C_10  and  C_12
REMARK    8  A    between atoms: C_13  and  C_14
REMARK    9  A    between atoms: C_21  and  O_22
REMARK   10  A    between atoms: O_22  and  C_23
REMARK   11  A    between atoms: C_24  and  O_25
REMARK   12  A    between atoms: O_25  and  C_26
REMARK                            x       y       z     vdW  Elec       q    Type
REMARK                         _______ _______ _______ _____ _____    ______ ____
ROOT
ATOM      1  C   UNL     1       5.767   4.721  15.731  0.00  0.00    +0.000 C 
ENDROOT
BRANCH   1   4
ATOM      2  C   UNL     1       3.539   3.587  18.655  0.00  0.00    +0.000 A 
ATOM      3  C   UNL     1       4.320   3.561  17.485  0.00  0.00    +0.000 A 
ATOM      4  C   UNL     1       4.732   4.732  16.843  0.00  0.00    +0.000 A 
ATOM      5  C   UNL     1       4.241   5.940  17.346  0.00  0.00    +0.000 A 
ATOM      6  C   UNL     1       3.390   5.995  18.467  0.00  0.00    +0.000 A 
ATOM      7  C   UNL     1       3.032   4.810  19.145  0.00  0.00    +0.000 A 
BRANCH   2   9
ATOM      8  C   UNL     1       3.569   1.212  18.597  0.00  0.00    +0.000 C 
ATOM      9  O   UNL     1       3.258   2.412  19.311  0.00  0.00    +0.000 OA
ENDBRANCH   2   9
BRANCH   6  10
ATOM     10  O   UNL     1       3.051   7.294  18.766  0.00  0.00    +0.000 OA
ATOM     11  C   UNL     1       1.926   7.890  18.142  0.00  0.00    +0.000 C 
ENDBRANCH   6  10
BRANCH   7  12
ATOM     12  O   UNL     1       2.213   4.960  20.230  0.00  0.00    +0.000 OA
ATOM     13  C   UNL     1       0.931   4.357  20.267  0.00  0.00    +0.000 C 
ENDBRANCH   7  12
ENDBRANCH   1   4
BRANCH   1  14
ATOM     14  O   UNL     1       5.429   5.661  14.697  0.00  0.00    +0.000 OA
ATOM     15  H   UNL     1       5.877   6.489  14.939  0.00  0.00    +0.000 HD
ENDBRANCH   1  14
BRANCH   1  16
ATOM     16  C   UNL     1       7.235   4.963  16.133  0.00  0.00    +0.000 C 
BRANCH  16  17
ATOM     17  N   UNL     1       7.537   6.369  16.372  0.00  0.00    +0.000 N 
ATOM     18  C   UNL     1       7.654   6.844  17.649  0.00  0.00    +0.000 C 
ATOM     19  O   UNL     1       7.559   6.154  18.656  0.00  0.00    +0.000 OA
ATOM     20  H   UNL     1       7.683   6.978  15.582  0.00  0.00    +0.000 HD
BRANCH  18  21
ATOM     21  C   UNL     1       7.913   8.301  17.712  0.00  0.00    +0.000 C 
ATOM     22  C   UNL     1       8.682   8.785  18.701  0.00  0.00    +0.000 C 
BRANCH  22  23
ATOM     23  C   UNL     1       9.023  10.202  18.870  0.00  0.00    +0.000 A 
ATOM     24  C   UNL     1       9.599  10.618  20.078  0.00  0.00    +0.000 A 
ATOM     25  C   UNL     1       9.962  11.952  20.273  0.00  0.00    +0.000 A 
ATOM     26  C   UNL     1       9.762  12.883  19.257  0.00  0.00    +0.000 A 
ATOM     27  C   UNL     1       9.212  12.480  18.044  0.00  0.00    +0.000 A 
ATOM     28  C   UNL     1       8.852  11.145  17.849  0.00  0.00    +0.000 A 
ENDBRANCH  22  23
ENDBRANCH  18  21
ENDBRANCH  16  17
ENDBRANCH   1  16
TORSDOF 9
ENDMDL
MODEL 5
REMARK VINA RESULT:      -7.5      1.210      2.830
REMARK  Name = 
REMARK  12 active torsions:
REMARK  status: ('A' for Active; 'I' for Inactive)
REMARK    1  A    between atoms: C_1  and  O_2
REMARK    2  A    between atoms: O_2  and  C_3
REMARK    3  A    between atoms: C_5  and  C_6
REMARK    4  A    between atoms: C_6  and  O_7
REMARK    5  A    between atoms: C_6  and  C_8
REMARK    6  A    between atoms: C_8  and  N_9
REMARK    7  A    between atoms: C_10  and  C_12
REMARK    8  A    between atoms: C_13  and  C_14
REMARK    9  A    between atoms: C_21  and  O_22
REMARK   10  A    between atoms: O_22  and  C_23
REMARK   11  A    between atoms: C_24  and  O_25
REMARK   12  A    between atoms: O_25  and  C_26
REMARK                            x       y       z     vdW  Elec       q    Type
REMARK                         _______ _______ _______ _____ _____    ______ ____
ROOT
ATOM      1  C   UNL     1       5.930   5.518  16.099  0.00  0.00    +0.000 C 
ENDROOT
BRANCH   1   4
ATOM      2  C   UNL     1       2.737   6.000  18.190  0.00  0.00    +0.000 A 
ATOM      3  C   UNL     1       3.979   6.244  17.576  0.00  0.00    +0.000 A 
ATOM      4  C   UNL     1       4.718   5.227  16.967  0.00  0.00    +0.000 A 
ATOM      5  C   UNL     1       4.228   3.923  17.090  0.00  0.00    +0.000 A 
ATOM      6  C   UNL     1       3.029   3.634  17.770  0.00  0.00    +0.000 A 
ATOM      7  C   UNL     1       2.258   4.679  18.326  0.00  0.00    +0.000 A 
BRANCH   2   9
ATOM      8  C   UNL     1       2.408   8.352  18.232  0.00  0.00    +0.000 C 
ATOM      9  O   UNL     1       1.998   7.053  18.671  0.00  0.00    +0.000 OA
ENDBRANCH   2   9
BRANCH   6  10
ATOM     10  O   UNL     1       2.761   2.286  17.747  0.00  0.00    +0.000 OA
ATOM     11  C   UNL     1       3.543   1.399  18.529  0.00  0.00    +0.000 C 
ENDBRANCH   6  10
BRANCH   7  12
ATOM     12  O   UNL     1       1.103   4.306  18.956  0.00  0.00    +0.000 OA
ATOM     13  C   UNL     1       1.080   4.054  20.350  0.00  0.00    +0.000 C 
ENDBRANCH   7  12
ENDBRANCH   1   4
BRANCH   1  14
ATOM     14  O   UNL     1       5.636   6.526  15.116  0.00  0.00    +0.000 OA
ATOM     15  H   UNL     1       6.268   6.379  14.393  0.00  0.00    +0.000 HD
ENDBRANCH   1  14
BRANCH   1  16
ATOM     16  C   UNL     1       7.231   5.922  16.820  0.00  0.00    +0.000 C 
BRANCH  16  17
ATOM     17  N   UNL     1       7.482   7.358  16.784  0.00  0.00    +0.000 N 
ATOM     18  C   UNL     1       8.052   7.988  17.856  0.00  0.00    +0.000 C 
ATOM     19  O   UNL     1       8.422   7.420  18.876  0.00  0.00    +0.000 OA
ATOM     20  H   UNL     1       7.252   7.872  15.948  0.00  0.00    +0.000 HD
BRANCH  18  21
ATOM     21  C   UNL     1       8.190   9.451  17.672  0.00  0.00    +0.000 C 
ATOM     22  C   UNL     1       9.230  10.084  18.238  0.00  0.00    +0.000 C 
BRANCH  22  23
ATOM     23  C   UNL     1       9.486  11.524  18.125  0.00  0.00    +0.000 A 
ATOM     24  C   UNL     1       8.409  12.413  18.241  0.00  0.00    +0.000 A 
ATOM     25  C   UNL     1       8.611  13.793  18.165  0.00  0.00    +0.000 A 
ATOM     26  C   UNL     1       9.896  14.299  17.982  0.00  0.00    +0.000 A 
ATOM     27  C   UNL     1      10.978  13.429  17.889  0.00  0.00    +0.000 A 
ATOM     28  C   UNL     1      10.775  12.049  17.968  0.00  0.00    +0.000 A 
ENDBRANCH  22  23
ENDBRANCH  18  21
ENDBRANCH  16  17
ENDBRANCH   1  16
TORSDOF 9
ENDMDL
MODEL 6
REMARK VINA RESULT:      -7.3      1.169      1.589
REMARK  Name = 
REMARK  12 active torsions:
REMARK  status: ('A' for Active; 'I' for Inactive)
REMARK    1  A    between atoms: C_1  and  O_2
REMARK    2  A    between atoms: O_2  and  C_3
REMARK    3  A    between atoms: C_5  and  C_6
REMARK    4  A    between atoms: C_6  and  O_7
REMARK    5  A    between atoms: C_6  and  C_8
REMARK    6  A    between atoms: C_8  and  N_9
REMARK    7  A    between atoms: C_10  and  C_12
REMARK    8  A    between atoms: C_13  and  C_14
REMARK    9  A    between atoms: C_21  and  O_22
REMARK   10  A    between atoms: O_22  and  C_23
REMARK   11  A    between atoms: C_24  and  O_25
REMARK   12  A    between atoms: O_25  and  C_26
REMARK                            x       y       z     vdW  Elec       q    Type
REMARK                         _______ _______ _______ _____ _____    ______ ____
ROOT
ATOM      1  C   UNL     1       4.845   5.934  16.728  0.00  0.00    +0.000 C 
ENDROOT
BRANCH   1   4
ATOM      2  C   UNL     1       4.252   3.479  19.630  0.00  0.00    +0.000 A 
ATOM      3  C   UNL     1       4.716   4.028  18.420  0.00  0.00    +0.000 A 
ATOM      4  C   UNL     1       4.193   5.212  17.894  0.00  0.00    +0.000 A 
ATOM      5  C   UNL     1       3.103   5.778  18.562  0.00  0.00    +0.000 A 
ATOM      6  C   UNL     1       2.561   5.208  19.731  0.00  0.00    +0.000 A 
ATOM      7  C   UNL     1       3.140   4.047  20.288  0.00  0.00    +0.000 A 
BRANCH   2   9
ATOM      8  C   UNL     1       4.447   1.112  19.654  0.00  0.00    +0.000 C 
ATOM      9  O   UNL     1       4.879   2.378  20.162  0.00  0.00    +0.000 OA
ENDBRANCH   2   9
BRANCH   6  10
ATOM     10  O   UNL     1       1.504   5.952  20.198  0.00  0.00    +0.000 OA
ATOM     11  C   UNL     1       1.737   7.232  20.761  0.00  0.00    +0.000 C 
ENDBRANCH   6  10
BRANCH   7  12
ATOM     12  O   UNL     1       2.556   3.572  21.430  0.00  0.00    +0.000 OA
ATOM     13  C   UNL     1       1.437   2.705  21.373  0.00  0.00    +0.000 C 
ENDBRANCH   7  12
ENDBRANCH   1   4
BRANCH   1  14
ATOM     14  O   UNL     1       4.401   7.299  16.648  0.00  0.00    +0.000 OA
ATOM     15  H   UNL     1       4.048   7.512  17.528  0.00  0.00    +0.000 HD
ENDBRANCH   1  14
BRANCH   1  16
ATOM     16  C   UNL     1       6.386   5.931  16.671  0.00  0.00    +0.000 C 
BRANCH  16  17
ATOM     17  N   UNL     1       6.964   7.263  16.806  0.00  0.00    +0.000 N 
ATOM     18  C   UNL     1       7.760   7.566  17.876  0.00  0.00    +0.000 C 
ATOM     19  O   UNL     1       8.074   6.771  18.753  0.00  0.00    +0.000 OA
ATOM     20  H   UNL     1       6.790   7.946  16.086  0.00  0.00    +0.000 HD
BRANCH  18  21
ATOM     21  C   UNL     1       8.223   8.973  17.884  0.00  0.00    +0.000 C 
ATOM     22  C   UNL     1       8.926   9.422  18.936  0.00  0.00    +0.000 C 
BRANCH  22  23
ATOM     23  C   UNL     1       9.450  10.787  19.063  0.00  0.00    +0.000 A 
ATOM     24  C   UNL     1      10.059  11.167  20.266  0.00  0.00    +0.000 A 
ATOM     25  C   UNL     1      10.594  12.448  20.422  0.00  0.00    +0.000 A 
ATOM     26  C   UNL     1      10.534  13.359  19.371  0.00  0.00    +0.000 A 
ATOM     27  C   UNL     1       9.953  12.988  18.162  0.00  0.00    +0.000 A 
ATOM     28  C   UNL     1       9.421  11.706  18.006  0.00  0.00    +0.000 A 
ENDBRANCH  22  23
ENDBRANCH  18  21
ENDBRANCH  16  17
ENDBRANCH   1  16
TORSDOF 9
ENDMDL
MODEL 7
REMARK VINA RESULT:      -7.3      1.507      2.088
REMARK  Name = 
REMARK  12 active torsions:
REMARK  status: ('A' for Active; 'I' for Inactive)
REMARK    1  A    between atoms: C_1  and  O_2
REMARK    2  A    between atoms: O_2  and  C_3
REMARK    3  A    between atoms: C_5  and  C_6
REMARK    4  A    between atoms: C_6  and  O_7
REMARK    5  A    between atoms: C_6  and  C_8
REMARK    6  A    between atoms: C_8  and  N_9
REMARK    7  A    between atoms: C_10  and  C_12
REMARK    8  A    between atoms: C_13  and  C_14
REMARK    9  A    between atoms: C_21  and  O_22
REMARK   10  A    between atoms: O_22  and  C_23
REMARK   11  A    between atoms: C_24  and  O_25
REMARK   12  A    between atoms: O_25  and  C_26
REMARK                            x       y       z     vdW  Elec       q    Type
REMARK                         _______ _______ _______ _____ _____    ______ ____
ROOT
ATOM      1  C   UNL     1       4.661   5.058  17.205  0.00  0.00    +0.000 C 
ENDROOT
BRANCH   1   4
ATOM      2  C   UNL     1       2.282   5.555  20.187  0.00  0.00    +0.000 A 
ATOM      3  C   UNL     1       3.075   4.939  19.200  0.00  0.00    +0.000 A 
ATOM      4  C   UNL     1       3.616   5.656  18.130  0.00  0.00    +0.000 A 
ATOM      5  C   UNL     1       3.245   6.999  18.011  0.00  0.00    +0.000 A 
ATOM      6  C   UNL     1       2.386   7.625  18.937  0.00  0.00    +0.000 A 
ATOM      7  C   UNL     1       1.897   6.906  20.049  0.00  0.00    +0.000 A 
BRANCH   2   9
ATOM      8  C   UNL     1       2.230   3.444  21.276  0.00  0.00    +0.000 C 
ATOM      9  O   UNL     1       1.871   4.829  21.279  0.00  0.00    +0.000 OA
ENDBRANCH   2   9
BRANCH   6  10
ATOM     10  O   UNL     1       2.179   8.943  18.605  0.00  0.00    +0.000 OA
ATOM     11  C   UNL     1       1.026   9.310  17.866  0.00  0.00    +0.000 C 
ENDBRANCH   6  10
BRANCH   7  12
ATOM     12  O   UNL     1       1.081   7.597  20.901  0.00  0.00    +0.000 OA
ATOM     13  C   UNL     1       1.604   8.580  21.779  0.00  0.00    +0.000 C 
ENDBRANCH   7  12
ENDBRANCH   1   4
BRANCH   1  14
ATOM     14  O   UNL     1       4.868   5.888  16.049  0.00  0.00    +0.000 OA
ATOM     15  H   UNL     1       5.389   5.350  15.430  0.00  0.00    +0.000 HD
ENDBRANCH   1  14
BRANCH   1  16
ATOM     16  C   UNL     1       6.041   4.739  17.814  0.00  0.00    +0.000 C 
BRANCH  16  17
ATOM     17  N   UNL     1       6.700   5.911  18.380  0.00  0.00    +0.000 N 
ATOM     18  C   UNL     1       7.458   6.728  17.587  0.00  0.00    +0.000 C 
ATOM     19  O   UNL     1       7.609   6.577  16.382  0.00  0.00    +0.000 OA
ATOM     20  H   UNL     1       6.566   6.121  19.356  0.00  0.00    +0.000 HD
BRANCH  18  21
ATOM     21  C   UNL     1       8.094   7.840  18.330  0.00  0.00    +0.000 C 
ATOM     22  C   UNL     1       8.178   9.048  17.750  0.00  0.00    +0.000 C 
BRANCH  22  23
ATOM     23  C   UNL     1       8.773  10.233  18.379  0.00  0.00    +0.000 A 
ATOM     24  C   UNL     1       8.639  11.474  17.744  0.00  0.00    +0.000 A 
ATOM     25  C   UNL     1       9.168  12.631  18.319  0.00  0.00    +0.000 A 
ATOM     26  C   UNL     1       9.829  12.560  19.543  0.00  0.00    +0.000 A 
ATOM     27  C   UNL     1       9.949  11.337  20.197  0.00  0.00    +0.000 A 
ATOM     28  C   UNL     1       9.417  10.181  19.622  0.00  0.00    +0.000 A 
ENDBRANCH  22  23
ENDBRANCH  18  21
ENDBRANCH  16  17
ENDBRANCH   1  16
TORSDOF 9
ENDMDL
MODEL 8
REMARK VINA RESULT:      -7.2      1.400      2.773
REMARK  Name = 
REMARK  12 active torsions:
REMARK  status: ('A' for Active; 'I' for Inactive)
REMARK    1  A    between atoms: C_1  and  O_2
REMARK    2  A    between atoms: O_2  and  C_3
REMARK    3  A    between atoms: C_5  and  C_6
REMARK    4  A    between atoms: C_6  and  O_7
REMARK    5  A    between atoms: C_6  and  C_8
REMARK    6  A    between atoms: C_8  and  N_9
REMARK    7  A    between atoms: C_10  and  C_12
REMARK    8  A    between atoms: C_13  and  C_14
REMARK    9  A    between atoms: C_21  and  O_22
REMARK   10  A    between atoms: O_22  and  C_23
REMARK   11  A    between atoms: C_24  and  O_25
REMARK   12  A    between atoms: O_25  and  C_26
REMARK                            x       y       z     vdW  Elec       q    Type
REMARK                         _______ _______ _______ _____ _____    ______ ____
ROOT
ATOM      1  C   UNL     1       4.170   6.725  16.968  0.00  0.00    +0.000 C 
ENDROOT
BRANCH   1   4
ATOM      2  C   UNL     1       2.401   5.538  20.172  0.00  0.00    +0.000 A 
ATOM      3  C   UNL     1       2.924   6.374  19.168  0.00  0.00    +0.000 A 
ATOM      4  C   UNL     1       3.795   5.897  18.185  0.00  0.00    +0.000 A 
ATOM      5  C   UNL     1       4.221   4.570  18.302  0.00  0.00    +0.000 A 
ATOM      6  C   UNL     1       3.780   3.730  19.342  0.00  0.00    +0.000 A 
ATOM      7  C   UNL     1       2.850   4.205  20.293  0.00  0.00    +0.000 A 
BRANCH   2   9
ATOM      8  C   UNL     1       1.345   7.455  21.095  0.00  0.00    +0.000 C 
ATOM      9  O   UNL     1       1.460   6.030  21.043  0.00  0.00    +0.000 OA
ENDBRANCH   2   9
BRANCH   6  10
ATOM     10  O   UNL     1       4.336   2.477  19.234  0.00  0.00    +0.000 OA
ATOM     11  C   UNL     1       3.639   1.456  18.538  0.00  0.00    +0.000 C 
ENDBRANCH   6  10
BRANCH   7  12
ATOM     12  O   UNL     1       2.468   3.316  21.259  0.00  0.00    +0.000 OA
ATOM     13  C   UNL     1       1.174   2.739  21.251  0.00  0.00    +0.000 C 
ENDBRANCH   7  12
ENDBRANCH   1   4
BRANCH   1  14
ATOM     14  O   UNL     1       3.980   8.129  17.216  0.00  0.00    +0.000 OA
ATOM     15  H   UNL     1       3.760   8.201  18.160  0.00  0.00    +0.000 HD
ENDBRANCH   1  14
BRANCH   1  16
ATOM     16  C   UNL     1       5.588   6.532  16.396  0.00  0.00    +0.000 C 
BRANCH  16  17
ATOM     17  N   UNL     1       6.585   7.377  17.041  0.00  0.00    +0.000 N 
ATOM     18  C   UNL     1       7.493   6.836  17.910  0.00  0.00    +0.000 C 
ATOM     19  O   UNL     1       7.569   5.644  18.179  0.00  0.00    +0.000 OA
ATOM     20  H   UNL     1       6.611   8.359  16.817  0.00  0.00    +0.000 HD
BRANCH  18  21
ATOM     21  C   UNL     1       8.399   7.841  18.513  0.00  0.00    +0.000 C 
ATOM     22  C   UNL     1       8.284   9.127  18.145  0.00  0.00    +0.000 C 
BRANCH  22  23
ATOM     23  C   UNL     1       9.111  10.218  18.673  0.00  0.00    +0.000 A 
ATOM     24  C   UNL     1       9.707  11.110  17.772  0.00  0.00    +0.000 A 
ATOM     25  C   UNL     1      10.481  12.178  18.231  0.00  0.00    +0.000 A 
ATOM     26  C   UNL     1      10.659  12.371  19.598  0.00  0.00    +0.000 A 
ATOM     27  C   UNL     1      10.054  11.507  20.506  0.00  0.00    +0.000 A 
ATOM     28  C   UNL     1       9.278  10.441  20.046  0.00  0.00    +0.000 A 
ENDBRANCH  22  23
ENDBRANCH  18  21
ENDBRANCH  16  17
ENDBRANCH   1  16
TORSDOF 9
ENDMDL
MODEL 9
REMARK VINA RESULT:      -7.2      3.701      7.213
REMARK  Name = 
REMARK  12 active torsions:
REMARK  status: ('A' for Active; 'I' for Inactive)
REMARK    1  A    between atoms: C_1  and  O_2
REMARK    2  A    between atoms: O_2  and  C_3
REMARK    3  A    between atoms: C_5  and  C_6
REMARK    4  A    between atoms: C_6  and  O_7
REMARK    5  A    between atoms: C_6  and  C_8
REMARK    6  A    between atoms: C_8  and  N_9
REMARK    7  A    between atoms: C_10  and  C_12
REMARK    8  A    between atoms: C_13  and  C_14
REMARK    9  A    between atoms: C_21  and  O_22
REMARK   10  A    between atoms: O_22  and  C_23
REMARK   11  A    between atoms: C_24  and  O_25
REMARK   12  A    between atoms: O_25  and  C_26
REMARK                            x       y       z     vdW  Elec       q    Type
REMARK                         _______ _______ _______ _____ _____    ______ ____
ROOT
ATOM      1  C   UNL     1       7.010   5.589  19.204  0.00  0.00    +0.000 C 
ENDROOT
BRANCH   1   4
ATOM      2  C   UNL     1       3.199   5.720  18.693  0.00  0.00    +0.000 A 
ATOM      3  C   UNL     1       4.531   6.120  18.910  0.00  0.00    +0.000 A 
ATOM      4  C   UNL     1       5.541   5.202  19.208  0.00  0.00    +0.000 A 
ATOM      5  C   UNL     1       5.157   3.871  19.394  0.00  0.00    +0.000 A 
ATOM      6  C   UNL     1       3.818   3.451  19.265  0.00  0.00    +0.000 A 
ATOM      7  C   UNL     1       2.816   4.378  18.902  0.00  0.00    +0.000 A 
BRANCH   2   9
ATOM      8  C   UNL     1       2.795   7.879  17.787  0.00  0.00    +0.000 C 
ATOM      9  O   UNL     1       2.268   6.648  18.291  0.00  0.00    +0.000 OA
ENDBRANCH   2   9
BRANCH   6  10
ATOM     10  O   UNL     1       3.700   2.101  19.491  0.00  0.00    +0.000 OA
ATOM     11  C   UNL     1       3.904   1.188  18.425  0.00  0.00    +0.000 C 
ENDBRANCH   6  10
BRANCH   7  12
ATOM     12  O   UNL     1       1.548   3.879  18.787  0.00  0.00    +0.000 OA
ATOM     13  C   UNL     1       0.703   3.764  19.919  0.00  0.00    +0.000 C 
ENDBRANCH   7  12
ENDBRANCH   1   4
BRANCH   1  14
ATOM     14  O   UNL     1       7.591   5.435  20.510  0.00  0.00    +0.000 OA
ATOM     15  H   UNL     1       6.953   5.826  21.129  0.00  0.00    +0.000 HD
ENDBRANCH   1  14
BRANCH   1  16
ATOM     16  C   UNL     1       7.924   4.874  18.189  0.00  0.00    +0.000 C 
BRANCH  16  17
ATOM     17  N   UNL     1       7.183   4.216  17.119  0.00  0.00    +0.000 N 
ATOM     18  C   UNL     1       7.093   4.795  15.883  0.00  0.00    +0.000 C 
ATOM     19  O   UNL     1       7.635   5.848  15.571  0.00  0.00    +0.000 OA
ATOM     20  H   UNL     1       6.763   3.318  17.297  0.00  0.00    +0.000 HD
BRANCH  18  21
ATOM     21  C   UNL     1       6.265   4.021  14.931  0.00  0.00    +0.000 C 
ATOM     22  C   UNL     1       6.540   4.094  13.618  0.00  0.00    +0.000 C 
BRANCH  22  23
ATOM     23  C   UNL     1       5.805   3.371  12.574  0.00  0.00    +0.000 A 
ATOM     24  C   UNL     1       4.614   3.921  12.083  0.00  0.00    +0.000 A 
ATOM     25  C   UNL     1       3.896   3.279  11.072  0.00  0.00    +0.000 A 
ATOM     26  C   UNL     1       4.367   2.084  10.534  0.00  0.00    +0.000 A 
ATOM     27  C   UNL     1       5.561   1.538  10.996  0.00  0.00    +0.000 A 
ATOM     28  C   UNL     1       6.280   2.182  12.005  0.00  0.00    +0.000 A 
ENDBRANCH  22  23
ENDBRANCH  18  21
ENDBRANCH  16  17
ENDBRANCH   1  16
TORSDOF 9
ENDMDL
