MODEL 1
REMARK VINA RESULT:      -8.5      0.000      0.000
REMARK  Name = 
REMARK  9 active torsions:
REMARK  status: ('A' for Active; 'I' for Inactive)
REMARK    1  A    between atoms: C_2  and  O_3
REMARK    2  A    between atoms: C_2  and  C_20
REMARK    3  A    between atoms: O_3  and  C_4
REMARK    4  A    between atoms: N_6  and  C_7
REMARK    5  A    between atoms: C_7  and  C_8
REMARK    6  A    between atoms: C_8  and  C_9
REMARK    7  A    between atoms: C_20  and  O_21
REMARK    8  A    between atoms: C_20  and  C_22
REMARK    9  A    between atoms: C_20  and  C_28
REMARK                            x       y       z     vdW  Elec       q    Type
REMARK                         _______ _______ _______ _____ _____    ______ ____
ROOT
ATOM      1  O   UNL     1       3.405   7.847  17.387  0.00  0.00    +0.000 OA
ATOM      2  C   UNL     1       2.912   7.165  18.286  0.00  0.00    +0.000 C 
ENDROOT
BRANCH   2   3
ATOM      3  O   UNL     1       1.799   7.608  18.957  0.00  0.00    +0.000 OA
BRANCH   3   4
ATOM      4  C   UNL     1       1.860   9.015  19.308  0.00  0.00    +0.000 C 
ATOM      5  C   UNL     1       1.013   9.326  20.564  0.00  0.00    +0.000 C 
ATOM      6  N   UNL     1       0.061  10.534  20.305  0.00  0.00    +0.000 N 
ATOM      7  C   UNL     1       0.897  11.736  19.843  0.00  0.00    +0.000 C 
ATOM      8  C   UNL     1       1.639  11.379  18.554  0.00  0.00    +0.000 C 
ATOM      9  C   UNL     1       1.379   9.917  18.150  0.00  0.00    +0.000 C 
ATOM     10  C   UNL     1      -0.133   9.756  17.938  0.00  0.00    +0.000 C 
ATOM     11  C   UNL     1      -0.920  10.131  19.197  0.00  0.00    +0.000 C 
BRANCH   6  12
ATOM     12  C   UNL     1      -0.665  10.836  21.643  0.00  0.00    +0.000 C 
BRANCH  12  13
ATOM     13  C   UNL     1      -0.353  12.221  22.224  0.00  0.00    +0.000 C 
BRANCH  13  14
ATOM     14  C   UNL     1      -1.509  12.756  23.032  0.00  0.00    +0.000 A 
ATOM     15  C   UNL     1      -2.650  11.967  23.245  0.00  0.00    +0.000 A 
ATOM     16  C   UNL     1      -3.714  12.454  24.006  0.00  0.00    +0.000 A 
ATOM     17  C   UNL     1      -3.652  13.735  24.552  0.00  0.00    +0.000 A 
ATOM     18  C   UNL     1      -2.527  14.527  24.339  0.00  0.00    +0.000 A 
ATOM     19  C   UNL     1      -1.461  14.044  23.580  0.00  0.00    +0.000 A 
ENDBRANCH  13  14
ENDBRANCH  12  13
ENDBRANCH   6  12
ENDBRANCH   3   4
ENDBRANCH   2   3
BRANCH   2  20
ATOM     20  C   UNL     1       3.585   5.833  18.766  0.00  0.00    +0.000 C 
BRANCH  20  21
ATOM     21  C   UNL     1       2.532   4.759  19.081  0.00  0.00    +0.000 A 
ATOM     22  C   UNL     1       2.041   3.920  18.072  0.00  0.00    +0.000 A 
ATOM     23  C   UNL     1       1.139   2.891  18.367  0.00  0.00    +0.000 A 
ATOM     24  C   UNL     1       0.713   2.687  19.681  0.00  0.00    +0.000 A 
ATOM     25  C   UNL     1       1.173   3.517  20.694  0.00  0.00    +0.000 A 
ATOM     26  C   UNL     1       2.077   4.541  20.397  0.00  0.00    +0.000 A 
ENDBRANCH  20  21
BRANCH  20  27
ATOM     27  C   UNL     1       4.764   5.272  17.953  0.00  0.00    +0.000 A 
ATOM     28  C   UNL     1       6.040   5.187  18.562  0.00  0.00    +0.000 A 
ATOM     29  C   UNL     1       7.174   4.785  17.853  0.00  0.00    +0.000 A 
ATOM     30  C   UNL     1       7.061   4.434  16.515  0.00  0.00    +0.000 A 
ATOM     31  C   UNL     1       5.804   4.424  15.914  0.00  0.00    +0.000 A 
ATOM     32  C   UNL     1       4.665   4.816  16.629  0.00  0.00    +0.000 A 
ENDBRANCH  20  27
BRANCH  20  33
ATOM     33  O   UNL     1       4.185   6.257  20.026  0.00  0.00    +0.000 OA
ATOM     34  H   UNL     1       5.123   6.456  19.835  0.00  0.00    +0.000 HD
ENDBRANCH  20  33
ENDBRANCH   2  20
TORSDOF 9
ENDMDL
MODEL 2
REMARK VINA RESULT:      -8.5      0.796      1.038
REMARK  Name = 
REMARK  9 active torsions:
REMARK  status: ('A' for Active; 'I' for Inactive)
REMARK    1  A    between atoms: C_2  and  O_3
REMARK    2  A    between atoms: C_2  and  C_20
REMARK    3  A    between atoms: O_3  and  C_4
REMARK    4  A    between atoms: N_6  and  C_7
REMARK    5  A    between atoms: C_7  and  C_8
REMARK    6  A    between atoms: C_8  and  C_9
REMARK    7  A    between atoms: C_20  and  O_21
REMARK    8  A    between atoms: C_20  and  C_22
REMARK    9  A    between atoms: C_20  and  C_28
REMARK                            x       y       z     vdW  Elec       q    Type
REMARK                         _______ _______ _______ _____ _____    ______ ____
ROOT
ATOM      1  O   UNL     1       3.510   7.996  17.293  0.00  0.00    +0.000 OA
ATOM      2  C   UNL     1       2.961   7.276  18.129  0.00  0.00    +0.000 C 
ENDROOT
BRANCH   2   3
ATOM      3  O   UNL     1       1.796   7.682  18.731  0.00  0.00    +0.000 OA
BRANCH   3   4
ATOM      4  C   UNL     1       1.859   9.034  19.255  0.00  0.00    +0.000 C 
ATOM      5  C   UNL     1       1.054   9.175  20.568  0.00  0.00    +0.000 C 
ATOM      6  N   UNL     1       0.084  10.394  20.495  0.00  0.00    +0.000 N 
ATOM      7  C   UNL     1       0.894  11.655  20.160  0.00  0.00    +0.000 C 
ATOM      8  C   UNL     1       1.594  11.471  18.812  0.00  0.00    +0.000 C 
ATOM      9  C   UNL     1       1.330  10.069  18.237  0.00  0.00    +0.000 C 
ATOM     10  C   UNL     1      -0.187   9.918  18.056  0.00  0.00    +0.000 C 
ATOM     11  C   UNL     1      -0.932  10.122  19.379  0.00  0.00    +0.000 C 
BRANCH   6  12
ATOM     12  C   UNL     1      -0.597  10.517  21.884  0.00  0.00    +0.000 C 
BRANCH  12  13
ATOM     13  C   UNL     1      -0.812  11.964  22.349  0.00  0.00    +0.000 C 
BRANCH  13  14
ATOM     14  C   UNL     1      -2.275  12.328  22.365  0.00  0.00    +0.000 A 
ATOM     15  C   UNL     1      -2.996  12.316  23.568  0.00  0.00    +0.000 A 
ATOM     16  C   UNL     1      -4.347  12.668  23.586  0.00  0.00    +0.000 A 
ATOM     17  C   UNL     1      -4.989  13.027  22.403  0.00  0.00    +0.000 A 
ATOM     18  C   UNL     1      -4.284  13.035  21.203  0.00  0.00    +0.000 A 
ATOM     19  C   UNL     1      -2.934  12.684  21.180  0.00  0.00    +0.000 A 
ENDBRANCH  13  14
ENDBRANCH  12  13
ENDBRANCH   6  12
ENDBRANCH   3   4
ENDBRANCH   2   3
BRANCH   2  20
ATOM     20  C   UNL     1       3.616   5.935  18.608  0.00  0.00    +0.000 C 
BRANCH  20  21
ATOM     21  C   UNL     1       2.547   4.883  18.942  0.00  0.00    +0.000 A 
ATOM     22  C   UNL     1       2.040   4.036  17.947  0.00  0.00    +0.000 A 
ATOM     23  C   UNL     1       1.123   3.026  18.259  0.00  0.00    +0.000 A 
ATOM     24  C   UNL     1       0.698   2.848  19.578  0.00  0.00    +0.000 A 
ATOM     25  C   UNL     1       1.174   3.685  20.577  0.00  0.00    +0.000 A 
ATOM     26  C   UNL     1       2.092   4.691  20.262  0.00  0.00    +0.000 A 
ENDBRANCH  20  21
BRANCH  20  27
ATOM     27  C   UNL     1       4.775   5.347  17.785  0.00  0.00    +0.000 A 
ATOM     28  C   UNL     1       6.024   5.131  18.415  0.00  0.00    +0.000 A 
ATOM     29  C   UNL     1       7.147   4.699  17.706  0.00  0.00    +0.000 A 
ATOM     30  C   UNL     1       7.045   4.447  16.344  0.00  0.00    +0.000 A 
ATOM     31  C   UNL     1       5.808   4.568  15.717  0.00  0.00    +0.000 A 
ATOM     32  C   UNL     1       4.679   4.990  16.431  0.00  0.00    +0.000 A 
ENDBRANCH  20  27
BRANCH  20  33
ATOM     33  O   UNL     1       4.238   6.355  19.859  0.00  0.00    +0.000 OA
ATOM     34  H   UNL     1       3.832   5.816  20.566  0.00  0.00    +0.000 HD
ENDBRANCH  20  33
ENDBRANCH   2  20
TORSDOF 9
ENDMDL
MODEL 3
REMARK VINA RESULT:      -8.3      0.822      1.343
REMARK  Name = 
REMARK  9 active torsions:
REMARK  status: ('A' for Active; 'I' for Inactive)
REMARK    1  A    between atoms: C_2  and  O_3
REMARK    2  A    between atoms: C_2  and  C_20
REMARK    3  A    between atoms: O_3  and  C_4
REMARK    4  A    between atoms: N_6  and  C_7
REMARK    5  A    between atoms: C_7  and  C_8
REMARK    6  A    between atoms: C_8  and  C_9
REMARK    7  A    between atoms: C_20  and  O_21
REMARK    8  A    between atoms: C_20  and  C_22
REMARK    9  A    between atoms: C_20  and  C_28
REMARK                            x       y       z     vdW  Elec       q    Type
REMARK                         _______ _______ _______ _____ _____    ______ ____
ROOT
ATOM      1  O   UNL     1       3.235   7.777  17.076  0.00  0.00    +0.000 OA
ATOM      2  C   UNL     1       2.783   7.149  18.034  0.00  0.00    +0.000 C 
ENDROOT
BRANCH   2   3
ATOM      3  O   UNL     1       1.645   7.582  18.668  0.00  0.00    +0.000 OA
BRANCH   3   4
ATOM      4  C   UNL     1       1.765   8.922  19.216  0.00  0.00    +0.000 C 
ATOM      5  C   UNL     1       0.987   9.066  20.544  0.00  0.00    +0.000 C 
ATOM      6  N   UNL     1       0.060  10.320  20.509  0.00  0.00    +0.000 N 
ATOM      7  C   UNL     1       0.910  11.557  20.184  0.00  0.00    +0.000 C 
ATOM      8  C   UNL     1       1.582  11.374  18.822  0.00  0.00    +0.000 C 
ATOM      9  C   UNL     1       1.258   9.994  18.225  0.00  0.00    +0.000 C 
ATOM     10  C   UNL     1      -0.266   9.900  18.067  0.00  0.00    +0.000 C 
ATOM     11  C   UNL     1      -0.982  10.106  19.405  0.00  0.00    +0.000 C 
BRANCH   6  12
ATOM     12  C   UNL     1      -0.595  10.441  21.912  0.00  0.00    +0.000 C 
BRANCH  12  13
ATOM     13  C   UNL     1      -0.755  11.886  22.404  0.00  0.00    +0.000 C 
BRANCH  13  14
ATOM     14  C   UNL     1      -2.199  12.319  22.387  0.00  0.00    +0.000 A 
ATOM     15  C   UNL     1      -2.800  12.735  21.190  0.00  0.00    +0.000 A 
ATOM     16  C   UNL     1      -4.142  13.122  21.171  0.00  0.00    +0.000 A 
ATOM     17  C   UNL     1      -4.890  13.103  22.346  0.00  0.00    +0.000 A 
ATOM     18  C   UNL     1      -4.299  12.698  23.540  0.00  0.00    +0.000 A 
ATOM     19  C   UNL     1      -2.959  12.310  23.564  0.00  0.00    +0.000 A 
ENDBRANCH  13  14
ENDBRANCH  12  13
ENDBRANCH   6  12
ENDBRANCH   3   4
ENDBRANCH   2   3
BRANCH   2  20
ATOM     20  C   UNL     1       3.535   5.907  18.627  0.00  0.00    +0.000 C 
BRANCH  20  21
ATOM     21  C   UNL     1       2.548   4.804  19.038  0.00  0.00    +0.000 A 
ATOM     22  C   UNL     1       2.311   4.522  20.391  0.00  0.00    +0.000 A 
ATOM     23  C   UNL     1       1.358   3.571  20.772  0.00  0.00    +0.000 A 
ATOM     24  C   UNL     1       0.625   2.885  19.802  0.00  0.00    +0.000 A 
ATOM     25  C   UNL     1       0.854   3.136  18.456  0.00  0.00    +0.000 A 
ATOM     26  C   UNL     1       1.804   4.088  18.078  0.00  0.00    +0.000 A 
ENDBRANCH  20  21
BRANCH  20  27
ATOM     27  C   UNL     1       4.748   5.349  17.864  0.00  0.00    +0.000 A 
ATOM     28  C   UNL     1       6.049   5.740  18.261  0.00  0.00    +0.000 A 
ATOM     29  C   UNL     1       7.188   5.355  17.551  0.00  0.00    +0.000 A 
ATOM     30  C   UNL     1       7.059   4.546  16.430  0.00  0.00    +0.000 A 
ATOM     31  C   UNL     1       5.800   4.076  16.067  0.00  0.00    +0.000 A 
ATOM     32  C   UNL     1       4.659   4.452  16.787  0.00  0.00    +0.000 A 
ENDBRANCH  20  27
BRANCH  20  33
ATOM     33  O   UNL     1       4.104   6.476  19.843  0.00  0.00    +0.000 OA
ATOM     34  H   UNL     1       3.558   6.149  20.585  0.00  0.00    +0.000 HD
ENDBRANCH  20  33
ENDBRANCH   2  20
TORSDOF 9
ENDMDL
MODEL 4
REMARK VINA RESULT:      -8.2      2.651      3.816
REMARK  Name = 
REMARK  9 active torsions:
REMARK  status: ('A' for Active; 'I' for Inactive)
REMARK    1  A    between atoms: C_2  and  O_3
REMARK    2  A    between atoms: C_2  and  C_20
REMARK    3  A    between atoms: O_3  and  C_4
REMARK    4  A    between atoms: N_6  and  C_7
REMARK    5  A    between atoms: C_7  and  C_8
REMARK    6  A    between atoms: C_8  and  C_9
REMARK    7  A    between atoms: C_20  and  O_21
REMARK    8  A    between atoms: C_20  and  C_22
REMARK    9  A    between atoms: C_20  and  C_28
REMARK                            x       y       z     vdW  Elec       q    Type
REMARK                         _______ _______ _______ _____ _____    ______ ____
ROOT
ATOM      1  O   UNL     1       1.946   7.725  17.252  0.00  0.00    +0.000 OA
ATOM      2  C   UNL     1       2.213   7.564  18.444  0.00  0.00    +0.000 C 
ENDROOT
BRANCH   2   3
ATOM      3  O   UNL     1       1.858   8.518  19.366  0.00  0.00    +0.000 OA
BRANCH   3   4
ATOM      4  C   UNL     1       0.969   9.534  18.830  0.00  0.00    +0.000 C 
ATOM      5  C   UNL     1       1.740  10.815  18.437  0.00  0.00    +0.000 C 
ATOM      6  N   UNL     1       1.066  12.078  19.057  0.00  0.00    +0.000 N 
ATOM      7  C   UNL     1      -0.407  12.118  18.626  0.00  0.00    +0.000 C 
ATOM      8  C   UNL     1      -1.120  10.859  19.120  0.00  0.00    +0.000 C 
ATOM      9  C   UNL     1      -0.141   9.912  19.836  0.00  0.00    +0.000 C 
ATOM     10  C   UNL     1       0.453  10.673  21.030  0.00  0.00    +0.000 C 
ATOM     11  C   UNL     1       1.154  11.959  20.583  0.00  0.00    +0.000 C 
BRANCH   6  12
ATOM     12  C   UNL     1       1.841  13.314  18.524  0.00  0.00    +0.000 C 
BRANCH  12  13
ATOM     13  C   UNL     1       1.779  14.537  19.448  0.00  0.00    +0.000 C 
BRANCH  13  14
ATOM     14  C   UNL     1       1.245  15.749  18.727  0.00  0.00    +0.000 A 
ATOM     15  C   UNL     1      -0.131  16.021  18.722  0.00  0.00    +0.000 A 
ATOM     16  C   UNL     1      -0.625  17.151  18.068  0.00  0.00    +0.000 A 
ATOM     17  C   UNL     1       0.249  18.013  17.408  0.00  0.00    +0.000 A 
ATOM     18  C   UNL     1       1.616  17.746  17.402  0.00  0.00    +0.000 A 
ATOM     19  C   UNL     1       2.114  16.618  18.055  0.00  0.00    +0.000 A 
ENDBRANCH  13  14
ENDBRANCH  12  13
ENDBRANCH   6  12
ENDBRANCH   3   4
ENDBRANCH   2   3
BRANCH   2  20
ATOM     20  C   UNL     1       3.047   6.332  18.936  0.00  0.00    +0.000 C 
BRANCH  20  21
ATOM     21  C   UNL     1       2.192   5.056  18.963  0.00  0.00    +0.000 A 
ATOM     22  C   UNL     1       2.045   4.267  17.814  0.00  0.00    +0.000 A 
ATOM     23  C   UNL     1       1.331   3.065  17.851  0.00  0.00    +0.000 A 
ATOM     24  C   UNL     1       0.750   2.632  19.045  0.00  0.00    +0.000 A 
ATOM     25  C   UNL     1       0.868   3.404  20.192  0.00  0.00    +0.000 A 
ATOM     26  C   UNL     1       1.586   4.603  20.152  0.00  0.00    +0.000 A 
ENDBRANCH  20  21
BRANCH  20  27
ATOM     27  C   UNL     1       4.435   6.091  18.319  0.00  0.00    +0.000 A 
ATOM     28  C   UNL     1       4.740   6.673  17.065  0.00  0.00    +0.000 A 
ATOM     29  C   UNL     1       5.940   6.413  16.398  0.00  0.00    +0.000 A 
ATOM     30  C   UNL     1       6.883   5.576  16.980  0.00  0.00    +0.000 A 
ATOM     31  C   UNL     1       6.646   5.060  18.252  0.00  0.00    +0.000 A 
ATOM     32  C   UNL     1       5.448   5.331  18.925  0.00  0.00    +0.000 A 
ENDBRANCH  20  27
BRANCH  20  33
ATOM     33  O   UNL     1       3.328   6.713  20.316  0.00  0.00    +0.000 OA
ATOM     34  H   UNL     1       3.372   7.690  20.331  0.00  0.00    +0.000 HD
ENDBRANCH  20  33
ENDBRANCH   2  20
TORSDOF 9
ENDMDL
MODEL 5
REMARK VINA RESULT:      -8.2      2.616      3.849
REMARK  Name = 
REMARK  9 active torsions:
REMARK  status: ('A' for Active; 'I' for Inactive)
REMARK    1  A    between atoms: C_2  and  O_3
REMARK    2  A    between atoms: C_2  and  C_20
REMARK    3  A    between atoms: O_3  and  C_4
REMARK    4  A    between atoms: N_6  and  C_7
REMARK    5  A    between atoms: C_7  and  C_8
REMARK    6  A    between atoms: C_8  and  C_9
REMARK    7  A    between atoms: C_20  and  O_21
REMARK    8  A    between atoms: C_20  and  C_22
REMARK    9  A    between atoms: C_20  and  C_28
REMARK                            x       y       z     vdW  Elec       q    Type
REMARK                         _______ _______ _______ _____ _____    ______ ____
ROOT
ATOM      1  O   UNL     1       1.568   7.208  17.370  0.00  0.00    +0.000 OA
ATOM      2  C   UNL     1       2.111   7.246  18.476  0.00  0.00    +0.000 C 
ENDROOT
BRANCH   2   3
ATOM      3  O   UNL     1       1.950   8.342  19.286  0.00  0.00    +0.000 OA
BRANCH   3   4
ATOM      4  C   UNL     1       0.985   9.299  18.775  0.00  0.00    +0.000 C 
ATOM      5  C   UNL     1       1.657  10.637  18.390  0.00  0.00    +0.000 C 
ATOM      6  N   UNL     1       0.904  11.841  19.035  0.00  0.00    +0.000 N 
ATOM      7  C   UNL     1      -0.573  11.782  18.622  0.00  0.00    +0.000 C 
ATOM      8  C   UNL     1      -1.189  10.469  19.108  0.00  0.00    +0.000 C 
ATOM      9  C   UNL     1      -0.137   9.585  19.799  0.00  0.00    +0.000 C 
ATOM     10  C   UNL     1       0.418  10.371  20.996  0.00  0.00    +0.000 C 
ATOM     11  C   UNL     1       1.020  11.709  20.558  0.00  0.00    +0.000 C 
BRANCH   6  12
ATOM     12  C   UNL     1       1.583  13.135  18.510  0.00  0.00    +0.000 C 
BRANCH  12  13
ATOM     13  C   UNL     1       1.498  14.323  19.478  0.00  0.00    +0.000 C 
BRANCH  13  14
ATOM     14  C   UNL     1       1.172  15.605  18.754  0.00  0.00    +0.000 A 
ATOM     15  C   UNL     1      -0.148  16.077  18.709  0.00  0.00    +0.000 A 
ATOM     16  C   UNL     1      -0.449  17.272  18.052  0.00  0.00    +0.000 A 
ATOM     17  C   UNL     1       0.564  17.999  17.430  0.00  0.00    +0.000 A 
ATOM     18  C   UNL     1       1.876  17.534  17.464  0.00  0.00    +0.000 A 
ATOM     19  C   UNL     1       2.180  16.341  18.120  0.00  0.00    +0.000 A 
ENDBRANCH  13  14
ENDBRANCH  12  13
ENDBRANCH   6  12
ENDBRANCH   3   4
ENDBRANCH   2   3
BRANCH   2  20
ATOM     20  C   UNL     1       3.076   6.107  18.953  0.00  0.00    +0.000 C 
BRANCH  20  21
ATOM     21  C   UNL     1       2.394   4.732  18.881  0.00  0.00    +0.000 A 
ATOM     22  C   UNL     1       1.461   4.343  19.852  0.00  0.00    +0.000 A 
ATOM     23  C   UNL     1       0.780   3.125  19.751  0.00  0.00    +0.000 A 
ATOM     24  C   UNL     1       1.024   2.274  18.671  0.00  0.00    +0.000 A 
ATOM     25  C   UNL     1       1.955   2.630  17.706  0.00  0.00    +0.000 A 
ATOM     26  C   UNL     1       2.631   3.849  17.808  0.00  0.00    +0.000 A 
ENDBRANCH  20  21
BRANCH  20  27
ATOM     27  C   UNL     1       4.509   6.076  18.394  0.00  0.00    +0.000 A 
ATOM     28  C   UNL     1       5.529   5.451  19.151  0.00  0.00    +0.000 A 
ATOM     29  C   UNL     1       6.868   5.475  18.754  0.00  0.00    +0.000 A 
ATOM     30  C   UNL     1       7.223   6.110  17.572  0.00  0.00    +0.000 A 
ATOM     31  C   UNL     1       6.230   6.658  16.765  0.00  0.00    +0.000 A 
ATOM     32  C   UNL     1       4.885   6.622  17.157  0.00  0.00    +0.000 A 
ENDBRANCH  20  27
BRANCH  20  33
ATOM     33  O   UNL     1       3.245   6.450  20.360  0.00  0.00    +0.000 OA
ATOM     34  H   UNL     1       3.213   5.609  20.858  0.00  0.00    +0.000 HD
ENDBRANCH  20  33
ENDBRANCH   2  20
TORSDOF 9
ENDMDL
MODEL 6
REMARK VINA RESULT:      -8.2      3.106      6.431
REMARK  Name = 
REMARK  9 active torsions:
REMARK  status: ('A' for Active; 'I' for Inactive)
REMARK    1  A    between atoms: C_2  and  O_3
REMARK    2  A    between atoms: C_2  and  C_20
REMARK    3  A    between atoms: O_3  and  C_4
REMARK    4  A    between atoms: N_6  and  C_7
REMARK    5  A    between atoms: C_7  and  C_8
REMARK    6  A    between atoms: C_8  and  C_9
REMARK    7  A    between atoms: C_20  and  O_21
REMARK    8  A    between atoms: C_20  and  C_22
REMARK    9  A    between atoms: C_20  and  C_28
REMARK                            x       y       z     vdW  Elec       q    Type
REMARK                         _______ _______ _______ _____ _____    ______ ____
ROOT
ATOM      1  O   UNL     1       3.812   5.778  16.931  0.00  0.00    +0.000 OA
ATOM      2  C   UNL     1       4.385   4.743  16.587  0.00  0.00    +0.000 C 
ENDROOT
BRANCH   2   3
ATOM      3  O   UNL     1       3.671   3.583  16.418  0.00  0.00    +0.000 OA
BRANCH   3   4
ATOM      4  C   UNL     1       2.476   3.517  17.241  0.00  0.00    +0.000 C 
ATOM      5  C   UNL     1       2.373   4.730  18.194  0.00  0.00    +0.000 C 
ATOM      6  N   UNL     1       2.111   4.262  19.659  0.00  0.00    +0.000 N 
ATOM      7  C   UNL     1       0.852   3.383  19.683  0.00  0.00    +0.000 C 
ATOM      8  C   UNL     1       1.061   2.165  18.782  0.00  0.00    +0.000 C 
ATOM      9  C   UNL     1       2.430   2.221  18.081  0.00  0.00    +0.000 C 
ATOM     10  C   UNL     1       3.510   2.249  19.171  0.00  0.00    +0.000 C 
ATOM     11  C   UNL     1       3.323   3.440  20.116  0.00  0.00    +0.000 C 
BRANCH   6  12
ATOM     12  C   UNL     1       1.918   5.541  20.518  0.00  0.00    +0.000 C 
BRANCH  12  13
ATOM     13  C   UNL     1       2.754   6.740  20.049  0.00  0.00    +0.000 C 
BRANCH  13  14
ATOM     14  C   UNL     1       1.888   7.939  19.760  0.00  0.00    +0.000 A 
ATOM     15  C   UNL     1       1.107   8.511  20.776  0.00  0.00    +0.000 A 
ATOM     16  C   UNL     1       0.316   9.631  20.513  0.00  0.00    +0.000 A 
ATOM     17  C   UNL     1       0.293  10.184  19.235  0.00  0.00    +0.000 A 
ATOM     18  C   UNL     1       1.060   9.619  18.219  0.00  0.00    +0.000 A 
ATOM     19  C   UNL     1       1.852   8.500  18.477  0.00  0.00    +0.000 A 
ENDBRANCH  13  14
ENDBRANCH  12  13
ENDBRANCH   6  12
ENDBRANCH   3   4
ENDBRANCH   2   3
BRANCH   2  20
ATOM     20  C   UNL     1       5.944   4.684  16.432  0.00  0.00    +0.000 C 
BRANCH  20  21
ATOM     21  C   UNL     1       6.350   4.502  14.961  0.00  0.00    +0.000 A 
ATOM     22  C   UNL     1       5.594   3.690  14.104  0.00  0.00    +0.000 A 
ATOM     23  C   UNL     1       5.914   3.580  12.747  0.00  0.00    +0.000 A 
ATOM     24  C   UNL     1       7.001   4.284  12.224  0.00  0.00    +0.000 A 
ATOM     25  C   UNL     1       7.774   5.081  13.057  0.00  0.00    +0.000 A 
ATOM     26  C   UNL     1       7.449   5.191  14.411  0.00  0.00    +0.000 A 
ENDBRANCH  20  21
BRANCH  20  27
ATOM     27  C   UNL     1       6.794   5.749  17.143  0.00  0.00    +0.000 A 
ATOM     28  C   UNL     1       7.525   5.386  18.300  0.00  0.00    +0.000 A 
ATOM     29  C   UNL     1       8.234   6.323  19.054  0.00  0.00    +0.000 A 
ATOM     30  C   UNL     1       8.251   7.654  18.658  0.00  0.00    +0.000 A 
ATOM     31  C   UNL     1       7.613   8.024  17.477  0.00  0.00    +0.000 A 
ATOM     32  C   UNL     1       6.912   7.081  16.714  0.00  0.00    +0.000 A 
ENDBRANCH  20  27
BRANCH  20  33
ATOM     33  O   UNL     1       6.251   3.446  17.138  0.00  0.00    +0.000 OA
ATOM     34  H   UNL     1       6.526   2.798  16.459  0.00  0.00    +0.000 HD
ENDBRANCH  20  33
ENDBRANCH   2  20
TORSDOF 9
ENDMDL
MODEL 7
REMARK VINA RESULT:      -8.2      2.924      6.280
REMARK  Name = 
REMARK  9 active torsions:
REMARK  status: ('A' for Active; 'I' for Inactive)
REMARK    1  A    between atoms: C_2  and  O_3
REMARK    2  A    between atoms: C_2  and  C_20
REMARK    3  A    between atoms: O_3  and  C_4
REMARK    4  A    between atoms: N_6  and  C_7
REMARK    5  A    between atoms: C_7  and  C_8
REMARK    6  A    between atoms: C_8  and  C_9
REMARK    7  A    between atoms: C_20  and  O_21
REMARK    8  A    between atoms: C_20  and  C_22
REMARK    9  A    between atoms: C_20  and  C_28
REMARK                            x       y       z     vdW  Elec       q    Type
REMARK                         _______ _______ _______ _____ _____    ______ ____
ROOT
ATOM      1  O   UNL     1       3.605   5.789  16.892  0.00  0.00    +0.000 OA
ATOM      2  C   UNL     1       4.180   4.736  16.612  0.00  0.00    +0.000 C 
ENDROOT
BRANCH   2   3
ATOM      3  O   UNL     1       3.466   3.569  16.498  0.00  0.00    +0.000 OA
BRANCH   3   4
ATOM      4  C   UNL     1       2.289   3.529  17.347  0.00  0.00    +0.000 C 
ATOM      5  C   UNL     1       2.232   4.744  18.301  0.00  0.00    +0.000 C 
ATOM      6  N   UNL     1       1.993   4.283  19.772  0.00  0.00    +0.000 N 
ATOM      7  C   UNL     1       0.716   3.431  19.824  0.00  0.00    +0.000 C 
ATOM      8  C   UNL     1       0.879   2.208  18.920  0.00  0.00    +0.000 C 
ATOM      9  C   UNL     1       2.233   2.235  18.189  0.00  0.00    +0.000 C 
ATOM     10  C   UNL     1       3.337   2.241  19.255  0.00  0.00    +0.000 C 
ATOM     11  C   UNL     1       3.196   3.436  20.202  0.00  0.00    +0.000 C 
BRANCH   6  12
ATOM     12  C   UNL     1       1.846   5.566  20.633  0.00  0.00    +0.000 C 
BRANCH  12  13
ATOM     13  C   UNL     1       2.506   6.809  20.020  0.00  0.00    +0.000 C 
BRANCH  13  14
ATOM     14  C   UNL     1       1.630   8.027  20.162  0.00  0.00    +0.000 A 
ATOM     15  C   UNL     1       0.980   8.296  21.376  0.00  0.00    +0.000 A 
ATOM     16  C   UNL     1       0.180   9.432  21.513  0.00  0.00    +0.000 A 
ATOM     17  C   UNL     1       0.018  10.304  20.438  0.00  0.00    +0.000 A 
ATOM     18  C   UNL     1       0.654  10.042  19.228  0.00  0.00    +0.000 A 
ATOM     19  C   UNL     1       1.454   8.908  19.086  0.00  0.00    +0.000 A 
ENDBRANCH  13  14
ENDBRANCH  12  13
ENDBRANCH   6  12
ENDBRANCH   3   4
ENDBRANCH   2   3
BRANCH   2  20
ATOM     20  C   UNL     1       5.740   4.667  16.479  0.00  0.00    +0.000 C 
BRANCH  20  21
ATOM     21  C   UNL     1       6.169   4.585  15.006  0.00  0.00    +0.000 A 
ATOM     22  C   UNL     1       7.343   5.212  14.565  0.00  0.00    +0.000 A 
ATOM     23  C   UNL     1       7.779   5.077  13.242  0.00  0.00    +0.000 A 
ATOM     24  C   UNL     1       7.043   4.310  12.337  0.00  0.00    +0.000 A 
ATOM     25  C   UNL     1       5.869   3.694  12.746  0.00  0.00    +0.000 A 
ATOM     26  C   UNL     1       5.439   3.827  14.068  0.00  0.00    +0.000 A 
ENDBRANCH  20  21
BRANCH  20  27
ATOM     27  C   UNL     1       6.591   5.667  17.279  0.00  0.00    +0.000 A 
ATOM     28  C   UNL     1       6.650   7.015  16.852  0.00  0.00    +0.000 A 
ATOM     29  C   UNL     1       7.482   7.953  17.468  0.00  0.00    +0.000 A 
ATOM     30  C   UNL     1       8.266   7.572  18.549  0.00  0.00    +0.000 A 
ATOM     31  C   UNL     1       8.163   6.274  19.044  0.00  0.00    +0.000 A 
ATOM     32  C   UNL     1       7.319   5.338  18.434  0.00  0.00    +0.000 A 
ENDBRANCH  20  27
BRANCH  20  33
ATOM     33  O   UNL     1       6.020   3.377  17.100  0.00  0.00    +0.000 OA
ATOM     34  H   UNL     1       5.485   3.341  17.917  0.00  0.00    +0.000 HD
ENDBRANCH  20  33
ENDBRANCH   2  20
TORSDOF 9
ENDMDL
MODEL 8
REMARK VINA RESULT:      -8.2      0.235      1.460
REMARK  Name = 
REMARK  9 active torsions:
REMARK  status: ('A' for Active; 'I' for Inactive)
REMARK    1  A    between atoms: C_2  and  O_3
REMARK    2  A    between atoms: C_2  and  C_20
REMARK    3  A    between atoms: O_3  and  C_4
REMARK    4  A    between atoms: N_6  and  C_7
REMARK    5  A    between atoms: C_7  and  C_8
REMARK    6  A    between atoms: C_8  and  C_9
REMARK    7  A    between atoms: C_20  and  O_21
REMARK    8  A    between atoms: C_20  and  C_22
REMARK    9  A    between atoms: C_20  and  C_28
REMARK                            x       y       z     vdW  Elec       q    Type
REMARK                         _______ _______ _______ _____ _____    ______ ____
ROOT
ATOM      1  O   UNL     1       3.004   7.754  17.136  0.00  0.00    +0.000 OA
ATOM      2  C   UNL     1       2.680   7.184  18.178  0.00  0.00    +0.000 C 
ENDROOT
BRANCH   2   3
ATOM      3  O   UNL     1       1.640   7.666  18.934  0.00  0.00    +0.000 OA
BRANCH   3   4
ATOM      4  C   UNL     1       1.799   9.059  19.311  0.00  0.00    +0.000 C 
ATOM      5  C   UNL     1       1.012   9.394  20.599  0.00  0.00    +0.000 C 
ATOM      6  N   UNL     1       0.128  10.663  20.394  0.00  0.00    +0.000 N 
ATOM      7  C   UNL     1       1.022  11.822  19.929  0.00  0.00    +0.000 C 
ATOM      8  C   UNL     1       1.702  11.447  18.611  0.00  0.00    +0.000 C 
ATOM      9  C   UNL     1       1.339  10.014  18.187  0.00  0.00    +0.000 C 
ATOM     10  C   UNL     1      -0.186   9.950  18.019  0.00  0.00    +0.000 C 
ATOM     11  C   UNL     1      -0.909  10.345  19.311  0.00  0.00    +0.000 C 
BRANCH   6  12
ATOM     12  C   UNL     1      -0.536  10.980  21.761  0.00  0.00    +0.000 C 
BRANCH  12  13
ATOM     13  C   UNL     1      -0.437  12.454  22.176  0.00  0.00    +0.000 C 
BRANCH  13  14
ATOM     14  C   UNL     1      -1.596  12.861  23.052  0.00  0.00    +0.000 A 
ATOM     15  C   UNL     1      -1.588  14.100  23.708  0.00  0.00    +0.000 A 
ATOM     16  C   UNL     1      -2.667  14.485  24.506  0.00  0.00    +0.000 A 
ATOM     17  C   UNL     1      -3.758  13.632  24.661  0.00  0.00    +0.000 A 
ATOM     18  C   UNL     1      -3.772  12.397  24.019  0.00  0.00    +0.000 A 
ATOM     19  C   UNL     1      -2.696  12.009  23.220  0.00  0.00    +0.000 A 
ENDBRANCH  13  14
ENDBRANCH  12  13
ENDBRANCH   6  12
ENDBRANCH   3   4
ENDBRANCH   2   3
BRANCH   2  20
ATOM     20  C   UNL     1       3.496   5.965  18.732  0.00  0.00    +0.000 C 
BRANCH  20  21
ATOM     21  C   UNL     1       2.570   4.789  19.081  0.00  0.00    +0.000 A 
ATOM     22  C   UNL     1       2.274   4.484  20.417  0.00  0.00    +0.000 A 
ATOM     23  C   UNL     1       1.372   3.463  20.739  0.00  0.00    +0.000 A 
ATOM     24  C   UNL     1       0.752   2.730  19.725  0.00  0.00    +0.000 A 
ATOM     25  C   UNL     1       1.043   3.004  18.396  0.00  0.00    +0.000 A 
ATOM     26  C   UNL     1       1.941   4.026  18.078  0.00  0.00    +0.000 A 
ENDBRANCH  20  21
BRANCH  20  27
ATOM     27  C   UNL     1       4.750   5.512  17.966  0.00  0.00    +0.000 A 
ATOM     28  C   UNL     1       4.698   5.423  16.554  0.00  0.00    +0.000 A 
ATOM     29  C   UNL     1       5.764   4.922  15.803  0.00  0.00    +0.000 A 
ATOM     30  C   UNL     1       6.926   4.513  16.444  0.00  0.00    +0.000 A 
ATOM     31  C   UNL     1       7.036   4.670  17.823  0.00  0.00    +0.000 A 
ATOM     32  C   UNL     1       5.972   5.185  18.575  0.00  0.00    +0.000 A 
ENDBRANCH  20  27
BRANCH  20  33
ATOM     33  O   UNL     1       4.014   6.515  19.979  0.00  0.00    +0.000 OA
ATOM     34  H   UNL     1       4.142   5.758  20.585  0.00  0.00    +0.000 HD
ENDBRANCH  20  33
ENDBRANCH   2  20
TORSDOF 9
ENDMDL
MODEL 9
REMARK VINA RESULT:      -8.1      2.453      9.832
REMARK  Name = 
REMARK  9 active torsions:
REMARK  status: ('A' for Active; 'I' for Inactive)
REMARK    1  A    between atoms: C_2  and  O_3
REMARK    2  A    between atoms: C_2  and  C_20
REMARK    3  A    between atoms: O_3  and  C_4
REMARK    4  A    between atoms: N_6  and  C_7
REMARK    5  A    between atoms: C_7  and  C_8
REMARK    6  A    between atoms: C_8  and  C_9
REMARK    7  A    between atoms: C_20  and  O_21
REMARK    8  A    between atoms: C_20  and  C_22
REMARK    9  A    between atoms: C_20  and  C_28
REMARK                            x       y       z     vdW  Elec       q    Type
REMARK                         _______ _______ _______ _____ _____    ______ ____
ROOT
ATOM      1  O   UNL     1       2.126   9.778  17.367  0.00  0.00    +0.000 OA
ATOM      2  C   UNL     1       1.324   9.377  18.212  0.00  0.00    +0.000 C 
ENDROOT
BRANCH   2   3
ATOM      3  O   UNL     1       1.230   8.036  18.493  0.00  0.00    +0.000 OA
BRANCH   3   4
ATOM      4  C   UNL     1       2.499   7.435  18.862  0.00  0.00    +0.000 C 
ATOM      5  C   UNL     1       3.428   7.266  17.638  0.00  0.00    +0.000 C 
ATOM      6  N   UNL     1       3.982   5.810  17.560  0.00  0.00    +0.000 N 
ATOM      7  C   UNL     1       4.683   5.474  18.884  0.00  0.00    +0.000 C 
ATOM      8  C   UNL     1       3.682   5.583  20.035  0.00  0.00    +0.000 C 
ATOM      9  C   UNL     1       2.307   6.056  19.533  0.00  0.00    +0.000 C 
ATOM     10  C   UNL     1       1.807   5.027  18.509  0.00  0.00    +0.000 C 
ATOM     11  C   UNL     1       2.794   4.864  17.349  0.00  0.00    +0.000 C 
BRANCH   6  12
ATOM     12  C   UNL     1       4.979   5.767  16.370  0.00  0.00    +0.000 C 
BRANCH  12  13
ATOM     13  C   UNL     1       5.380   4.349  15.943  0.00  0.00    +0.000 C 
BRANCH  13  14
ATOM     14  C   UNL     1       5.992   4.338  14.565  0.00  0.00    +0.000 A 
ATOM     15  C   UNL     1       7.115   5.129  14.281  0.00  0.00    +0.000 A 
ATOM     16  C   UNL     1       7.691   5.109  13.010  0.00  0.00    +0.000 A 
ATOM     17  C   UNL     1       7.146   4.305  12.010  0.00  0.00    +0.000 A 
ATOM     18  C   UNL     1       6.027   3.523  12.280  0.00  0.00    +0.000 A 
ATOM     19  C   UNL     1       5.449   3.540  13.550  0.00  0.00    +0.000 A 
ENDBRANCH  13  14
ENDBRANCH  12  13
ENDBRANCH   6  12
ENDBRANCH   3   4
ENDBRANCH   2   3
BRANCH   2  20
ATOM     20  C   UNL     1       0.319  10.353  18.915  0.00  0.00    +0.000 C 
BRANCH  20  21
ATOM     21  C   UNL     1      -0.978  10.497  18.104  0.00  0.00    +0.000 A 
ATOM     22  C   UNL     1      -1.266   9.616  17.052  0.00  0.00    +0.000 A 
ATOM     23  C   UNL     1      -2.479   9.694  16.359  0.00  0.00    +0.000 A 
ATOM     24  C   UNL     1      -3.425  10.659  16.709  0.00  0.00    +0.000 A 
ATOM     25  C   UNL     1      -3.155  11.552  17.736  0.00  0.00    +0.000 A 
ATOM     26  C   UNL     1      -1.944  11.469  18.429  0.00  0.00    +0.000 A 
ENDBRANCH  20  21
BRANCH  20  27
ATOM     27  C   UNL     1       0.049  10.172  20.418  0.00  0.00    +0.000 A 
ATOM     28  C   UNL     1      -0.011   8.863  20.953  0.00  0.00    +0.000 A 
ATOM     29  C   UNL     1      -0.354   8.621  22.285  0.00  0.00    +0.000 A 
ATOM     30  C   UNL     1      -0.625   9.688  23.131  0.00  0.00    +0.000 A 
ATOM     31  C   UNL     1      -0.489  10.990  22.654  0.00  0.00    +0.000 A 
ATOM     32  C   UNL     1      -0.133  11.232  21.321  0.00  0.00    +0.000 A 
ENDBRANCH  20  27
BRANCH  20  33
ATOM     33  O   UNL     1       1.044  11.616  18.829  0.00  0.00    +0.000 OA
ATOM     34  H   UNL     1       1.415  11.785  19.717  0.00  0.00    +0.000 HD
ENDBRANCH  20  33
ENDBRANCH   2  20
TORSDOF 9
ENDMDL
