MODEL 1
REMARK VINA RESULT:      -8.3      0.000      0.000
REMARK  Name = 
REMARK  6 active torsions:
REMARK  status: ('A' for Active; 'I' for Inactive)
REMARK    1  A    between atoms: C_1  and  C_2
REMARK    2  A    between atoms: C_2  and  C_4
REMARK    3  A    between atoms: C_7  and  N_8
REMARK    4  A    between atoms: C_12  and  C_14
REMARK    5  A    between atoms: C_16  and  C_17
REMARK    6  A    between atoms: C_21  and  N_22
REMARK                            x       y       z     vdW  Elec       q    Type
REMARK                         _______ _______ _______ _____ _____    ______ ____
ROOT
ATOM      1  N   UNL     1       2.509   7.157  18.437  0.00  0.00    +0.000 N 
ATOM      2  C   UNL     1       2.067   6.788  19.795  0.00  0.00    +0.000 C 
ATOM      3  C   UNL     1       1.898   8.056  20.666  0.00  0.00    +0.000 C 
ATOM      4  N   UNL     1       1.105   9.096  19.987  0.00  0.00    +0.000 N 
ATOM      5  C   UNL     1      -0.095   9.512  20.582  0.00  0.00    +0.000 C 
ATOM      6  O   UNL     1      -0.439   9.051  21.670  0.00  0.00    +0.000 OA
ATOM      7  C   UNL     1       1.684   9.452  18.675  0.00  0.00    +0.000 C 
ATOM      8  C   UNL     1       1.710   8.200  17.774  0.00  0.00    +0.000 C 
ENDROOT
BRANCH   1  12
ATOM      9  C   UNL     1       5.731   5.259  16.481  0.00  0.00    +0.000 A 
ATOM     10  C   UNL     1       5.774   6.628  16.757  0.00  0.00    +0.000 A 
ATOM     11  C   UNL     1       4.693   7.257  17.389  0.00  0.00    +0.000 A 
ATOM     12  C   UNL     1       3.551   6.542  17.775  0.00  0.00    +0.000 A 
ATOM     13  C   UNL     1       3.534   5.167  17.456  0.00  0.00    +0.000 A 
ATOM     14  F   UNL     1       2.450   4.418  17.721  0.00  0.00    +0.000 F 
ATOM     15  C   UNL     1       4.592   4.531  16.822  0.00  0.00    +0.000 A 
BRANCH   9  17
ATOM     16  C   UNL     1       6.700   4.052  14.428  0.00  0.00    +0.000 C 
ATOM     17  C   UNL     1       6.861   4.534  15.844  0.00  0.00    +0.000 C 
ATOM     18  O   UNL     1       7.900   4.346  16.470  0.00  0.00    +0.000 OA
ENDBRANCH   9  17
ENDBRANCH   1  12
BRANCH   5  19
ATOM     19  C   UNL     1      -0.997  10.510  19.902  0.00  0.00    +0.000 A 
ATOM     20  C   UNL     1      -1.660  10.085  18.736  0.00  0.00    +0.000 A 
ATOM     21  C   UNL     1      -2.479  10.930  17.987  0.00  0.00    +0.000 A 
ATOM     22  C   UNL     1      -2.800  12.168  18.500  0.00  0.00    +0.000 A 
ATOM     23  C   UNL     1      -2.251  12.564  19.722  0.00  0.00    +0.000 A 
ATOM     24  C   UNL     1      -1.310  11.786  20.444  0.00  0.00    +0.000 A 
BRANCH  24  25
ATOM     25  N   UNL     1      -0.778  12.327  21.600  0.00  0.00    +0.000 N 
ATOM     26  C   UNL     1      -1.427  12.220  22.921  0.00  0.00    +0.000 C 
ATOM     27  C   UNL     1      -1.724  13.621  23.480  0.00  0.00    +0.000 C 
ATOM     28  O   UNL     1      -0.544  14.439  23.515  0.00  0.00    +0.000 OA
ATOM     29  C   UNL     1       0.006  14.579  22.195  0.00  0.00    +0.000 C 
ATOM     30  C   UNL     1       0.393  13.219  21.590  0.00  0.00    +0.000 C 
ENDBRANCH  24  25
BRANCH  21  31
ATOM     31  C   UNL     1      -2.948  10.508  16.709  0.00  0.00    +0.000 C 
ATOM     32  N   UNL     1      -3.297  10.134  15.660  0.00  0.00    +0.000 NA
ENDBRANCH  21  31
ENDBRANCH   5  19
TORSDOF 5
ENDMDL
MODEL 2
REMARK VINA RESULT:      -8.3      2.395      4.132
REMARK  Name = 
REMARK  6 active torsions:
REMARK  status: ('A' for Active; 'I' for Inactive)
REMARK    1  A    between atoms: C_1  and  C_2
REMARK    2  A    between atoms: C_2  and  C_4
REMARK    3  A    between atoms: C_7  and  N_8
REMARK    4  A    between atoms: C_12  and  C_14
REMARK    5  A    between atoms: C_16  and  C_17
REMARK    6  A    between atoms: C_21  and  N_22
REMARK                            x       y       z     vdW  Elec       q    Type
REMARK                         _______ _______ _______ _____ _____    ______ ____
ROOT
ATOM      1  N   UNL     1       1.457   9.009  19.132  0.00  0.00    +0.000 N 
ATOM      2  C   UNL     1       0.820   9.763  18.036  0.00  0.00    +0.000 C 
ATOM      3  C   UNL     1      -0.656  10.072  18.387  0.00  0.00    +0.000 C 
ATOM      4  N   UNL     1      -0.798  10.646  19.737  0.00  0.00    +0.000 N 
ATOM      5  C   UNL     1      -1.346  11.931  19.859  0.00  0.00    +0.000 C 
ATOM      6  O   UNL     1      -1.742  12.533  18.862  0.00  0.00    +0.000 OA
ATOM      7  C   UNL     1      -0.203   9.769  20.767  0.00  0.00    +0.000 C 
ATOM      8  C   UNL     1       1.302   9.591  20.474  0.00  0.00    +0.000 C 
ENDROOT
BRANCH   1  12
ATOM      9  C   UNL     1       3.826   5.557  18.595  0.00  0.00    +0.000 A 
ATOM     10  C   UNL     1       3.874   6.604  17.669  0.00  0.00    +0.000 A 
ATOM     11  C   UNL     1       3.071   7.739  17.843  0.00  0.00    +0.000 A 
ATOM     12  C   UNL     1       2.212   7.870  18.943  0.00  0.00    +0.000 A 
ATOM     13  C   UNL     1       2.172   6.781  19.840  0.00  0.00    +0.000 A 
ATOM     14  F   UNL     1       1.325   6.787  20.884  0.00  0.00    +0.000 F 
ATOM     15  C   UNL     1       2.954   5.647  19.678  0.00  0.00    +0.000 A 
BRANCH   9  17
ATOM     16  C   UNL     1       4.351   3.332  17.418  0.00  0.00    +0.000 C 
ATOM     17  C   UNL     1       4.679   4.346  18.479  0.00  0.00    +0.000 C 
ATOM     18  O   UNL     1       5.633   4.194  19.237  0.00  0.00    +0.000 OA
ENDBRANCH   9  17
ENDBRANCH   1  12
BRANCH   5  19
ATOM     19  C   UNL     1      -1.444  12.612  21.201  0.00  0.00    +0.000 A 
ATOM     20  C   UNL     1      -2.455  12.170  22.072  0.00  0.00    +0.000 A 
ATOM     21  C   UNL     1      -2.682  12.755  23.318  0.00  0.00    +0.000 A 
ATOM     22  C   UNL     1      -1.773  13.675  23.794  0.00  0.00    +0.000 A 
ATOM     23  C   UNL     1      -0.687  14.039  22.993  0.00  0.00    +0.000 A 
ATOM     24  C   UNL     1      -0.499  13.564  21.670  0.00  0.00    +0.000 A 
BRANCH  24  25
ATOM     25  N   UNL     1       0.572  14.064  20.952  0.00  0.00    +0.000 N 
ATOM     26  C   UNL     1       0.503  15.295  20.142  0.00  0.00    +0.000 C 
ATOM     27  C   UNL     1       0.829  14.980  18.673  0.00  0.00    +0.000 C 
ATOM     28  O   UNL     1       2.092  14.309  18.541  0.00  0.00    +0.000 OA
ATOM     29  C   UNL     1       2.082  13.078  19.284  0.00  0.00    +0.000 C 
ATOM     30  C   UNL     1       1.828  13.315  20.782  0.00  0.00    +0.000 C 
ENDBRANCH  24  25
BRANCH  21  31
ATOM     31  C   UNL     1      -3.848  12.407  24.060  0.00  0.00    +0.000 C 
ATOM     32  N   UNL     1      -4.779  12.124  24.706  0.00  0.00    +0.000 NA
ENDBRANCH  21  31
ENDBRANCH   5  19
TORSDOF 5
ENDMDL
MODEL 3
REMARK VINA RESULT:      -8.0      2.538      4.251
REMARK  Name = 
REMARK  6 active torsions:
REMARK  status: ('A' for Active; 'I' for Inactive)
REMARK    1  A    between atoms: C_1  and  C_2
REMARK    2  A    between atoms: C_2  and  C_4
REMARK    3  A    between atoms: C_7  and  N_8
REMARK    4  A    between atoms: C_12  and  C_14
REMARK    5  A    between atoms: C_16  and  C_17
REMARK    6  A    between atoms: C_21  and  N_22
REMARK                            x       y       z     vdW  Elec       q    Type
REMARK                         _______ _______ _______ _____ _____    ______ ____
ROOT
ATOM      1  N   UNL     1       1.413   8.862  19.365  0.00  0.00    +0.000 N 
ATOM      2  C   UNL     1       0.880   9.633  18.226  0.00  0.00    +0.000 C 
ATOM      3  C   UNL     1      -0.594  10.027  18.489  0.00  0.00    +0.000 C 
ATOM      4  N   UNL     1      -0.779  10.628  19.821  0.00  0.00    +0.000 N 
ATOM      5  C   UNL     1      -1.262  11.943  19.896  0.00  0.00    +0.000 C 
ATOM      6  O   UNL     1      -1.568  12.550  18.871  0.00  0.00    +0.000 OA
ATOM      7  C   UNL     1      -0.291   9.737  20.894  0.00  0.00    +0.000 C 
ATOM      8  C   UNL     1       1.215   9.473  20.688  0.00  0.00    +0.000 C 
ENDROOT
BRANCH   1  12
ATOM      9  C   UNL     1       3.495   5.218  18.923  0.00  0.00    +0.000 A 
ATOM     10  C   UNL     1       2.727   5.464  20.065  0.00  0.00    +0.000 A 
ATOM     11  C   UNL     1       2.054   6.684  20.215  0.00  0.00    +0.000 A 
ATOM     12  C   UNL     1       2.114   7.682  19.233  0.00  0.00    +0.000 A 
ATOM     13  C   UNL     1       2.919   7.406  18.107  0.00  0.00    +0.000 A 
ATOM     14  F   UNL     1       3.094   8.332  17.149  0.00  0.00    +0.000 F 
ATOM     15  C   UNL     1       3.600   6.207  17.947  0.00  0.00    +0.000 A 
BRANCH   9  17
ATOM     16  C   UNL     1       3.541   2.888  17.837  0.00  0.00    +0.000 C 
ATOM     17  C   UNL     1       4.202   3.931  18.696  0.00  0.00    +0.000 C 
ATOM     18  O   UNL     1       5.306   3.741  19.199  0.00  0.00    +0.000 OA
ENDBRANCH   9  17
ENDBRANCH   1  12
BRANCH   5  19
ATOM     19  C   UNL     1      -1.397  12.649  21.222  0.00  0.00    +0.000 A 
ATOM     20  C   UNL     1      -2.438  12.230  22.069  0.00  0.00    +0.000 A 
ATOM     21  C   UNL     1      -2.699  12.840  23.296  0.00  0.00    +0.000 A 
ATOM     22  C   UNL     1      -1.799  13.762  23.784  0.00  0.00    +0.000 A 
ATOM     23  C   UNL     1      -0.685  14.103  23.011  0.00  0.00    +0.000 A 
ATOM     24  C   UNL     1      -0.460  13.603  21.703  0.00  0.00    +0.000 A 
BRANCH  24  25
ATOM     25  N   UNL     1       0.637  14.083  21.011  0.00  0.00    +0.000 N 
ATOM     26  C   UNL     1       0.625  15.340  20.240  0.00  0.00    +0.000 C 
ATOM     27  C   UNL     1       0.951  15.061  18.765  0.00  0.00    +0.000 C 
ATOM     28  O   UNL     1       2.188  14.344  18.621  0.00  0.00    +0.000 OA
ATOM     29  C   UNL     1       2.122  13.091  19.323  0.00  0.00    +0.000 C 
ATOM     30  C   UNL     1       1.864  13.289  20.825  0.00  0.00    +0.000 C 
ENDBRANCH  24  25
BRANCH  21  31
ATOM     31  C   UNL     1      -3.891  12.513  24.007  0.00  0.00    +0.000 C 
ATOM     32  N   UNL     1      -4.857  12.202  24.583  0.00  0.00    +0.000 NA
ENDBRANCH  21  31
ENDBRANCH   5  19
TORSDOF 5
ENDMDL
MODEL 4
REMARK VINA RESULT:      -8.0      2.381      4.022
REMARK  Name = 
REMARK  6 active torsions:
REMARK  status: ('A' for Active; 'I' for Inactive)
REMARK    1  A    between atoms: C_1  and  C_2
REMARK    2  A    between atoms: C_2  and  C_4
REMARK    3  A    between atoms: C_7  and  N_8
REMARK    4  A    between atoms: C_12  and  C_14
REMARK    5  A    between atoms: C_16  and  C_17
REMARK    6  A    between atoms: C_21  and  N_22
REMARK                            x       y       z     vdW  Elec       q    Type
REMARK                         _______ _______ _______ _____ _____    ______ ____
ROOT
ATOM      1  N   UNL     1       1.492   8.933  19.075  0.00  0.00    +0.000 N 
ATOM      2  C   UNL     1       0.840   9.658  17.968  0.00  0.00    +0.000 C 
ATOM      3  C   UNL     1      -0.631   9.977  18.330  0.00  0.00    +0.000 C 
ATOM      4  N   UNL     1      -0.755  10.588  19.665  0.00  0.00    +0.000 N 
ATOM      5  C   UNL     1      -1.301  11.876  19.759  0.00  0.00    +0.000 C 
ATOM      6  O   UNL     1      -1.710  12.450  18.751  0.00  0.00    +0.000 OA
ATOM      7  C   UNL     1      -0.145   9.740  20.710  0.00  0.00    +0.000 C 
ATOM      8  C   UNL     1       1.355   9.553  20.402  0.00  0.00    +0.000 C 
ENDROOT
BRANCH   1  12
ATOM      9  C   UNL     1       3.852   5.467  18.603  0.00  0.00    +0.000 A 
ATOM     10  C   UNL     1       3.910   6.500  17.664  0.00  0.00    +0.000 A 
ATOM     11  C   UNL     1       3.110   7.640  17.816  0.00  0.00    +0.000 A 
ATOM     12  C   UNL     1       2.244   7.789  18.907  0.00  0.00    +0.000 A 
ATOM     13  C   UNL     1       2.194   6.714  19.820  0.00  0.00    +0.000 A 
ATOM     14  F   UNL     1       1.339   6.737  20.857  0.00  0.00    +0.000 F 
ATOM     15  C   UNL     1       2.973   5.574  19.679  0.00  0.00    +0.000 A 
BRANCH   9  17
ATOM     16  C   UNL     1       4.335   3.190  17.510  0.00  0.00    +0.000 C 
ATOM     17  C   UNL     1       4.701   4.251  18.511  0.00  0.00    +0.000 C 
ATOM     18  O   UNL     1       5.683   4.132  19.239  0.00  0.00    +0.000 OA
ENDBRANCH   9  17
ENDBRANCH   1  12
BRANCH   5  19
ATOM     19  C   UNL     1      -1.381  12.594  21.082  0.00  0.00    +0.000 A 
ATOM     20  C   UNL     1      -2.382  12.179  21.978  0.00  0.00    +0.000 A 
ATOM     21  C   UNL     1      -2.591  12.799  23.210  0.00  0.00    +0.000 A 
ATOM     22  C   UNL     1      -1.674  13.729  23.649  0.00  0.00    +0.000 A 
ATOM     23  C   UNL     1      -0.598  14.068  22.825  0.00  0.00    +0.000 A 
ATOM     24  C   UNL     1      -0.428  13.557  21.514  0.00  0.00    +0.000 A 
BRANCH  24  25
ATOM     25  N   UNL     1       0.635  14.034  20.769  0.00  0.00    +0.000 N 
ATOM     26  C   UNL     1       1.942  13.354  20.689  0.00  0.00    +0.000 C 
ATOM     27  C   UNL     1       3.054  14.283  21.200  0.00  0.00    +0.000 C 
ATOM     28  O   UNL     1       3.051  15.544  20.510  0.00  0.00    +0.000 OA
ATOM     29  C   UNL     1       1.786  16.203  20.684  0.00  0.00    +0.000 C 
ATOM     30  C   UNL     1       0.622  15.363  20.134  0.00  0.00    +0.000 C 
ENDBRANCH  24  25
BRANCH  21  31
ATOM     31  C   UNL     1      -3.749  12.474  23.976  0.00  0.00    +0.000 C 
ATOM     32  N   UNL     1      -4.706  12.174  24.574  0.00  0.00    +0.000 NA
ENDBRANCH  21  31
ENDBRANCH   5  19
TORSDOF 5
ENDMDL
MODEL 5
REMARK VINA RESULT:      -7.9      0.836      1.190
REMARK  Name = 
REMARK  6 active torsions:
REMARK  status: ('A' for Active; 'I' for Inactive)
REMARK    1  A    between atoms: C_1  and  C_2
REMARK    2  A    between atoms: C_2  and  C_4
REMARK    3  A    between atoms: C_7  and  N_8
REMARK    4  A    between atoms: C_12  and  C_14
REMARK    5  A    between atoms: C_16  and  C_17
REMARK    6  A    between atoms: C_21  and  N_22
REMARK                            x       y       z     vdW  Elec       q    Type
REMARK                         _______ _______ _______ _____ _____    ______ ____
ROOT
ATOM      1  N   UNL     1       2.506   6.964  18.462  0.00  0.00    +0.000 N 
ATOM      2  C   UNL     1       2.039   6.636  19.822  0.00  0.00    +0.000 C 
ATOM      3  C   UNL     1       1.904   7.926  20.666  0.00  0.00    +0.000 C 
ATOM      4  N   UNL     1       1.152   8.978  19.959  0.00  0.00    +0.000 N 
ATOM      5  C   UNL     1      -0.039   9.445  20.533  0.00  0.00    +0.000 C 
ATOM      6  O   UNL     1      -0.410   9.017  21.626  0.00  0.00    +0.000 OA
ATOM      7  C   UNL     1       1.755   9.289  18.646  0.00  0.00    +0.000 C 
ATOM      8  C   UNL     1       1.749   8.018  17.771  0.00  0.00    +0.000 C 
ENDROOT
BRANCH   1  12
ATOM      9  C   UNL     1       5.617   4.955  16.437  0.00  0.00    +0.000 A 
ATOM     10  C   UNL     1       4.478   4.261  16.858  0.00  0.00    +0.000 A 
ATOM     11  C   UNL     1       3.457   4.930  17.547  0.00  0.00    +0.000 A 
ATOM     12  C   UNL     1       3.534   6.302  17.823  0.00  0.00    +0.000 A 
ATOM     13  C   UNL     1       4.710   6.961  17.406  0.00  0.00    +0.000 A 
ATOM     14  F   UNL     1       4.903   8.260  17.692  0.00  0.00    +0.000 F 
ATOM     15  C   UNL     1       5.734   6.312  16.730  0.00  0.00    +0.000 A 
BRANCH   9  17
ATOM     16  C   UNL     1       6.457   3.896  14.250  0.00  0.00    +0.000 C 
ATOM     17  C   UNL     1       6.714   4.305  15.675  0.00  0.00    +0.000 C 
ATOM     18  O   UNL     1       7.804   4.119  16.207  0.00  0.00    +0.000 OA
ENDBRANCH   9  17
ENDBRANCH   1  12
BRANCH   5  19
ATOM     19  C   UNL     1      -0.902  10.458  19.824  0.00  0.00    +0.000 A 
ATOM     20  C   UNL     1      -1.508  10.054  18.621  0.00  0.00    +0.000 A 
ATOM     21  C   UNL     1      -2.285  10.915  17.846  0.00  0.00    +0.000 A 
ATOM     22  C   UNL     1      -2.624  12.147  18.360  0.00  0.00    +0.000 A 
ATOM     23  C   UNL     1      -2.133  12.522  19.613  0.00  0.00    +0.000 A 
ATOM     24  C   UNL     1      -1.234  11.728  20.369  0.00  0.00    +0.000 A 
BRANCH  24  25
ATOM     25  N   UNL     1      -0.757  12.249  21.558  0.00  0.00    +0.000 N 
ATOM     26  C   UNL     1      -1.450  12.092  22.850  0.00  0.00    +0.000 C 
ATOM     27  C   UNL     1      -1.799  13.470  23.434  0.00  0.00    +0.000 C 
ATOM     28  O   UNL     1      -0.640  14.313  23.535  0.00  0.00    +0.000 OA
ATOM     29  C   UNL     1      -0.046  14.500  22.239  0.00  0.00    +0.000 C 
ATOM     30  C   UNL     1       0.394  13.167  21.613  0.00  0.00    +0.000 C 
ENDBRANCH  24  25
BRANCH  21  31
ATOM     31  C   UNL     1      -2.693  10.514  16.540  0.00  0.00    +0.000 C 
ATOM     32  N   UNL     1      -3.016  10.226  15.455  0.00  0.00    +0.000 NA
ENDBRANCH  21  31
ENDBRANCH   5  19
TORSDOF 5
ENDMDL
MODEL 6
REMARK VINA RESULT:      -7.7      2.564      4.158
REMARK  Name = 
REMARK  6 active torsions:
REMARK  status: ('A' for Active; 'I' for Inactive)
REMARK    1  A    between atoms: C_1  and  C_2
REMARK    2  A    between atoms: C_2  and  C_4
REMARK    3  A    between atoms: C_7  and  N_8
REMARK    4  A    between atoms: C_12  and  C_14
REMARK    5  A    between atoms: C_16  and  C_17
REMARK    6  A    between atoms: C_21  and  N_22
REMARK                            x       y       z     vdW  Elec       q    Type
REMARK                         _______ _______ _______ _____ _____    ______ ____
ROOT
ATOM      1  N   UNL     1       1.518   8.639  19.339  0.00  0.00    +0.000 N 
ATOM      2  C   UNL     1       1.053   9.402  18.164  0.00  0.00    +0.000 C 
ATOM      3  C   UNL     1      -0.408   9.866  18.372  0.00  0.00    +0.000 C 
ATOM      4  N   UNL     1      -0.606  10.512  19.682  0.00  0.00    +0.000 N 
ATOM      5  C   UNL     1      -1.031  11.848  19.708  0.00  0.00    +0.000 C 
ATOM      6  O   UNL     1      -1.280  12.439  18.658  0.00  0.00    +0.000 OA
ATOM      7  C   UNL     1      -0.189   9.630  20.792  0.00  0.00    +0.000 C 
ATOM      8  C   UNL     1       1.310   9.295  20.639  0.00  0.00    +0.000 C 
ENDROOT
BRANCH   1  12
ATOM      9  C   UNL     1       3.449   4.898  19.049  0.00  0.00    +0.000 A 
ATOM     10  C   UNL     1       2.584   5.172  20.113  0.00  0.00    +0.000 A 
ATOM     11  C   UNL     1       1.961   6.422  20.214  0.00  0.00    +0.000 A 
ATOM     12  C   UNL     1       2.169   7.426  19.258  0.00  0.00    +0.000 A 
ATOM     13  C   UNL     1       3.068   7.121  18.214  0.00  0.00    +0.000 A 
ATOM     14  F   UNL     1       3.384   8.048  17.293  0.00  0.00    +0.000 F 
ATOM     15  C   UNL     1       3.701   5.891  18.104  0.00  0.00    +0.000 A 
BRANCH   9  17
ATOM     16  C   UNL     1       3.366   2.491  18.151  0.00  0.00    +0.000 C 
ATOM     17  C   UNL     1       4.111   3.580  18.874  0.00  0.00    +0.000 C 
ATOM     18  O   UNL     1       5.245   3.400  19.309  0.00  0.00    +0.000 OA
ENDBRANCH   9  17
ENDBRANCH   1  12
BRANCH   5  19
ATOM     19  C   UNL     1      -1.172  12.596  21.010  0.00  0.00    +0.000 A 
ATOM     20  C   UNL     1      -2.195  12.179  21.881  0.00  0.00    +0.000 A 
ATOM     21  C   UNL     1      -2.461  12.824  23.089  0.00  0.00    +0.000 A 
ATOM     22  C   UNL     1      -1.580  13.785  23.536  0.00  0.00    +0.000 A 
ATOM     23  C   UNL     1      -0.483  14.128  22.742  0.00  0.00    +0.000 A 
ATOM     24  C   UNL     1      -0.256  13.589  21.450  0.00  0.00    +0.000 A 
BRANCH  24  25
ATOM     25  N   UNL     1       0.822  14.072  20.731  0.00  0.00    +0.000 N 
ATOM     26  C   UNL     1       2.132  13.397  20.679  0.00  0.00    +0.000 C 
ATOM     27  C   UNL     1       3.229  14.329  21.217  0.00  0.00    +0.000 C 
ATOM     28  O   UNL     1       3.238  15.591  20.531  0.00  0.00    +0.000 OA
ATOM     29  C   UNL     1       1.967  16.246  20.677  0.00  0.00    +0.000 C 
ATOM     30  C   UNL     1       0.819  15.402  20.098  0.00  0.00    +0.000 C 
ENDBRANCH  24  25
BRANCH  21  31
ATOM     31  C   UNL     1      -3.638  12.492  23.822  0.00  0.00    +0.000 C 
ATOM     32  N   UNL     1      -4.583  12.180  24.432  0.00  0.00    +0.000 NA
ENDBRANCH  21  31
ENDBRANCH   5  19
TORSDOF 5
ENDMDL
MODEL 7
REMARK VINA RESULT:      -7.7      2.826      9.395
REMARK  Name = 
REMARK  6 active torsions:
REMARK  status: ('A' for Active; 'I' for Inactive)
REMARK    1  A    between atoms: C_1  and  C_2
REMARK    2  A    between atoms: C_2  and  C_4
REMARK    3  A    between atoms: C_7  and  N_8
REMARK    4  A    between atoms: C_12  and  C_14
REMARK    5  A    between atoms: C_16  and  C_17
REMARK    6  A    between atoms: C_21  and  N_22
REMARK                            x       y       z     vdW  Elec       q    Type
REMARK                         _______ _______ _______ _____ _____    ______ ____
ROOT
ATOM      1  N   UNL     1       2.414   7.085  19.424  0.00  0.00    +0.000 N 
ATOM      2  C   UNL     1       2.417   5.681  19.877  0.00  0.00    +0.000 C 
ATOM      3  C   UNL     1       2.248   4.730  18.667  0.00  0.00    +0.000 C 
ATOM      4  N   UNL     1       3.173   5.058  17.568  0.00  0.00    +0.000 N 
ATOM      5  C   UNL     1       4.103   4.087  17.169  0.00  0.00    +0.000 C 
ATOM      6  O   UNL     1       4.102   2.975  17.696  0.00  0.00    +0.000 OA
ATOM      7  C   UNL     1       3.027   6.463  17.135  0.00  0.00    +0.000 C 
ATOM      8  C   UNL     1       3.339   7.396  18.324  0.00  0.00    +0.000 C 
ENDROOT
BRANCH   1  12
ATOM      9  C   UNL     1       0.181  10.172  21.239  0.00  0.00    +0.000 A 
ATOM     10  C   UNL     1       0.688   9.118  22.004  0.00  0.00    +0.000 A 
ATOM     11  C   UNL     1       1.413   8.086  21.393  0.00  0.00    +0.000 A 
ATOM     12  C   UNL     1       1.663   8.080  20.014  0.00  0.00    +0.000 A 
ATOM     13  C   UNL     1       1.112   9.148  19.273  0.00  0.00    +0.000 A 
ATOM     14  F   UNL     1       1.239   9.188  17.935  0.00  0.00    +0.000 F 
ATOM     15  C   UNL     1       0.385  10.173  19.861  0.00  0.00    +0.000 A 
BRANCH   9  17
ATOM     16  C   UNL     1      -1.451  12.138  20.949  0.00  0.00    +0.000 C 
ATOM     17  C   UNL     1      -0.564  11.310  21.838  0.00  0.00    +0.000 C 
ATOM     18  O   UNL     1      -0.454  11.552  23.036  0.00  0.00    +0.000 OA
ENDBRANCH   9  17
ENDBRANCH   1  12
BRANCH   5  19
ATOM     19  C   UNL     1       5.133   4.384  16.109  0.00  0.00    +0.000 A 
ATOM     20  C   UNL     1       4.935   3.806  14.843  0.00  0.00    +0.000 A 
ATOM     21  C   UNL     1       5.844   3.961  13.796  0.00  0.00    +0.000 A 
ATOM     22  C   UNL     1       6.879   4.859  13.944  0.00  0.00    +0.000 A 
ATOM     23  C   UNL     1       7.023   5.541  15.155  0.00  0.00    +0.000 A 
ATOM     24  C   UNL     1       6.198   5.308  16.284  0.00  0.00    +0.000 A 
BRANCH  24  25
ATOM     25  N   UNL     1       6.497   5.989  17.451  0.00  0.00    +0.000 N 
ATOM     26  C   UNL     1       6.777   7.436  17.499  0.00  0.00    +0.000 C 
ATOM     27  C   UNL     1       8.185   7.685  18.062  0.00  0.00    +0.000 C 
ATOM     28  O   UNL     1       8.366   7.051  19.338  0.00  0.00    +0.000 OA
ATOM     29  C   UNL     1       8.160   5.633  19.224  0.00  0.00    +0.000 C 
ATOM     30  C   UNL     1       6.744   5.298  18.728  0.00  0.00    +0.000 C 
ENDBRANCH  24  25
BRANCH  21  31
ATOM     31  C   UNL     1       5.696   3.182  12.611  0.00  0.00    +0.000 C 
ATOM     32  N   UNL     1       5.601   2.512  11.660  0.00  0.00    +0.000 NA
ENDBRANCH  21  31
ENDBRANCH   5  19
TORSDOF 5
ENDMDL
MODEL 8
REMARK VINA RESULT:      -7.5      2.746      9.881
REMARK  Name = 
REMARK  6 active torsions:
REMARK  status: ('A' for Active; 'I' for Inactive)
REMARK    1  A    between atoms: C_1  and  C_2
REMARK    2  A    between atoms: C_2  and  C_4
REMARK    3  A    between atoms: C_7  and  N_8
REMARK    4  A    between atoms: C_12  and  C_14
REMARK    5  A    between atoms: C_16  and  C_17
REMARK    6  A    between atoms: C_21  and  N_22
REMARK                            x       y       z     vdW  Elec       q    Type
REMARK                         _______ _______ _______ _____ _____    ______ ____
ROOT
ATOM      1  N   UNL     1       0.525   9.278  20.536  0.00  0.00    +0.000 N 
ATOM      2  C   UNL     1       0.439   9.203  19.065  0.00  0.00    +0.000 C 
ATOM      3  C   UNL     1       1.801   8.770  18.471  0.00  0.00    +0.000 C 
ATOM      4  N   UNL     1       2.352   7.583  19.149  0.00  0.00    +0.000 N 
ATOM      5  C   UNL     1       2.569   6.424  18.390  0.00  0.00    +0.000 C 
ATOM      6  O   UNL     1       2.350   6.427  17.179  0.00  0.00    +0.000 OA
ATOM      7  C   UNL     1       2.476   7.797  20.606  0.00  0.00    +0.000 C 
ATOM      8  C   UNL     1       1.081   8.088  21.197  0.00  0.00    +0.000 C 
ENDROOT
BRANCH   1  12
ATOM      9  C   UNL     1      -0.953  12.543  22.764  0.00  0.00    +0.000 A 
ATOM     10  C   UNL     1      -0.147  12.755  21.642  0.00  0.00    +0.000 A 
ATOM     11  C   UNL     1       0.356  11.667  20.917  0.00  0.00    +0.000 A 
ATOM     12  C   UNL     1       0.064  10.345  21.279  0.00  0.00    +0.000 A 
ATOM     13  C   UNL     1      -0.731  10.171  22.432  0.00  0.00    +0.000 A 
ATOM     14  F   UNL     1      -1.003   8.939  22.896  0.00  0.00    +0.000 F 
ATOM     15  C   UNL     1      -1.231  11.238  23.166  0.00  0.00    +0.000 A 
BRANCH   9  17
ATOM     16  C   UNL     1      -3.034  13.698  23.738  0.00  0.00    +0.000 C 
ATOM     17  C   UNL     1      -1.542  13.658  23.549  0.00  0.00    +0.000 C 
ATOM     18  O   UNL     1      -0.813  14.519  24.034  0.00  0.00    +0.000 OA
ENDBRANCH   9  17
ENDBRANCH   1  12
BRANCH   5  19
ATOM     19  C   UNL     1       3.050   5.149  19.034  0.00  0.00    +0.000 A 
ATOM     20  C   UNL     1       2.168   4.507  19.923  0.00  0.00    +0.000 A 
ATOM     21  C   UNL     1       2.516   3.351  20.621  0.00  0.00    +0.000 A 
ATOM     22  C   UNL     1       3.691   2.708  20.297  0.00  0.00    +0.000 A 
ATOM     23  C   UNL     1       4.527   3.263  19.324  0.00  0.00    +0.000 A 
ATOM     24  C   UNL     1       4.269   4.505  18.691  0.00  0.00    +0.000 A 
BRANCH  24  25
ATOM     25  N   UNL     1       5.217   4.985  17.805  0.00  0.00    +0.000 N 
ATOM     26  C   UNL     1       5.129   4.803  16.344  0.00  0.00    +0.000 C 
ATOM     27  C   UNL     1       6.355   4.032  15.831  0.00  0.00    +0.000 C 
ATOM     28  O   UNL     1       7.584   4.662  16.230  0.00  0.00    +0.000 OA
ATOM     29  C   UNL     1       7.658   4.744  17.663  0.00  0.00    +0.000 C 
ATOM     30  C   UNL     1       6.496   5.562  18.251  0.00  0.00    +0.000 C 
ENDBRANCH  24  25
BRANCH  21  31
ATOM     31  C   UNL     1       1.666   2.871  21.660  0.00  0.00    +0.000 C 
ATOM     32  N   UNL     1       0.937   2.470  22.480  0.00  0.00    +0.000 NA
ENDBRANCH  21  31
ENDBRANCH   5  19
TORSDOF 5
ENDMDL
MODEL 9
REMARK VINA RESULT:      -7.4      2.979      9.622
REMARK  Name = 
REMARK  6 active torsions:
REMARK  status: ('A' for Active; 'I' for Inactive)
REMARK    1  A    between atoms: C_1  and  C_2
REMARK    2  A    between atoms: C_2  and  C_4
REMARK    3  A    between atoms: C_7  and  N_8
REMARK    4  A    between atoms: C_12  and  C_14
REMARK    5  A    between atoms: C_16  and  C_17
REMARK    6  A    between atoms: C_21  and  N_22
REMARK                            x       y       z     vdW  Elec       q    Type
REMARK                         _______ _______ _______ _____ _____    ______ ____
ROOT
ATOM      1  N   UNL     1       1.169   8.931  20.037  0.00  0.00    +0.000 N 
ATOM      2  C   UNL     1       1.422   8.013  21.164  0.00  0.00    +0.000 C 
ATOM      3  C   UNL     1       1.479   6.551  20.659  0.00  0.00    +0.000 C 
ATOM      4  N   UNL     1       2.363   6.400  19.490  0.00  0.00    +0.000 N 
ATOM      5  C   UNL     1       3.474   5.552  19.600  0.00  0.00    +0.000 C 
ATOM      6  O   UNL     1       3.666   4.914  20.635  0.00  0.00    +0.000 OA
ATOM      7  C   UNL     1       1.969   7.304  18.389  0.00  0.00    +0.000 C 
ATOM      8  C   UNL     1       2.056   8.766  18.876  0.00  0.00    +0.000 C 
ENDROOT
BRANCH   1  12
ATOM      9  C   UNL     1      -1.785  11.944  20.127  0.00  0.00    +0.000 A 
ATOM     10  C   UNL     1      -1.449  11.313  18.925  0.00  0.00    +0.000 A 
ATOM     11  C   UNL     1      -0.454  10.327  18.899  0.00  0.00    +0.000 A 
ATOM     12  C   UNL     1       0.222   9.934  20.062  0.00  0.00    +0.000 A 
ATOM     13  C   UNL     1      -0.127  10.612  21.250  0.00  0.00    +0.000 A 
ATOM     14  F   UNL     1       0.519  10.352  22.399  0.00  0.00    +0.000 F 
ATOM     15  C   UNL     1      -1.104  11.597  21.292  0.00  0.00    +0.000 A 
BRANCH   9  17
ATOM     16  C   UNL     1      -4.267  12.573  19.888  0.00  0.00    +0.000 C 
ATOM     17  C   UNL     1      -2.855  12.971  20.220  0.00  0.00    +0.000 C 
ATOM     18  O   UNL     1      -2.577  14.115  20.569  0.00  0.00    +0.000 OA
ENDBRANCH   9  17
ENDBRANCH   1  12
BRANCH   5  19
ATOM     19  C   UNL     1       4.467   5.416  18.473  0.00  0.00    +0.000 A 
ATOM     20  C   UNL     1       5.517   6.350  18.428  0.00  0.00    +0.000 A 
ATOM     21  C   UNL     1       6.467   6.362  17.407  0.00  0.00    +0.000 A 
ATOM     22  C   UNL     1       6.492   5.316  16.511  0.00  0.00    +0.000 A 
ATOM     23  C   UNL     1       5.531   4.307  16.613  0.00  0.00    +0.000 A 
ATOM     24  C   UNL     1       4.471   4.332  17.555  0.00  0.00    +0.000 A 
BRANCH  24  25
ATOM     25  N   UNL     1       3.536   3.314  17.500  0.00  0.00    +0.000 N 
ATOM     26  C   UNL     1       2.136   3.518  17.085  0.00  0.00    +0.000 C 
ATOM     27  C   UNL     1       1.183   3.107  18.218  0.00  0.00    +0.000 C 
ATOM     28  O   UNL     1       1.431   1.763  18.661  0.00  0.00    +0.000 OA
ATOM     29  C   UNL     1       2.784   1.635  19.128  0.00  0.00    +0.000 C 
ATOM     30  C   UNL     1       3.804   1.965  18.027  0.00  0.00    +0.000 C 
ENDBRANCH  24  25
BRANCH  21  31
ATOM     31  C   UNL     1       7.375   7.457  17.300  0.00  0.00    +0.000 C 
ATOM     32  N   UNL     1       8.124   8.351  17.257  0.00  0.00    +0.000 NA
ENDBRANCH  21  31
ENDBRANCH   5  19
TORSDOF 5
ENDMDL
