MODEL 1
REMARK VINA RESULT:      -9.5      0.000      0.000
REMARK  Name = 
REMARK  8 active torsions:
REMARK  status: ('A' for Active; 'I' for Inactive)
REMARK    1  A    between atoms: C_2  and  O_3
REMARK    2  A    between atoms: C_2  and  C_4
REMARK    3  A    between atoms: C_9  and  C_10
REMARK    4  A    between atoms: C_10  and  N_11
REMARK    5  A    between atoms: C_15  and  C_16
REMARK    6  A    between atoms: C_20  and  O_21
REMARK    7  A    between atoms: O_21  and  C_22
REMARK    8  A    between atoms: C_22  and  C_23
REMARK                            x       y       z     vdW  Elec       q    Type
REMARK                         _______ _______ _______ _____ _____    ______ ____
ROOT
ATOM      1  C   UNL     1       7.318   5.931  16.967  0.00  0.00    +0.000 A 
ATOM      2  C   UNL     1       7.588   5.264  18.163  0.00  0.00    +0.000 A 
ATOM      3  C   UNL     1       8.150   5.929  19.252  0.00  0.00    +0.000 A 
ATOM      4  C   UNL     1       8.408   7.293  19.180  0.00  0.00    +0.000 A 
ATOM      5  C   UNL     1       8.088   8.021  18.036  0.00  0.00    +0.000 A 
ATOM      6  C   UNL     1       7.529   7.332  16.936  0.00  0.00    +0.000 A 
ENDROOT
BRANCH   1  11
ATOM      7  N   UNL     1       5.766   4.324  15.689  0.00  0.00    +0.000 N 
ATOM      8  N   UNL     1       5.661   3.859  14.428  0.00  0.00    +0.000 NA
ATOM      9  N   UNL     1       6.622   4.464  13.751  0.00  0.00    +0.000 NA
ATOM     10  N   UNL     1       7.343   5.296  14.564  0.00  0.00    +0.000 NA
ATOM     11  C   UNL     1       6.822   5.215  15.779  0.00  0.00    +0.000 A 
BRANCH   7  12
ATOM     12  C   UNL     1       4.799   3.854  16.681  0.00  0.00    +0.000 C 
BRANCH  12  18
ATOM     13  C   UNL     1       2.968   4.674  18.294  0.00  0.00    +0.000 A 
ATOM     14  C   UNL     1       2.233   5.722  18.889  0.00  0.00    +0.000 A 
ATOM     15  C   UNL     1       2.461   7.050  18.530  0.00  0.00    +0.000 A 
ATOM     16  C   UNL     1       3.438   7.346  17.588  0.00  0.00    +0.000 A 
ATOM     17  C   UNL     1       4.181   6.321  17.003  0.00  0.00    +0.000 A 
ATOM     18  C   UNL     1       3.980   4.963  17.339  0.00  0.00    +0.000 A 
BRANCH  13  20
ATOM     19  O   UNL     1       1.909   2.549  18.181  0.00  0.00    +0.000 OA
ATOM     20  C   UNL     1       2.706   3.279  18.745  0.00  0.00    +0.000 C 
BRANCH  20  21
ATOM     21  O   UNL     1       3.411   2.884  19.826  0.00  0.00    +0.000 OA
ATOM     22  H   UNL     1       2.915   2.785  20.659  0.00  0.00    +0.000 HD
ENDBRANCH  20  21
ENDBRANCH  13  20
ENDBRANCH  12  18
ENDBRANCH   7  12
ENDBRANCH   1  11
BRANCH   5  23
ATOM     23  O   UNL     1       8.248   9.384  17.913  0.00  0.00    +0.000 OA
BRANCH  23  24
ATOM     24  C   UNL     1       9.007  10.032  18.959  0.00  0.00    +0.000 C 
BRANCH  24  25
ATOM     25  C   UNL     1       9.649  11.352  18.556  0.00  0.00    +0.000 A 
ATOM     26  C   UNL     1      10.787  11.373  17.763  0.00  0.00    +0.000 A 
ATOM     27  C   UNL     1      11.305  12.600  17.369  0.00  0.00    +0.000 A 
ATOM     28  C   UNL     1      10.603  13.774  17.643  0.00  0.00    +0.000 A 
ATOM     29  C   UNL     1      11.033  15.002  17.114  0.00  0.00    +0.000 A 
ATOM     30  C   UNL     1      10.239  16.136  17.238  0.00  0.00    +0.000 A 
ATOM     31  C   UNL     1       9.044  16.058  17.944  0.00  0.00    +0.000 A 
ATOM     32  C   UNL     1       8.659  14.845  18.536  0.00  0.00    +0.000 A 
ATOM     33  C   UNL     1       9.409  13.679  18.385  0.00  0.00    +0.000 A 
ATOM     34  N   UNL     1       8.970  12.495  18.874  0.00  0.00    +0.000 NA
ENDBRANCH  24  25
ENDBRANCH  23  24
ENDBRANCH   5  23
TORSDOF 8
ENDMDL
MODEL 2
REMARK VINA RESULT:      -9.5      6.007      8.792
REMARK  Name = 
REMARK  8 active torsions:
REMARK  status: ('A' for Active; 'I' for Inactive)
REMARK    1  A    between atoms: C_2  and  O_3
REMARK    2  A    between atoms: C_2  and  C_4
REMARK    3  A    between atoms: C_9  and  C_10
REMARK    4  A    between atoms: C_10  and  N_11
REMARK    5  A    between atoms: C_15  and  C_16
REMARK    6  A    between atoms: C_20  and  O_21
REMARK    7  A    between atoms: O_21  and  C_22
REMARK    8  A    between atoms: C_22  and  C_23
REMARK                            x       y       z     vdW  Elec       q    Type
REMARK                         _______ _______ _______ _____ _____    ______ ____
ROOT
ATOM      1  C   UNL     1       2.943   6.964  18.432  0.00  0.00    +0.000 A 
ATOM      2  C   UNL     1       2.670   6.736  19.782  0.00  0.00    +0.000 A 
ATOM      3  C   UNL     1       1.878   7.616  20.519  0.00  0.00    +0.000 A 
ATOM      4  C   UNL     1       1.304   8.721  19.902  0.00  0.00    +0.000 A 
ATOM      5  C   UNL     1       1.484   8.954  18.541  0.00  0.00    +0.000 A 
ATOM      6  C   UNL     1       2.297   8.060  17.808  0.00  0.00    +0.000 A 
ENDROOT
BRANCH   1  11
ATOM      7  N   UNL     1       3.673   4.785  17.273  0.00  0.00    +0.000 N 
ATOM      8  N   UNL     1       4.771   4.338  16.631  0.00  0.00    +0.000 NA
ATOM      9  N   UNL     1       5.613   5.357  16.622  0.00  0.00    +0.000 NA
ATOM     10  N   UNL     1       5.072   6.442  17.258  0.00  0.00    +0.000 NA
ATOM     11  C   UNL     1       3.861   6.097  17.673  0.00  0.00    +0.000 A 
BRANCH   7  12
ATOM     12  C   UNL     1       2.536   3.876  17.412  0.00  0.00    +0.000 C 
BRANCH  12  18
ATOM     13  C   UNL     1       2.944   2.634  19.629  0.00  0.00    +0.000 A 
ATOM     14  C   UNL     1       2.584   2.349  20.965  0.00  0.00    +0.000 A 
ATOM     15  C   UNL     1       1.449   2.925  21.537  0.00  0.00    +0.000 A 
ATOM     16  C   UNL     1       0.676   3.803  20.790  0.00  0.00    +0.000 A 
ATOM     17  C   UNL     1       1.029   4.103  19.474  0.00  0.00    +0.000 A 
ATOM     18  C   UNL     1       2.170   3.541  18.858  0.00  0.00    +0.000 A 
BRANCH  13  20
ATOM     19  O   UNL     1       4.182   0.957  18.488  0.00  0.00    +0.000 OA
ATOM     20  C   UNL     1       4.187   2.019  19.085  0.00  0.00    +0.000 C 
BRANCH  20  21
ATOM     21  O   UNL     1       5.317   2.722  19.305  0.00  0.00    +0.000 OA
ATOM     22  H   UNL     1       5.212   3.609  19.696  0.00  0.00    +0.000 HD
ENDBRANCH  20  21
ENDBRANCH  13  20
ENDBRANCH  12  18
ENDBRANCH   7  12
ENDBRANCH   1  11
BRANCH   5  23
ATOM     23  O   UNL     1       0.891   9.984  17.844  0.00  0.00    +0.000 OA
BRANCH  23  24
ATOM     24  C   UNL     1       0.131  10.929  18.630  0.00  0.00    +0.000 C 
BRANCH  24  25
ATOM     25  C   UNL     1      -1.354  10.985  18.300  0.00  0.00    +0.000 A 
ATOM     26  C   UNL     1      -1.912  10.097  17.392  0.00  0.00    +0.000 A 
ATOM     27  C   UNL     1      -3.282  10.144  17.166  0.00  0.00    +0.000 A 
ATOM     28  C   UNL     1      -4.090  10.967  17.950  0.00  0.00    +0.000 A 
ATOM     29  C   UNL     1      -5.490  10.906  17.839  0.00  0.00    +0.000 A 
ATOM     30  C   UNL     1      -6.295  11.593  18.740  0.00  0.00    +0.000 A 
ATOM     31  C   UNL     1      -5.704  12.389  19.714  0.00  0.00    +0.000 A 
ATOM     32  C   UNL     1      -4.306  12.506  19.769  0.00  0.00    +0.000 A 
ATOM     33  C   UNL     1      -3.471  11.789  18.911  0.00  0.00    +0.000 A 
ATOM     34  N   UNL     1      -2.124  11.832  19.047  0.00  0.00    +0.000 NA
ENDBRANCH  24  25
ENDBRANCH  23  24
ENDBRANCH   5  23
TORSDOF 8
ENDMDL
MODEL 3
REMARK VINA RESULT:      -9.5      5.708      7.935
REMARK  Name = 
REMARK  8 active torsions:
REMARK  status: ('A' for Active; 'I' for Inactive)
REMARK    1  A    between atoms: C_2  and  O_3
REMARK    2  A    between atoms: C_2  and  C_4
REMARK    3  A    between atoms: C_9  and  C_10
REMARK    4  A    between atoms: C_10  and  N_11
REMARK    5  A    between atoms: C_15  and  C_16
REMARK    6  A    between atoms: C_20  and  O_21
REMARK    7  A    between atoms: O_21  and  C_22
REMARK    8  A    between atoms: C_22  and  C_23
REMARK                            x       y       z     vdW  Elec       q    Type
REMARK                         _______ _______ _______ _____ _____    ______ ____
ROOT
ATOM      1  C   UNL     1       3.979   5.995  19.074  0.00  0.00    +0.000 A 
ATOM      2  C   UNL     1       3.273   5.530  20.184  0.00  0.00    +0.000 A 
ATOM      3  C   UNL     1       2.107   6.161  20.616  0.00  0.00    +0.000 A 
ATOM      4  C   UNL     1       1.598   7.246  19.913  0.00  0.00    +0.000 A 
ATOM      5  C   UNL     1       2.224   7.704  18.756  0.00  0.00    +0.000 A 
ATOM      6  C   UNL     1       3.410   7.062  18.334  0.00  0.00    +0.000 A 
ENDROOT
BRANCH   1  11
ATOM      7  N   UNL     1       5.490   4.315  17.841  0.00  0.00    +0.000 N 
ATOM      8  N   UNL     1       6.812   4.064  17.758  0.00  0.00    +0.000 NA
ATOM      9  N   UNL     1       7.392   4.984  18.509  0.00  0.00    +0.000 NA
ATOM     10  N   UNL     1       6.459   5.809  19.077  0.00  0.00    +0.000 NA
ATOM     11  C   UNL     1       5.265   5.400  18.672  0.00  0.00    +0.000 A 
BRANCH   7  12
ATOM     12  C   UNL     1       4.576   3.467  17.076  0.00  0.00    +0.000 C 
BRANCH  12  18
ATOM     13  C   UNL     1       3.106   2.280  18.824  0.00  0.00    +0.000 A 
ATOM     14  C   UNL     1       1.852   2.069  19.438  0.00  0.00    +0.000 A 
ATOM     15  C   UNL     1       0.715   2.742  18.991  0.00  0.00    +0.000 A 
ATOM     16  C   UNL     1       0.822   3.644  17.941  0.00  0.00    +0.000 A 
ATOM     17  C   UNL     1       2.058   3.872  17.335  0.00  0.00    +0.000 A 
ATOM     18  C   UNL     1       3.233   3.210  17.758  0.00  0.00    +0.000 A 
BRANCH  13  20
ATOM     19  O   UNL     1       4.968   2.012  20.277  0.00  0.00    +0.000 OA
ATOM     20  C   UNL     1       4.291   1.561  19.369  0.00  0.00    +0.000 C 
BRANCH  20  21
ATOM     21  O   UNL     1       4.563   0.377  18.782  0.00  0.00    +0.000 OA
ATOM     22  H   UNL     1       3.817  -0.240  18.677  0.00  0.00    +0.000 HD
ENDBRANCH  20  21
ENDBRANCH  13  20
ENDBRANCH  12  18
ENDBRANCH   7  12
ENDBRANCH   1  11
BRANCH   5  23
ATOM     23  O   UNL     1       1.744   8.725  17.965  0.00  0.00    +0.000 OA
BRANCH  23  24
ATOM     24  C   UNL     1       1.395   9.950  18.651  0.00  0.00    +0.000 C 
BRANCH  24  25
ATOM     25  C   UNL     1      -0.039  10.414  18.438  0.00  0.00    +0.000 A 
ATOM     26  C   UNL     1      -0.861   9.778  17.520  0.00  0.00    +0.000 A 
ATOM     27  C   UNL     1      -2.180  10.195  17.401  0.00  0.00    +0.000 A 
ATOM     28  C   UNL     1      -2.698  11.131  18.296  0.00  0.00    +0.000 A 
ATOM     29  C   UNL     1      -4.068  11.443  18.288  0.00  0.00    +0.000 A 
ATOM     30  C   UNL     1      -4.613  12.236  19.290  0.00  0.00    +0.000 A 
ATOM     31  C   UNL     1      -3.780  12.769  20.267  0.00  0.00    +0.000 A 
ATOM     32  C   UNL     1      -2.400  12.517  20.223  0.00  0.00    +0.000 A 
ATOM     33  C   UNL     1      -1.832  11.683  19.260  0.00  0.00    +0.000 A 
ATOM     34  N   UNL     1      -0.516  11.365  19.295  0.00  0.00    +0.000 NA
ENDBRANCH  24  25
ENDBRANCH  23  24
ENDBRANCH   5  23
TORSDOF 8
ENDMDL
MODEL 4
REMARK VINA RESULT:      -9.4      5.492      9.185
REMARK  Name = 
REMARK  8 active torsions:
REMARK  status: ('A' for Active; 'I' for Inactive)
REMARK    1  A    between atoms: C_2  and  O_3
REMARK    2  A    between atoms: C_2  and  C_4
REMARK    3  A    between atoms: C_9  and  C_10
REMARK    4  A    between atoms: C_10  and  N_11
REMARK    5  A    between atoms: C_15  and  C_16
REMARK    6  A    between atoms: C_20  and  O_21
REMARK    7  A    between atoms: O_21  and  C_22
REMARK    8  A    between atoms: C_22  and  C_23
REMARK                            x       y       z     vdW  Elec       q    Type
REMARK                         _______ _______ _______ _____ _____    ______ ____
ROOT
ATOM      1  C   UNL     1       2.211   6.980  19.315  0.00  0.00    +0.000 A 
ATOM      2  C   UNL     1       2.622   7.462  18.071  0.00  0.00    +0.000 A 
ATOM      3  C   UNL     1       2.308   8.756  17.656  0.00  0.00    +0.000 A 
ATOM      4  C   UNL     1       1.614   9.611  18.504  0.00  0.00    +0.000 A 
ATOM      5  C   UNL     1       1.246   9.204  19.784  0.00  0.00    +0.000 A 
ATOM      6  C   UNL     1       1.561   7.887  20.188  0.00  0.00    +0.000 A 
ENDROOT
BRANCH   1  11
ATOM      7  N   UNL     1       3.651   4.899  19.786  0.00  0.00    +0.000 N 
ATOM      8  N   UNL     1       3.434   3.623  20.164  0.00  0.00    +0.000 NA
ATOM      9  N   UNL     1       2.128   3.527  20.341  0.00  0.00    +0.000 NA
ATOM     10  N   UNL     1       1.510   4.717  20.070  0.00  0.00    +0.000 NA
ATOM     11  C   UNL     1       2.449   5.583  19.718  0.00  0.00    +0.000 A 
BRANCH   7  12
ATOM     12  C   UNL     1       5.030   5.324  19.545  0.00  0.00    +0.000 C 
BRANCH  12  18
ATOM     13  C   UNL     1       6.868   5.359  17.743  0.00  0.00    +0.000 A 
ATOM     14  C   UNL     1       7.333   5.021  16.453  0.00  0.00    +0.000 A 
ATOM     15  C   UNL     1       6.512   4.342  15.552  0.00  0.00    +0.000 A 
ATOM     16  C   UNL     1       5.229   3.978  15.936  0.00  0.00    +0.000 A 
ATOM     17  C   UNL     1       4.762   4.293  17.212  0.00  0.00    +0.000 A 
ATOM     18  C   UNL     1       5.562   4.980  18.153  0.00  0.00    +0.000 A 
BRANCH  13  20
ATOM     19  O   UNL     1       8.140   7.211  18.517  0.00  0.00    +0.000 OA
ATOM     20  C   UNL     1       7.802   6.050  18.674  0.00  0.00    +0.000 C 
BRANCH  20  21
ATOM     21  O   UNL     1       8.250   5.297  19.700  0.00  0.00    +0.000 OA
ATOM     22  H   UNL     1       7.627   5.142  20.433  0.00  0.00    +0.000 HD
ENDBRANCH  20  21
ENDBRANCH  13  20
ENDBRANCH  12  18
ENDBRANCH   7  12
ENDBRANCH   1  11
BRANCH   5  23
ATOM     23  O   UNL     1       0.620  10.014  20.707  0.00  0.00    +0.000 OA
BRANCH  23  24
ATOM     24  C   UNL     1       0.277  11.344  20.256  0.00  0.00    +0.000 C 
BRANCH  24  25
ATOM     25  C   UNL     1      -1.206  11.566  19.994  0.00  0.00    +0.000 A 
ATOM     26  C   UNL     1      -1.954  12.396  20.815  0.00  0.00    +0.000 A 
ATOM     27  C   UNL     1      -3.290  12.619  20.504  0.00  0.00    +0.000 A 
ATOM     28  C   UNL     1      -3.817  12.134  19.307  0.00  0.00    +0.000 A 
ATOM     29  C   UNL     1      -5.117  12.485  18.907  0.00  0.00    +0.000 A 
ATOM     30  C   UNL     1      -5.574  12.151  17.638  0.00  0.00    +0.000 A 
ATOM     31  C   UNL     1      -4.756  11.413  16.791  0.00  0.00    +0.000 A 
ATOM     32  C   UNL     1      -3.488  10.999  17.227  0.00  0.00    +0.000 A 
ATOM     33  C   UNL     1      -2.982  11.363  18.475  0.00  0.00    +0.000 A 
ATOM     34  N   UNL     1      -1.716  11.045  18.838  0.00  0.00    +0.000 NA
ENDBRANCH  24  25
ENDBRANCH  23  24
ENDBRANCH   5  23
TORSDOF 8
ENDMDL
MODEL 5
REMARK VINA RESULT:      -9.4      5.794      8.206
REMARK  Name = 
REMARK  8 active torsions:
REMARK  status: ('A' for Active; 'I' for Inactive)
REMARK    1  A    between atoms: C_2  and  O_3
REMARK    2  A    between atoms: C_2  and  C_4
REMARK    3  A    between atoms: C_9  and  C_10
REMARK    4  A    between atoms: C_10  and  N_11
REMARK    5  A    between atoms: C_15  and  C_16
REMARK    6  A    between atoms: C_20  and  O_21
REMARK    7  A    between atoms: O_21  and  C_22
REMARK    8  A    between atoms: C_22  and  C_23
REMARK                            x       y       z     vdW  Elec       q    Type
REMARK                         _______ _______ _______ _____ _____    ______ ____
ROOT
ATOM      1  C   UNL     1       3.336   6.456  18.332  0.00  0.00    +0.000 A 
ATOM      2  C   UNL     1       2.976   6.173  19.651  0.00  0.00    +0.000 A 
ATOM      3  C   UNL     1       2.181   7.049  20.388  0.00  0.00    +0.000 A 
ATOM      4  C   UNL     1       1.688   8.208  19.800  0.00  0.00    +0.000 A 
ATOM      5  C   UNL     1       1.956   8.500  18.464  0.00  0.00    +0.000 A 
ATOM      6  C   UNL     1       2.772   7.609  17.731  0.00  0.00    +0.000 A 
ENDROOT
BRANCH   1  11
ATOM      7  N   UNL     1       4.049   4.300  17.121  0.00  0.00    +0.000 N 
ATOM      8  N   UNL     1       5.160   3.841  16.511  0.00  0.00    +0.000 NA
ATOM      9  N   UNL     1       6.033   4.831  16.579  0.00  0.00    +0.000 NA
ATOM     10  N   UNL     1       5.498   5.908  17.233  0.00  0.00    +0.000 NA
ATOM     11  C   UNL     1       4.260   5.589  17.581  0.00  0.00    +0.000 A 
BRANCH   7  12
ATOM     12  C   UNL     1       2.879   3.424  17.176  0.00  0.00    +0.000 C 
BRANCH  12  18
ATOM     13  C   UNL     1       3.003   2.533  19.587  0.00  0.00    +0.000 A 
ATOM     14  C   UNL     1       2.440   2.382  20.874  0.00  0.00    +0.000 A 
ATOM     15  C   UNL     1       1.172   2.887  21.163  0.00  0.00    +0.000 A 
ATOM     16  C   UNL     1       0.465   3.564  20.180  0.00  0.00    +0.000 A 
ATOM     17  C   UNL     1       1.016   3.733  18.909  0.00  0.00    +0.000 A 
ATOM     18  C   UNL     1       2.295   3.236  18.576  0.00  0.00    +0.000 A 
BRANCH  13  20
ATOM     19  O   UNL     1       5.377   2.617  19.677  0.00  0.00    +0.000 OA
ATOM     20  C   UNL     1       4.375   2.005  19.348  0.00  0.00    +0.000 C 
BRANCH  20  21
ATOM     21  O   UNL     1       4.428   0.803  18.738  0.00  0.00    +0.000 OA
ATOM     22  H   UNL     1       5.315   0.430  18.582  0.00  0.00    +0.000 HD
ENDBRANCH  20  21
ENDBRANCH  13  20
ENDBRANCH  12  18
ENDBRANCH   7  12
ENDBRANCH   1  11
BRANCH   5  23
ATOM     23  O   UNL     1       1.447   9.589  17.791  0.00  0.00    +0.000 OA
BRANCH  23  24
ATOM     24  C   UNL     1       1.154  10.754  18.595  0.00  0.00    +0.000 C 
BRANCH  24  25
ATOM     25  C   UNL     1      -0.329  11.040  18.788  0.00  0.00    +0.000 A 
ATOM     26  C   UNL     1      -0.766  11.842  19.831  0.00  0.00    +0.000 A 
ATOM     27  C   UNL     1      -2.122  12.126  19.935  0.00  0.00    +0.000 A 
ATOM     28  C   UNL     1      -2.995  11.732  18.921  0.00  0.00    +0.000 A 
ATOM     29  C   UNL     1      -4.337  12.147  18.935  0.00  0.00    +0.000 A 
ATOM     30  C   UNL     1      -5.158  11.906  17.840  0.00  0.00    +0.000 A 
ATOM     31  C   UNL     1      -4.657  11.194  16.756  0.00  0.00    +0.000 A 
ATOM     32  C   UNL     1      -3.338  10.714  16.783  0.00  0.00    +0.000 A 
ATOM     33  C   UNL     1      -2.476  10.985  17.846  0.00  0.00    +0.000 A 
ATOM     34  N   UNL     1      -1.176  10.605  17.808  0.00  0.00    +0.000 NA
ENDBRANCH  24  25
ENDBRANCH  23  24
ENDBRANCH   5  23
TORSDOF 8
ENDMDL
MODEL 6
REMARK VINA RESULT:      -9.3      5.613      9.095
REMARK  Name = 
REMARK  8 active torsions:
REMARK  status: ('A' for Active; 'I' for Inactive)
REMARK    1  A    between atoms: C_2  and  O_3
REMARK    2  A    between atoms: C_2  and  C_4
REMARK    3  A    between atoms: C_9  and  C_10
REMARK    4  A    between atoms: C_10  and  N_11
REMARK    5  A    between atoms: C_15  and  C_16
REMARK    6  A    between atoms: C_20  and  O_21
REMARK    7  A    between atoms: O_21  and  C_22
REMARK    8  A    between atoms: C_22  and  C_23
REMARK                            x       y       z     vdW  Elec       q    Type
REMARK                         _______ _______ _______ _____ _____    ______ ____
ROOT
ATOM      1  C   UNL     1       2.198   6.745  19.407  0.00  0.00    +0.000 A 
ATOM      2  C   UNL     1       2.435   7.290  18.143  0.00  0.00    +0.000 A 
ATOM      3  C   UNL     1       2.059   8.597  17.837  0.00  0.00    +0.000 A 
ATOM      4  C   UNL     1       1.480   9.404  18.810  0.00  0.00    +0.000 A 
ATOM      5  C   UNL     1       1.291   8.934  20.107  0.00  0.00    +0.000 A 
ATOM      6  C   UNL     1       1.666   7.603  20.402  0.00  0.00    +0.000 A 
ENDROOT
BRANCH   1  11
ATOM      7  N   UNL     1       3.726   4.697  19.715  0.00  0.00    +0.000 N 
ATOM      8  N   UNL     1       3.566   3.390  20.004  0.00  0.00    +0.000 NA
ATOM      9  N   UNL     1       2.267   3.228  20.186  0.00  0.00    +0.000 NA
ATOM     10  N   UNL     1       1.598   4.408  20.006  0.00  0.00    +0.000 NA
ATOM     11  C   UNL     1       2.497   5.335  19.707  0.00  0.00    +0.000 A 
BRANCH   7  12
ATOM     12  C   UNL     1       5.084   5.194  19.493  0.00  0.00    +0.000 C 
BRANCH  12  18
ATOM     13  C   UNL     1       6.916   5.387  17.695  0.00  0.00    +0.000 A 
ATOM     14  C   UNL     1       7.393   5.130  16.391  0.00  0.00    +0.000 A 
ATOM     15  C   UNL     1       6.597   4.464  15.458  0.00  0.00    +0.000 A 
ATOM     16  C   UNL     1       5.329   4.033  15.823  0.00  0.00    +0.000 A 
ATOM     17  C   UNL     1       4.853   4.268  17.113  0.00  0.00    +0.000 A 
ATOM     18  C   UNL     1       5.627   4.939  18.087  0.00  0.00    +0.000 A 
BRANCH  13  20
ATOM     19  O   UNL     1       8.132   7.243  18.549  0.00  0.00    +0.000 OA
ATOM     20  C   UNL     1       7.825   6.068  18.659  0.00  0.00    +0.000 C 
BRANCH  20  21
ATOM     21  O   UNL     1       8.287   5.290  19.660  0.00  0.00    +0.000 OA
ATOM     22  H   UNL     1       8.265   4.327  19.510  0.00  0.00    +0.000 HD
ENDBRANCH  20  21
ENDBRANCH  13  20
ENDBRANCH  12  18
ENDBRANCH   7  12
ENDBRANCH   1  11
BRANCH   5  23
ATOM     23  O   UNL     1       0.790   9.692  21.143  0.00  0.00    +0.000 OA
BRANCH  23  24
ATOM     24  C   UNL     1       0.780  11.123  20.936  0.00  0.00    +0.000 C 
BRANCH  24  25
ATOM     25  C   UNL     1      -0.596  11.768  21.012  0.00  0.00    +0.000 A 
ATOM     26  C   UNL     1      -1.337  11.995  19.861  0.00  0.00    +0.000 A 
ATOM     27  C   UNL     1      -2.613  12.531  19.982  0.00  0.00    +0.000 A 
ATOM     28  C   UNL     1      -3.185  12.692  21.243  0.00  0.00    +0.000 A 
ATOM     29  C   UNL     1      -4.529  13.082  21.372  0.00  0.00    +0.000 A 
ATOM     30  C   UNL     1      -5.147  13.069  22.617  0.00  0.00    +0.000 A 
ATOM     31  C   UNL     1      -4.406  12.726  23.742  0.00  0.00    +0.000 A 
ATOM     32  C   UNL     1      -3.044  12.413  23.615  0.00  0.00    +0.000 A 
ATOM     33  C   UNL     1      -2.410  12.368  22.374  0.00  0.00    +0.000 A 
ATOM     34  N   UNL     1      -1.123  11.961  22.258  0.00  0.00    +0.000 NA
ENDBRANCH  24  25
ENDBRANCH  23  24
ENDBRANCH   5  23
TORSDOF 8
ENDMDL
MODEL 7
REMARK VINA RESULT:      -9.3      6.968     11.160
REMARK  Name = 
REMARK  8 active torsions:
REMARK  status: ('A' for Active; 'I' for Inactive)
REMARK    1  A    between atoms: C_2  and  O_3
REMARK    2  A    between atoms: C_2  and  C_4
REMARK    3  A    between atoms: C_9  and  C_10
REMARK    4  A    between atoms: C_10  and  N_11
REMARK    5  A    between atoms: C_15  and  C_16
REMARK    6  A    between atoms: C_20  and  O_21
REMARK    7  A    between atoms: O_21  and  C_22
REMARK    8  A    between atoms: C_22  and  C_23
REMARK                            x       y       z     vdW  Elec       q    Type
REMARK                         _______ _______ _______ _____ _____    ______ ____
ROOT
ATOM      1  C   UNL     1       0.901  11.275  20.183  0.00  0.00    +0.000 A 
ATOM      2  C   UNL     1       1.460  12.477  19.747  0.00  0.00    +0.000 A 
ATOM      3  C   UNL     1       2.231  12.539  18.587  0.00  0.00    +0.000 A 
ATOM      4  C   UNL     1       2.418  11.401  17.812  0.00  0.00    +0.000 A 
ATOM      5  C   UNL     1       1.820  10.192  18.162  0.00  0.00    +0.000 A 
ATOM      6  C   UNL     1       1.049  10.141  19.345  0.00  0.00    +0.000 A 
ENDROOT
BRANCH   1  11
ATOM      7  N   UNL     1      -0.880  11.958  21.911  0.00  0.00    +0.000 N 
ATOM      8  N   UNL     1      -1.240  11.572  23.152  0.00  0.00    +0.000 NA
ATOM      9  N   UNL     1      -0.436  10.567  23.453  0.00  0.00    +0.000 NA
ATOM     10  N   UNL     1       0.436  10.315  22.429  0.00  0.00    +0.000 NA
ATOM     11  C   UNL     1       0.172  11.180  21.460  0.00  0.00    +0.000 A 
BRANCH   7  12
ATOM     12  C   UNL     1      -1.625  13.049  21.283  0.00  0.00    +0.000 C 
BRANCH  12  18
ATOM     13  C   UNL     1      -4.101  12.668  20.692  0.00  0.00    +0.000 A 
ATOM     14  C   UNL     1      -5.099  12.245  19.787  0.00  0.00    +0.000 A 
ATOM     15  C   UNL     1      -4.757  11.720  18.541  0.00  0.00    +0.000 A 
ATOM     16  C   UNL     1      -3.420  11.629  18.180  0.00  0.00    +0.000 A 
ATOM     17  C   UNL     1      -2.425  12.057  19.060  0.00  0.00    +0.000 A 
ATOM     18  C   UNL     1      -2.730  12.594  20.330  0.00  0.00    +0.000 A 
BRANCH  13  20
ATOM     19  O   UNL     1      -4.386  14.437  22.254  0.00  0.00    +0.000 OA
ATOM     20  C   UNL     1      -4.528  13.255  21.993  0.00  0.00    +0.000 C 
BRANCH  20  21
ATOM     21  O   UNL     1      -5.079  12.382  22.862  0.00  0.00    +0.000 OA
ATOM     22  H   UNL     1      -4.495  11.683  23.209  0.00  0.00    +0.000 HD
ENDBRANCH  20  21
ENDBRANCH  13  20
ENDBRANCH  12  18
ENDBRANCH   7  12
ENDBRANCH   1  11
BRANCH   5  23
ATOM     23  O   UNL     1       1.899   9.040  17.410  0.00  0.00    +0.000 OA
BRANCH  23  24
ATOM     24  C   UNL     1       3.001   8.156  17.716  0.00  0.00    +0.000 C 
BRANCH  24  25
ATOM     25  C   UNL     1       2.633   6.951  18.570  0.00  0.00    +0.000 A 
ATOM     26  C   UNL     1       2.269   7.108  19.899  0.00  0.00    +0.000 A 
ATOM     27  C   UNL     1       1.883   5.988  20.624  0.00  0.00    +0.000 A 
ATOM     28  C   UNL     1       1.723   4.761  19.980  0.00  0.00    +0.000 A 
ATOM     29  C   UNL     1       1.182   3.661  20.666  0.00  0.00    +0.000 A 
ATOM     30  C   UNL     1       0.858   2.497  19.979  0.00  0.00    +0.000 A 
ATOM     31  C   UNL     1       1.131   2.409  18.619  0.00  0.00    +0.000 A 
ATOM     32  C   UNL     1       1.743   3.484  17.957  0.00  0.00    +0.000 A 
ATOM     33  C   UNL     1       2.033   4.683  18.608  0.00  0.00    +0.000 A 
ATOM     34  N   UNL     1       2.526   5.747  17.930  0.00  0.00    +0.000 NA
ENDBRANCH  24  25
ENDBRANCH  23  24
ENDBRANCH   5  23
TORSDOF 8
ENDMDL
MODEL 8
REMARK VINA RESULT:      -9.3      5.450      8.325
REMARK  Name = 
REMARK  8 active torsions:
REMARK  status: ('A' for Active; 'I' for Inactive)
REMARK    1  A    between atoms: C_2  and  O_3
REMARK    2  A    between atoms: C_2  and  C_4
REMARK    3  A    between atoms: C_9  and  C_10
REMARK    4  A    between atoms: C_10  and  N_11
REMARK    5  A    between atoms: C_15  and  C_16
REMARK    6  A    between atoms: C_20  and  O_21
REMARK    7  A    between atoms: O_21  and  C_22
REMARK    8  A    between atoms: C_22  and  C_23
REMARK                            x       y       z     vdW  Elec       q    Type
REMARK                         _______ _______ _______ _____ _____    ______ ____
ROOT
ATOM      1  C   UNL     1       2.217   5.327  19.221  0.00  0.00    +0.000 A 
ATOM      2  C   UNL     1       1.860   5.636  20.535  0.00  0.00    +0.000 A 
ATOM      3  C   UNL     1       1.682   6.956  20.945  0.00  0.00    +0.000 A 
ATOM      4  C   UNL     1       1.811   7.995  20.031  0.00  0.00    +0.000 A 
ATOM      5  C   UNL     1       2.092   7.737  18.692  0.00  0.00    +0.000 A 
ATOM      6  C   UNL     1       2.281   6.394  18.291  0.00  0.00    +0.000 A 
ENDROOT
BRANCH   1  11
ATOM      7  N   UNL     1       3.732   3.380  18.488  0.00  0.00    +0.000 N 
ATOM      8  N   UNL     1       3.565   2.095  18.117  0.00  0.00    +0.000 NA
ATOM      9  N   UNL     1       2.267   1.866  18.219  0.00  0.00    +0.000 NA
ATOM     10  N   UNL     1       1.605   2.989  18.637  0.00  0.00    +0.000 NA
ATOM     11  C   UNL     1       2.508   3.944  18.805  0.00  0.00    +0.000 A 
BRANCH   7  12
ATOM     12  C   UNL     1       5.091   3.922  18.509  0.00  0.00    +0.000 C 
BRANCH  12  18
ATOM     13  C   UNL     1       6.823   5.080  16.998  0.00  0.00    +0.000 A 
ATOM     14  C   UNL     1       7.307   5.416  15.714  0.00  0.00    +0.000 A 
ATOM     15  C   UNL     1       6.617   5.027  14.566  0.00  0.00    +0.000 A 
ATOM     16  C   UNL     1       5.451   4.284  14.687  0.00  0.00    +0.000 A 
ATOM     17  C   UNL     1       4.970   3.934  15.949  0.00  0.00    +0.000 A 
ATOM     18  C   UNL     1       5.638   4.309  17.136  0.00  0.00    +0.000 A 
BRANCH  13  20
ATOM     19  O   UNL     1       8.178   4.684  18.910  0.00  0.00    +0.000 OA
ATOM     20  C   UNL     1       7.622   5.491  18.186  0.00  0.00    +0.000 C 
BRANCH  20  21
ATOM     21  O   UNL     1       7.682   6.821  18.404  0.00  0.00    +0.000 OA
ATOM     22  H   UNL     1       7.218   7.391  17.762  0.00  0.00    +0.000 HD
ENDBRANCH  20  21
ENDBRANCH  13  20
ENDBRANCH  12  18
ENDBRANCH   7  12
ENDBRANCH   1  11
BRANCH   5  23
ATOM     23  O   UNL     1       2.165   8.704  17.713  0.00  0.00    +0.000 OA
BRANCH  23  24
ATOM     24  C   UNL     1       1.968  10.067  18.151  0.00  0.00    +0.000 C 
BRANCH  24  25
ATOM     25  C   UNL     1       0.517  10.453  18.400  0.00  0.00    +0.000 A 
ATOM     26  C   UNL     1       0.193  11.440  19.319  0.00  0.00    +0.000 A 
ATOM     27  C   UNL     1      -1.139  11.803  19.471  0.00  0.00    +0.000 A 
ATOM     28  C   UNL     1      -2.105  11.288  18.606  0.00  0.00    +0.000 A 
ATOM     29  C   UNL     1      -3.425  11.765  18.647  0.00  0.00    +0.000 A 
ATOM     30  C   UNL     1      -4.339  11.383  17.672  0.00  0.00    +0.000 A 
ATOM     31  C   UNL     1      -3.952  10.476  16.693  0.00  0.00    +0.000 A 
ATOM     32  C   UNL     1      -2.654   9.943  16.706  0.00  0.00    +0.000 A 
ATOM     33  C   UNL     1      -1.700  10.346  17.640  0.00  0.00    +0.000 A 
ATOM     34  N   UNL     1      -0.422   9.902  17.573  0.00  0.00    +0.000 NA
ENDBRANCH  24  25
ENDBRANCH  23  24
ENDBRANCH   5  23
TORSDOF 8
ENDMDL
MODEL 9
REMARK VINA RESULT:      -9.3      5.587      8.466
REMARK  Name = 
REMARK  8 active torsions:
REMARK  status: ('A' for Active; 'I' for Inactive)
REMARK    1  A    between atoms: C_2  and  O_3
REMARK    2  A    between atoms: C_2  and  C_4
REMARK    3  A    between atoms: C_9  and  C_10
REMARK    4  A    between atoms: C_10  and  N_11
REMARK    5  A    between atoms: C_15  and  C_16
REMARK    6  A    between atoms: C_20  and  O_21
REMARK    7  A    between atoms: O_21  and  C_22
REMARK    8  A    between atoms: C_22  and  C_23
REMARK                            x       y       z     vdW  Elec       q    Type
REMARK                         _______ _______ _______ _____ _____    ______ ____
ROOT
ATOM      1  C   UNL     1       2.360   5.819  19.309  0.00  0.00    +0.000 A 
ATOM      2  C   UNL     1       2.534   6.541  18.127  0.00  0.00    +0.000 A 
ATOM      3  C   UNL     1       2.235   7.900  18.058  0.00  0.00    +0.000 A 
ATOM      4  C   UNL     1       1.800   8.578  19.190  0.00  0.00    +0.000 A 
ATOM      5  C   UNL     1       1.681   7.922  20.413  0.00  0.00    +0.000 A 
ATOM      6  C   UNL     1       1.977   6.541  20.468  0.00  0.00    +0.000 A 
ENDROOT
BRANCH   1  11
ATOM      7  N   UNL     1       3.767   3.664  19.288  0.00  0.00    +0.000 N 
ATOM      8  N   UNL     1       3.529   2.338  19.339  0.00  0.00    +0.000 NA
ATOM      9  N   UNL     1       2.218   2.222  19.461  0.00  0.00    +0.000 NA
ATOM     10  N   UNL     1       1.618   3.452  19.476  0.00  0.00    +0.000 NA
ATOM     11  C   UNL     1       2.574   4.363  19.364  0.00  0.00    +0.000 A 
BRANCH   7  12
ATOM     12  C   UNL     1       5.156   4.113  19.185  0.00  0.00    +0.000 C 
BRANCH  12  18
ATOM     13  C   UNL     1       6.737   5.273  17.518  0.00  0.00    +0.000 A 
ATOM     14  C   UNL     1       7.134   5.558  16.193  0.00  0.00    +0.000 A 
ATOM     15  C   UNL     1       6.410   5.064  15.108  0.00  0.00    +0.000 A 
ATOM     16  C   UNL     1       5.296   4.267  15.334  0.00  0.00    +0.000 A 
ATOM     17  C   UNL     1       4.902   3.966  16.639  0.00  0.00    +0.000 A 
ATOM     18  C   UNL     1       5.608   4.448  17.764  0.00  0.00    +0.000 A 
BRANCH  13  20
ATOM     19  O   UNL     1       7.849   5.126  19.614  0.00  0.00    +0.000 OA
ATOM     20  C   UNL     1       7.571   5.798  18.635  0.00  0.00    +0.000 C 
BRANCH  20  21
ATOM     21  O   UNL     1       7.992   7.071  18.487  0.00  0.00    +0.000 OA
ATOM     22  H   UNL     1       8.099   7.594  19.303  0.00  0.00    +0.000 HD
ENDBRANCH  20  21
ENDBRANCH  13  20
ENDBRANCH  12  18
ENDBRANCH   7  12
ENDBRANCH   1  11
BRANCH   5  23
ATOM     23  O   UNL     1       1.325   8.538  21.593  0.00  0.00    +0.000 OA
BRANCH  23  24
ATOM     24  C   UNL     1      -0.068   8.898  21.727  0.00  0.00    +0.000 C 
BRANCH  24  25
ATOM     25  C   UNL     1      -0.322  10.374  22.000  0.00  0.00    +0.000 A 
ATOM     26  C   UNL     1       0.360  11.353  21.293  0.00  0.00    +0.000 A 
ATOM     27  C   UNL     1       0.054  12.687  21.531  0.00  0.00    +0.000 A 
ATOM     28  C   UNL     1      -1.024  13.019  22.353  0.00  0.00    +0.000 A 
ATOM     29  C   UNL     1      -1.442  14.354  22.475  0.00  0.00    +0.000 A 
ATOM     30  C   UNL     1      -2.618  14.662  23.148  0.00  0.00    +0.000 A 
ATOM     31  C   UNL     1      -3.345  13.642  23.752  0.00  0.00    +0.000 A 
ATOM     32  C   UNL     1      -2.879  12.320  23.692  0.00  0.00    +0.000 A 
ATOM     33  C   UNL     1      -1.730  11.974  22.981  0.00  0.00    +0.000 A 
ATOM     34  N   UNL     1      -1.353  10.680  22.844  0.00  0.00    +0.000 NA
ENDBRANCH  24  25
ENDBRANCH  23  24
ENDBRANCH   5  23
TORSDOF 8
ENDMDL
