MODEL 1
REMARK VINA RESULT:      -6.8      0.000      0.000
REMARK  Name = 
REMARK  6 active torsions:
REMARK  status: ('A' for Active; 'I' for Inactive)
REMARK    1  A    between atoms: C_4  and  C_5
REMARK    2  A    between atoms: N_13  and  C1*_14
REMARK    3  A    between atoms: C4*_16  and  C5*_17
REMARK    4  A    between atoms: C5*_17  and  O5*_18
REMARK    5  A    between atoms: C3*_19  and  O3*_20
REMARK    6  A    between atoms: C2*_21  and  O2*_22
REMARK                            x       y       z     vdW  Elec       q    Type
REMARK                         _______ _______ _______ _____ _____    ______ ____
ROOT
ATOM      1  N   UNL     1       2.210   3.964  21.402  0.00  0.00    +0.000 N 
ATOM      2  C   UNL     1       2.582   4.865  20.424  0.00  0.00    +0.000 A 
ATOM      3  N   UNL     1       3.503   4.446  19.548  0.00  0.00    +0.000 NA
ATOM      4  C   UNL     1       3.881   5.280  18.544  0.00  0.00    +0.000 A 
ATOM      5  C   UNL     1       3.305   6.544  18.448  0.00  0.00    +0.000 A 
ATOM      6  N   UNL     1       3.436   7.602  17.567  0.00  0.00    +0.000 NA
ATOM      7  C   UNL     1       2.607   8.522  18.012  0.00  0.00    +0.000 A 
ATOM      8  N   UNL     1       1.966   8.122  19.151  0.00  0.00    +0.000 N 
ATOM      9  C   UNL     1       2.395   6.857  19.442  0.00  0.00    +0.000 A 
ATOM     10  N   UNL     1       2.002   6.070  20.459  0.00  0.00    +0.000 NA
ATOM     11  H   UNL     1       2.928   3.263  21.507  0.00  0.00    +0.000 HD
ATOM     12  H   UNL     1       1.898   4.440  22.235  0.00  0.00    +0.000 HD
ENDROOT
BRANCH   4  13
ATOM     13  C   UNL     1       4.873   4.823  17.579  0.00  0.00    +0.000 A 
ATOM     14  C   UNL     1       4.690   4.103  16.408  0.00  0.00    +0.000 A 
ATOM     15  C   UNL     1       5.902   3.871  15.702  0.00  0.00    +0.000 A 
ATOM     16  C   UNL     1       6.985   4.416  16.353  0.00  0.00    +0.000 A 
ATOM     17  S   UNL     1       6.536   5.188  17.810  0.00  0.00    +0.000 S 
ENDBRANCH   4  13
BRANCH   8  18
ATOM     18  C1* UNL     1       0.983   8.893  19.873  0.00  0.00    +0.000 C 
ATOM     19  O4* UNL     1       0.461   9.932  19.017  0.00  0.00    +0.000 OA
ATOM     20  C4* UNL     1       0.273  11.128  19.817  0.00  0.00    +0.000 C 
ATOM     21  C3* UNL     1       0.530  10.728  21.271  0.00  0.00    +0.000 C 
ATOM     22  C2* UNL     1       1.497   9.560  21.147  0.00  0.00    +0.000 C 
BRANCH  21  23
ATOM     23  O3* UNL     1      -0.666  10.233  21.909  0.00  0.00    +0.000 OA
ATOM     24  H3* UNL     1      -1.229   9.798  21.244  0.00  0.00    +0.000 HD
ENDBRANCH  21  23
BRANCH  22  25
ATOM     25  O2* UNL     1       1.429   8.691  22.276  0.00  0.00    +0.000 OA
ATOM     26  H2* UNL     1       2.166   8.949  22.869  0.00  0.00    +0.000 HD
ENDBRANCH  22  25
BRANCH  20  27
ATOM     27  C5* UNL     1       1.218  12.228  19.325  0.00  0.00    +0.000 C 
BRANCH  27  28
ATOM     28  O5* UNL     1       1.716  11.912  18.027  0.00  0.00    +0.000 OA
ATOM     29  H5* UNL     1       1.115  12.342  17.390  0.00  0.00    +0.000 HD
ENDBRANCH  27  28
ENDBRANCH  20  27
ENDBRANCH   8  18
TORSDOF 6
ENDMDL
MODEL 2
REMARK VINA RESULT:      -6.7      1.432      1.523
REMARK  Name = 
REMARK  6 active torsions:
REMARK  status: ('A' for Active; 'I' for Inactive)
REMARK    1  A    between atoms: C_4  and  C_5
REMARK    2  A    between atoms: N_13  and  C1*_14
REMARK    3  A    between atoms: C4*_16  and  C5*_17
REMARK    4  A    between atoms: C5*_17  and  O5*_18
REMARK    5  A    between atoms: C3*_19  and  O3*_20
REMARK    6  A    between atoms: C2*_21  and  O2*_22
REMARK                            x       y       z     vdW  Elec       q    Type
REMARK                         _______ _______ _______ _____ _____    ______ ____
ROOT
ATOM      1  N   UNL     1       2.205   4.936  21.399  0.00  0.00    +0.000 N 
ATOM      2  C   UNL     1       2.365   5.828  20.357  0.00  0.00    +0.000 A 
ATOM      3  N   UNL     1       3.181   5.447  19.367  0.00  0.00    +0.000 NA
ATOM      4  C   UNL     1       3.347   6.272  18.300  0.00  0.00    +0.000 A 
ATOM      5  C   UNL     1       2.669   7.486  18.258  0.00  0.00    +0.000 A 
ATOM      6  N   UNL     1       2.592   8.521  17.343  0.00  0.00    +0.000 NA
ATOM      7  C   UNL     1       1.767   9.393  17.880  0.00  0.00    +0.000 A 
ATOM      8  N   UNL     1       1.326   8.987  19.109  0.00  0.00    +0.000 N 
ATOM      9  C   UNL     1       1.888   7.766  19.365  0.00  0.00    +0.000 A 
ATOM     10  N   UNL     1       1.705   6.989  20.446  0.00  0.00    +0.000 NA
ATOM     11  H   UNL     1       2.982   4.293  21.416  0.00  0.00    +0.000 HD
ATOM     12  H   UNL     1       1.978   5.417  22.257  0.00  0.00    +0.000 HD
ENDROOT
BRANCH   4  13
ATOM     13  C   UNL     1       4.224   5.855  17.212  0.00  0.00    +0.000 A 
ATOM     14  C   UNL     1       4.966   6.632  16.336  0.00  0.00    +0.000 A 
ATOM     15  C   UNL     1       5.738   5.861  15.424  0.00  0.00    +0.000 A 
ATOM     16  C   UNL     1       5.563   4.510  15.621  0.00  0.00    +0.000 A 
ATOM     17  S   UNL     1       4.467   4.184  16.890  0.00  0.00    +0.000 S 
ENDBRANCH   4  13
BRANCH   8  18
ATOM     18  C1* UNL     1       0.399   9.708  19.947  0.00  0.00    +0.000 C 
ATOM     19  O4* UNL     1      -0.580  10.373  19.120  0.00  0.00    +0.000 OA
ATOM     20  C4* UNL     1      -0.859  11.673  19.702  0.00  0.00    +0.000 C 
ATOM     21  C3* UNL     1      -0.136  11.714  21.050  0.00  0.00    +0.000 C 
ATOM     22  C2* UNL     1       1.035  10.765  20.848  0.00  0.00    +0.000 C 
BRANCH  21  23
ATOM     23  O3* UNL     1      -0.952  11.174  22.111  0.00  0.00    +0.000 OA
ATOM     24  H3* UNL     1      -0.397  11.016  22.895  0.00  0.00    +0.000 HD
ENDBRANCH  21  23
BRANCH  22  25
ATOM     25  O2* UNL     1       1.494  10.216  22.082  0.00  0.00    +0.000 OA
ATOM     26  H2* UNL     1       0.695  10.053  22.627  0.00  0.00    +0.000 HD
ENDBRANCH  22  25
BRANCH  20  27
ATOM     27  C5* UNL     1      -0.397  12.774  18.744  0.00  0.00    +0.000 C 
BRANCH  27  28
ATOM     28  O5* UNL     1      -1.140  12.720  17.528  0.00  0.00    +0.000 OA
ATOM     29  H5* UNL     1      -0.571  12.265  16.879  0.00  0.00    +0.000 HD
ENDBRANCH  27  28
ENDBRANCH  20  27
ENDBRANCH   8  18
TORSDOF 6
ENDMDL
MODEL 3
REMARK VINA RESULT:      -6.6      3.946      5.768
REMARK  Name = 
REMARK  6 active torsions:
REMARK  status: ('A' for Active; 'I' for Inactive)
REMARK    1  A    between atoms: C_4  and  C_5
REMARK    2  A    between atoms: N_13  and  C1*_14
REMARK    3  A    between atoms: C4*_16  and  C5*_17
REMARK    4  A    between atoms: C5*_17  and  O5*_18
REMARK    5  A    between atoms: C3*_19  and  O3*_20
REMARK    6  A    between atoms: C2*_21  and  O2*_22
REMARK                            x       y       z     vdW  Elec       q    Type
REMARK                         _______ _______ _______ _____ _____    ______ ____
ROOT
ATOM      1  N   UNL     1       7.729   7.342  17.878  0.00  0.00    +0.000 N 
ATOM      2  C   UNL     1       6.920   6.368  17.327  0.00  0.00    +0.000 A 
ATOM      3  N   UNL     1       7.179   6.028  16.058  0.00  0.00    +0.000 NA
ATOM      4  C   UNL     1       6.435   5.050  15.477  0.00  0.00    +0.000 A 
ATOM      5  C   UNL     1       5.428   4.426  16.209  0.00  0.00    +0.000 A 
ATOM      6  N   UNL     1       4.527   3.411  15.944  0.00  0.00    +0.000 NA
ATOM      7  C   UNL     1       3.836   3.268  17.054  0.00  0.00    +0.000 A 
ATOM      8  N   UNL     1       4.227   4.158  18.016  0.00  0.00    +0.000 N 
ATOM      9  C   UNL     1       5.249   4.904  17.495  0.00  0.00    +0.000 A 
ATOM     10  N   UNL     1       5.950   5.875  18.105  0.00  0.00    +0.000 NA
ATOM     11  H   UNL     1       8.162   7.879  17.142  0.00  0.00    +0.000 HD
ATOM     12  H   UNL     1       7.244   7.850  18.603  0.00  0.00    +0.000 HD
ENDROOT
BRANCH   4  13
ATOM     13  C   UNL     1       6.722   4.665  14.101  0.00  0.00    +0.000 A 
ATOM     14  C   UNL     1       6.132   3.679  13.325  0.00  0.00    +0.000 A 
ATOM     15  C   UNL     1       6.656   3.623  12.004  0.00  0.00    +0.000 A 
ATOM     16  C   UNL     1       7.639   4.564  11.803  0.00  0.00    +0.000 A 
ATOM     17  S   UNL     1       7.930   5.497  13.205  0.00  0.00    +0.000 S 
ENDBRANCH   4  13
BRANCH   8  18
ATOM     18  C1* UNL     1       3.680   4.247  19.348  0.00  0.00    +0.000 C 
ATOM     19  O4* UNL     1       3.145   2.962  19.735  0.00  0.00    +0.000 OA
ATOM     20  C4* UNL     1       1.921   3.186  20.482  0.00  0.00    +0.000 C 
ATOM     21  C3* UNL     1       1.813   4.696  20.704  0.00  0.00    +0.000 C 
ATOM     22  C2* UNL     1       2.568   5.280  19.519  0.00  0.00    +0.000 C 
BRANCH  21  23
ATOM     23  O3* UNL     1       2.502   5.111  21.902  0.00  0.00    +0.000 OA
ATOM     24  H3* UNL     1       2.170   5.984  22.178  0.00  0.00    +0.000 HD
ENDBRANCH  21  23
BRANCH  22  25
ATOM     25  O2* UNL     1       3.079   6.581  19.803  0.00  0.00    +0.000 OA
ATOM     26  H2* UNL     1       2.906   6.745  20.753  0.00  0.00    +0.000 HD
ENDBRANCH  22  25
BRANCH  20  27
ATOM     27  C5* UNL     1       0.734   2.611  19.704  0.00  0.00    +0.000 C 
BRANCH  27  28
ATOM     28  O5* UNL     1       1.189   1.728  18.682  0.00  0.00    +0.000 OA
ATOM     29  H5* UNL     1       0.664   0.911  18.772  0.00  0.00    +0.000 HD
ENDBRANCH  27  28
ENDBRANCH  20  27
ENDBRANCH   8  18
TORSDOF 6
ENDMDL
MODEL 4
REMARK VINA RESULT:      -6.6      4.301      5.916
REMARK  Name = 
REMARK  6 active torsions:
REMARK  status: ('A' for Active; 'I' for Inactive)
REMARK    1  A    between atoms: C_4  and  C_5
REMARK    2  A    between atoms: N_13  and  C1*_14
REMARK    3  A    between atoms: C4*_16  and  C5*_17
REMARK    4  A    between atoms: C5*_17  and  O5*_18
REMARK    5  A    between atoms: C3*_19  and  O3*_20
REMARK    6  A    between atoms: C2*_21  and  O2*_22
REMARK                            x       y       z     vdW  Elec       q    Type
REMARK                         _______ _______ _______ _____ _____    ______ ____
ROOT
ATOM      1  N   UNL     1       8.536   5.169  19.090  0.00  0.00    +0.000 N 
ATOM      2  C   UNL     1       7.472   4.868  18.262  0.00  0.00    +0.000 A 
ATOM      3  N   UNL     1       7.702   4.948  16.946  0.00  0.00    +0.000 NA
ATOM      4  C   UNL     1       6.699   4.628  16.085  0.00  0.00    +0.000 A 
ATOM      5  C   UNL     1       5.465   4.226  16.587  0.00  0.00    +0.000 A 
ATOM      6  N   UNL     1       4.273   3.820  16.014  0.00  0.00    +0.000 NA
ATOM      7  C   UNL     1       3.477   3.560  17.028  0.00  0.00    +0.000 A 
ATOM      8  N   UNL     1       4.085   3.803  18.229  0.00  0.00    +0.000 N 
ATOM      9  C   UNL     1       5.359   4.224  17.966  0.00  0.00    +0.000 A 
ATOM     10  N   UNL     1       6.317   4.545  18.854  0.00  0.00    +0.000 NA
ATOM     11  H   UNL     1       9.210   5.724  18.585  0.00  0.00    +0.000 HD
ATOM     12  H   UNL     1       8.215   5.520  19.980  0.00  0.00    +0.000 HD
ENDROOT
BRANCH   4  13
ATOM     13  C   UNL     1       6.948   4.700  14.650  0.00  0.00    +0.000 A 
ATOM     14  C   UNL     1       7.813   5.527  13.951  0.00  0.00    +0.000 A 
ATOM     15  C   UNL     1       7.810   5.279  12.551  0.00  0.00    +0.000 A 
ATOM     16  C   UNL     1       6.938   4.270  12.212  0.00  0.00    +0.000 A 
ATOM     17  S   UNL     1       6.124   3.641  13.576  0.00  0.00    +0.000 S 
ENDBRANCH   4  13
BRANCH   8  18
ATOM     18  C1* UNL     1       3.487   3.600  19.526  0.00  0.00    +0.000 C 
ATOM     19  O4* UNL     1       2.825   2.317  19.556  0.00  0.00    +0.000 OA
ATOM     20  C4* UNL     1       1.593   2.459  20.309  0.00  0.00    +0.000 C 
ATOM     21  C3* UNL     1       1.608   3.865  20.912  0.00  0.00    +0.000 C 
ATOM     22  C2* UNL     1       2.464   4.657  19.935  0.00  0.00    +0.000 C 
BRANCH  21  23
ATOM     23  O3* UNL     1       2.275   3.892  22.192  0.00  0.00    +0.000 OA
ATOM     24  H3* UNL     1       1.913   3.187  22.757  0.00  0.00    +0.000 HD
ENDBRANCH  21  23
BRANCH  22  25
ATOM     25  O2* UNL     1       3.073   5.787  20.557  0.00  0.00    +0.000 OA
ATOM     26  H2* UNL     1       3.675   5.433  21.245  0.00  0.00    +0.000 HD
ENDBRANCH  22  25
BRANCH  20  27
ATOM     27  C5* UNL     1       0.396   2.220  19.384  0.00  0.00    +0.000 C 
BRANCH  27  28
ATOM     28  O5* UNL     1       0.833   1.708  18.128  0.00  0.00    +0.000 OA
ATOM     29  H5* UNL     1       0.645   2.401  17.468  0.00  0.00    +0.000 HD
ENDBRANCH  27  28
ENDBRANCH  20  27
ENDBRANCH   8  18
TORSDOF 6
ENDMDL
MODEL 5
REMARK VINA RESULT:      -6.3      1.174      1.273
REMARK  Name = 
REMARK  6 active torsions:
REMARK  status: ('A' for Active; 'I' for Inactive)
REMARK    1  A    between atoms: C_4  and  C_5
REMARK    2  A    between atoms: N_13  and  C1*_14
REMARK    3  A    between atoms: C4*_16  and  C5*_17
REMARK    4  A    between atoms: C5*_17  and  O5*_18
REMARK    5  A    between atoms: C3*_19  and  O3*_20
REMARK    6  A    between atoms: C2*_21  and  O2*_22
REMARK                            x       y       z     vdW  Elec       q    Type
REMARK                         _______ _______ _______ _____ _____    ______ ____
ROOT
ATOM      1  N   UNL     1       2.157   3.280  21.890  0.00  0.00    +0.000 N 
ATOM      2  C   UNL     1       2.415   4.307  21.004  0.00  0.00    +0.000 A 
ATOM      3  N   UNL     1       3.223   4.018  19.977  0.00  0.00    +0.000 NA
ATOM      4  C   UNL     1       3.483   4.984  19.056  0.00  0.00    +0.000 A 
ATOM      5  C   UNL     1       2.907   6.242  19.199  0.00  0.00    +0.000 A 
ATOM      6  N   UNL     1       2.938   7.411  18.458  0.00  0.00    +0.000 NA
ATOM      7  C   UNL     1       2.172   8.254  19.117  0.00  0.00    +0.000 A 
ATOM      8  N   UNL     1       1.669   7.698  20.260  0.00  0.00    +0.000 N 
ATOM      9  C   UNL     1       2.123   6.410  20.327  0.00  0.00    +0.000 A 
ATOM     10  N   UNL     1       1.850   5.491  21.268  0.00  0.00    +0.000 NA
ATOM     11  H   UNL     1       2.879   2.579  21.814  0.00  0.00    +0.000 HD
ATOM     12  H   UNL     1       1.949   3.637  22.810  0.00  0.00    +0.000 HD
ENDROOT
BRANCH   4  13
ATOM     13  C   UNL     1       4.351   4.670  17.927  0.00  0.00    +0.000 A 
ATOM     14  C   UNL     1       4.053   3.995  16.753  0.00  0.00    +0.000 A 
ATOM     15  C   UNL     1       5.158   3.914  15.862  0.00  0.00    +0.000 A 
ATOM     16  C   UNL     1       6.278   4.524  16.379  0.00  0.00    +0.000 A 
ATOM     17  S   UNL     1       5.993   5.177  17.932  0.00  0.00    +0.000 S 
ENDBRANCH   4  13
BRANCH   8  18
ATOM     18  C1* UNL     1       0.782   8.355  21.190  0.00  0.00    +0.000 C 
ATOM     19  O4* UNL     1      -0.390   8.824  20.489  0.00  0.00    +0.000 OA
ATOM     20  C4* UNL     1      -0.760  10.116  21.035  0.00  0.00    +0.000 C 
ATOM     21  C3* UNL     1       0.139  10.352  22.251  0.00  0.00    +0.000 C 
ATOM     22  C2* UNL     1       1.389   9.549  21.924  0.00  0.00    +0.000 C 
BRANCH  21  23
ATOM     23  O3* UNL     1      -0.430   9.792  23.454  0.00  0.00    +0.000 OA
ATOM     24  H3* UNL     1      -1.398   9.897  23.430  0.00  0.00    +0.000 HD
ENDBRANCH  21  23
BRANCH  22  25
ATOM     25  O2* UNL     1       2.095   9.159  23.100  0.00  0.00    +0.000 OA
ATOM     26  H2* UNL     1       1.788   9.753  23.817  0.00  0.00    +0.000 HD
ENDBRANCH  22  25
BRANCH  20  27
ATOM     27  C5* UNL     1      -0.599  11.192  19.958  0.00  0.00    +0.000 C 
BRANCH  27  28
ATOM     28  O5* UNL     1      -0.462  10.593  18.672  0.00  0.00    +0.000 OA
ATOM     29  H5* UNL     1      -0.768   9.671  18.765  0.00  0.00    +0.000 HD
ENDBRANCH  27  28
ENDBRANCH  20  27
ENDBRANCH   8  18
TORSDOF 6
ENDMDL
MODEL 6
REMARK VINA RESULT:      -6.3      3.724      6.909
REMARK  Name = 
REMARK  6 active torsions:
REMARK  status: ('A' for Active; 'I' for Inactive)
REMARK    1  A    between atoms: C_4  and  C_5
REMARK    2  A    between atoms: N_13  and  C1*_14
REMARK    3  A    between atoms: C4*_16  and  C5*_17
REMARK    4  A    between atoms: C5*_17  and  O5*_18
REMARK    5  A    between atoms: C3*_19  and  O3*_20
REMARK    6  A    between atoms: C2*_21  and  O2*_22
REMARK                            x       y       z     vdW  Elec       q    Type
REMARK                         _______ _______ _______ _____ _____    ______ ____
ROOT
ATOM      1  N   UNL     1       1.978   4.141  21.459  0.00  0.00    +0.000 N 
ATOM      2  C   UNL     1       2.151   5.237  20.637  0.00  0.00    +0.000 A 
ATOM      3  N   UNL     1       1.473   6.342  20.968  0.00  0.00    +0.000 NA
ATOM      4  C   UNL     1       1.634   7.461  20.213  0.00  0.00    +0.000 A 
ATOM      5  C   UNL     1       2.494   7.434  19.120  0.00  0.00    +0.000 A 
ATOM      6  N   UNL     1       2.898   8.368  18.182  0.00  0.00    +0.000 NA
ATOM      7  C   UNL     1       3.744   7.729  17.403  0.00  0.00    +0.000 A 
ATOM      8  N   UNL     1       3.888   6.420  17.774  0.00  0.00    +0.000 N 
ATOM      9  C   UNL     1       3.101   6.215  18.874  0.00  0.00    +0.000 A 
ATOM     10  N   UNL     1       2.962   5.082  19.584  0.00  0.00    +0.000 NA
ATOM     11  H   UNL     1       1.118   4.239  21.976  0.00  0.00    +0.000 HD
ATOM     12  H   UNL     1       2.123   3.280  20.952  0.00  0.00    +0.000 HD
ENDROOT
BRANCH   4  13
ATOM     13  C   UNL     1       0.908   8.671  20.578  0.00  0.00    +0.000 A 
ATOM     14  C   UNL     1       0.134   9.503  19.783  0.00  0.00    +0.000 A 
ATOM     15  C   UNL     1      -0.452  10.578  20.508  0.00  0.00    +0.000 A 
ATOM     16  C   UNL     1      -0.106  10.546  21.839  0.00  0.00    +0.000 A 
ATOM     17  S   UNL     1       0.927   9.234  22.202  0.00  0.00    +0.000 S 
ENDBRANCH   4  13
BRANCH   8  18
ATOM     18  C1* UNL     1       4.755   5.460  17.136  0.00  0.00    +0.000 C 
ATOM     19  O4* UNL     1       5.465   4.707  18.143  0.00  0.00    +0.000 OA
ATOM     20  C4* UNL     1       6.821   4.489  17.676  0.00  0.00    +0.000 C 
ATOM     21  C3* UNL     1       6.872   4.987  16.230  0.00  0.00    +0.000 C 
ATOM     22  C2* UNL     1       5.794   6.060  16.191  0.00  0.00    +0.000 C 
BRANCH  21  23
ATOM     23  O3* UNL     1       6.490   3.957  15.295  0.00  0.00    +0.000 OA
ATOM     24  H3* UNL     1       7.189   3.855  14.625  0.00  0.00    +0.000 HD
ENDBRANCH  21  23
BRANCH  22  25
ATOM     25  O2* UNL     1       5.281   6.250  14.874  0.00  0.00    +0.000 OA
ATOM     26  H2* UNL     1       5.056   7.202  14.799  0.00  0.00    +0.000 HD
ENDBRANCH  22  25
BRANCH  20  27
ATOM     27  C5* UNL     1       7.804   5.221  18.594  0.00  0.00    +0.000 C 
BRANCH  27  28
ATOM     28  O5* UNL     1       7.224   5.427  19.880  0.00  0.00    +0.000 OA
ATOM     29  H5* UNL     1       7.775   6.098  20.325  0.00  0.00    +0.000 HD
ENDBRANCH  27  28
ENDBRANCH  20  27
ENDBRANCH   8  18
TORSDOF 6
ENDMDL
MODEL 7
REMARK VINA RESULT:      -6.3      3.809      7.406
REMARK  Name = 
REMARK  6 active torsions:
REMARK  status: ('A' for Active; 'I' for Inactive)
REMARK    1  A    between atoms: C_4  and  C_5
REMARK    2  A    between atoms: N_13  and  C1*_14
REMARK    3  A    between atoms: C4*_16  and  C5*_17
REMARK    4  A    between atoms: C5*_17  and  O5*_18
REMARK    5  A    between atoms: C3*_19  and  O3*_20
REMARK    6  A    between atoms: C2*_21  and  O2*_22
REMARK                            x       y       z     vdW  Elec       q    Type
REMARK                         _______ _______ _______ _____ _____    ______ ____
ROOT
ATOM      1  N   UNL     1       2.340  10.564  17.248  0.00  0.00    +0.000 N 
ATOM      2  C   UNL     1       2.076   9.670  18.266  0.00  0.00    +0.000 A 
ATOM      3  N   UNL     1       1.335  10.128  19.283  0.00  0.00    +0.000 NA
ATOM      4  C   UNL     1       1.016   9.279  20.296  0.00  0.00    +0.000 A 
ATOM      5  C   UNL     1       1.461   7.961  20.253  0.00  0.00    +0.000 A 
ATOM      6  N   UNL     1       1.305   6.861  21.077  0.00  0.00    +0.000 NA
ATOM      7  C   UNL     1       1.966   5.891  20.482  0.00  0.00    +0.000 A 
ATOM      8  N   UNL     1       2.564   6.316  19.327  0.00  0.00    +0.000 N 
ATOM      9  C   UNL     1       2.247   7.636  19.162  0.00  0.00    +0.000 A 
ATOM     10  N   UNL     1       2.598   8.444  18.147  0.00  0.00    +0.000 NA
ATOM     11  H   UNL     1       2.223  11.507  17.587  0.00  0.00    +0.000 HD
ATOM     12  H   UNL     1       3.207  10.340  16.783  0.00  0.00    +0.000 HD
ENDROOT
BRANCH   4  13
ATOM     13  C   UNL     1       0.198   9.769  21.398  0.00  0.00    +0.000 A 
ATOM     14  C   UNL     1      -0.031   9.199  22.641  0.00  0.00    +0.000 A 
ATOM     15  C   UNL     1      -0.865   9.995  23.474  0.00  0.00    +0.000 A 
ATOM     16  C   UNL     1      -1.258  11.154  22.845  0.00  0.00    +0.000 A 
ATOM     17  S   UNL     1      -0.633  11.267  21.259  0.00  0.00    +0.000 S 
ENDBRANCH   4  13
BRANCH   8  18
ATOM     18  C1* UNL     1       3.343   5.493  18.436  0.00  0.00    +0.000 C 
ATOM     19  O4* UNL     1       2.458   4.733  17.584  0.00  0.00    +0.000 OA
ATOM     20  C4* UNL     1       3.021   3.406  17.413  0.00  0.00    +0.000 C 
ATOM     21  C3* UNL     1       4.409   3.432  18.055  0.00  0.00    +0.000 C 
ATOM     22  C2* UNL     1       4.280   4.504  19.127  0.00  0.00    +0.000 C 
BRANCH  21  23
ATOM     23  O3* UNL     1       5.421   3.873  17.124  0.00  0.00    +0.000 OA
ATOM     24  H3* UNL     1       6.250   3.396  17.302  0.00  0.00    +0.000 HD
ENDBRANCH  21  23
BRANCH  22  25
ATOM     25  O2* UNL     1       5.539   5.089  19.450  0.00  0.00    +0.000 OA
ATOM     26  H2* UNL     1       5.766   5.687  18.708  0.00  0.00    +0.000 HD
ENDBRANCH  22  25
BRANCH  20  27
ATOM     27  C5* UNL     1       2.090   2.369  18.047  0.00  0.00    +0.000 C 
BRANCH  27  28
ATOM     28  O5* UNL     1       0.811   2.942  18.309  0.00  0.00    +0.000 OA
ATOM     29  H5* UNL     1       0.226   2.650  17.585  0.00  0.00    +0.000 HD
ENDBRANCH  27  28
ENDBRANCH  20  27
ENDBRANCH   8  18
TORSDOF 6
ENDMDL
MODEL 8
REMARK VINA RESULT:      -6.3      3.568      6.887
REMARK  Name = 
REMARK  6 active torsions:
REMARK  status: ('A' for Active; 'I' for Inactive)
REMARK    1  A    between atoms: C_4  and  C_5
REMARK    2  A    between atoms: N_13  and  C1*_14
REMARK    3  A    between atoms: C4*_16  and  C5*_17
REMARK    4  A    between atoms: C5*_17  and  O5*_18
REMARK    5  A    between atoms: C3*_19  and  O3*_20
REMARK    6  A    between atoms: C2*_21  and  O2*_22
REMARK                            x       y       z     vdW  Elec       q    Type
REMARK                         _______ _______ _______ _____ _____    ______ ____
ROOT
ATOM      1  N   UNL     1      -0.101   8.551  22.805  0.00  0.00    +0.000 N 
ATOM      2  C   UNL     1       0.438   8.767  21.552  0.00  0.00    +0.000 A 
ATOM      3  N   UNL     1       0.268   9.990  21.034  0.00  0.00    +0.000 NA
ATOM      4  C   UNL     1       0.808  10.268  19.818  0.00  0.00    +0.000 A 
ATOM      5  C   UNL     1       1.522   9.283  19.143  0.00  0.00    +0.000 A 
ATOM      6  N   UNL     1       2.202   9.234  17.938  0.00  0.00    +0.000 NA
ATOM      7  C   UNL     1       2.681   8.011  17.865  0.00  0.00    +0.000 A 
ATOM      8  N   UNL     1       2.323   7.258  18.949  0.00  0.00    +0.000 N 
ATOM      9  C   UNL     1       1.587   8.056  19.780  0.00  0.00    +0.000 A 
ATOM     10  N   UNL     1       1.058   7.733  20.972  0.00  0.00    +0.000 NA
ATOM     11  H   UNL     1      -0.822   9.234  22.985  0.00  0.00    +0.000 HD
ATOM     12  H   UNL     1      -0.336   7.579  22.936  0.00  0.00    +0.000 HD
ENDROOT
BRANCH   4  13
ATOM     13  C   UNL     1       0.639  11.602  19.256  0.00  0.00    +0.000 A 
ATOM     14  C   UNL     1      -0.474  12.163  18.648  0.00  0.00    +0.000 A 
ATOM     15  C   UNL     1      -0.272  13.514  18.255  0.00  0.00    +0.000 A 
ATOM     16  C   UNL     1       0.993  13.954  18.568  0.00  0.00    +0.000 A 
ATOM     17  S   UNL     1       1.928  12.737  19.318  0.00  0.00    +0.000 S 
ENDBRANCH   4  13
BRANCH   8  18
ATOM     18  C1* UNL     1       2.704   5.885  19.177  0.00  0.00    +0.000 C 
ATOM     19  O4* UNL     1       4.036   5.841  19.734  0.00  0.00    +0.000 OA
ATOM     20  C4* UNL     1       4.736   4.712  19.150  0.00  0.00    +0.000 C 
ATOM     21  C3* UNL     1       3.704   3.933  18.332  0.00  0.00    +0.000 C 
ATOM     22  C2* UNL     1       2.695   4.999  17.933  0.00  0.00    +0.000 C 
BRANCH  21  23
ATOM     23  O3* UNL     1       3.007   2.958  19.137  0.00  0.00    +0.000 OA
ATOM     24  H3* UNL     1       3.364   2.072  18.949  0.00  0.00    +0.000 HD
ENDBRANCH  21  23
BRANCH  22  25
ATOM     25  O2* UNL     1       1.407   4.444  17.675  0.00  0.00    +0.000 OA
ATOM     26  H2* UNL     1       1.046   4.929  16.904  0.00  0.00    +0.000 HD
ENDBRANCH  22  25
BRANCH  20  27
ATOM     27  C5* UNL     1       5.909   5.216  18.306  0.00  0.00    +0.000 C 
BRANCH  27  28
ATOM     28  O5* UNL     1       6.939   4.231  18.248  0.00  0.00    +0.000 OA
ATOM     29  H5* UNL     1       6.624   3.540  17.636  0.00  0.00    +0.000 HD
ENDBRANCH  27  28
ENDBRANCH  20  27
ENDBRANCH   8  18
TORSDOF 6
ENDMDL
MODEL 9
REMARK VINA RESULT:      -6.2      1.536      1.689
REMARK  Name = 
REMARK  6 active torsions:
REMARK  status: ('A' for Active; 'I' for Inactive)
REMARK    1  A    between atoms: C_4  and  C_5
REMARK    2  A    between atoms: N_13  and  C1*_14
REMARK    3  A    between atoms: C4*_16  and  C5*_17
REMARK    4  A    between atoms: C5*_17  and  O5*_18
REMARK    5  A    between atoms: C3*_19  and  O3*_20
REMARK    6  A    between atoms: C2*_21  and  O2*_22
REMARK                            x       y       z     vdW  Elec       q    Type
REMARK                         _______ _______ _______ _____ _____    ______ ____
ROOT
ATOM      1  N   UNL     1       2.161   4.907  21.394  0.00  0.00    +0.000 N 
ATOM      2  C   UNL     1       2.390   5.809  20.373  0.00  0.00    +0.000 A 
ATOM      3  N   UNL     1       3.290   5.447  19.451  0.00  0.00    +0.000 NA
ATOM      4  C   UNL     1       3.528   6.281  18.404  0.00  0.00    +0.000 A 
ATOM      5  C   UNL     1       2.835   7.485  18.314  0.00  0.00    +0.000 A 
ATOM      6  N   UNL     1       2.815   8.524  17.401  0.00  0.00    +0.000 NA
ATOM      7  C   UNL     1       1.934   9.379  17.875  0.00  0.00    +0.000 A 
ATOM      8  N   UNL     1       1.403   8.958  19.062  0.00  0.00    +0.000 N 
ATOM      9  C   UNL     1       1.962   7.745  19.356  0.00  0.00    +0.000 A 
ATOM     10  N   UNL     1       1.706   6.958  20.415  0.00  0.00    +0.000 NA
ATOM     11  H   UNL     1       2.945   4.277  21.470  0.00  0.00    +0.000 HD
ATOM     12  H   UNL     1       1.858   5.379  22.233  0.00  0.00    +0.000 HD
ENDROOT
BRANCH   4  13
ATOM     13  C   UNL     1       4.496   5.885  17.389  0.00  0.00    +0.000 A 
ATOM     14  C   UNL     1       4.416   4.869  16.450  0.00  0.00    +0.000 A 
ATOM     15  C   UNL     1       5.551   4.809  15.596  0.00  0.00    +0.000 A 
ATOM     16  C   UNL     1       6.476   5.780  15.906  0.00  0.00    +0.000 A 
ATOM     17  S   UNL     1       5.977   6.743  17.226  0.00  0.00    +0.000 S 
ENDBRANCH   4  13
BRANCH   8  18
ATOM     18  C1* UNL     1       0.400   9.659  19.826  0.00  0.00    +0.000 C 
ATOM     19  O4* UNL     1      -0.821   9.741  19.058  0.00  0.00    +0.000 OA
ATOM     20  C4* UNL     1      -1.415  11.045  19.286  0.00  0.00    +0.000 C 
ATOM     21  C3* UNL     1      -0.594  11.713  20.391  0.00  0.00    +0.000 C 
ATOM     22  C2* UNL     1       0.781  11.079  20.239  0.00  0.00    +0.000 C 
BRANCH  21  23
ATOM     23  O3* UNL     1      -1.084  11.371  21.704  0.00  0.00    +0.000 OA
ATOM     24  H3* UNL     1      -2.053  11.468  21.720  0.00  0.00    +0.000 HD
ENDBRANCH  21  23
BRANCH  22  25
ATOM     25  O2* UNL     1       1.518  11.107  21.459  0.00  0.00    +0.000 OA
ATOM     26  H2* UNL     1       1.876  12.016  21.545  0.00  0.00    +0.000 HD
ENDBRANCH  22  25
BRANCH  20  27
ATOM     27  C5* UNL     1      -1.417  11.842  17.979  0.00  0.00    +0.000 C 
BRANCH  27  28
ATOM     28  O5* UNL     1      -2.753  12.109  17.561  0.00  0.00    +0.000 OA
ATOM     29  H5* UNL     1      -3.148  11.245  17.337  0.00  0.00    +0.000 HD
ENDBRANCH  27  28
ENDBRANCH  20  27
ENDBRANCH   8  18
TORSDOF 6
ENDMDL
