MODEL 1
REMARK VINA RESULT:      -7.6      0.000      0.000
REMARK  Name = 
REMARK  8 active torsions:
REMARK  status: ('A' for Active; 'I' for Inactive)
REMARK    1  A    between atoms: C_1  and  O_2
REMARK    2  A    between atoms: O_2  and  C_3
REMARK    3  A    between atoms: C_3  and  C_4
REMARK    4  A    between atoms: C_4  and  C_5
REMARK    5  A    between atoms: C_5  and  N_6
REMARK    6  A    between atoms: C_7  and  C_9
REMARK    7  A    between atoms: C_13  and  C_15
REMARK    8  A    between atoms: C_18  and  N_19
REMARK                            x       y       z     vdW  Elec       q    Type
REMARK                         _______ _______ _______ _____ _____    ______ ____
ROOT
ATOM      1  C   UNL     1       6.720   4.994  17.297  0.00  0.00    +0.000 C 
ATOM      2  C   UNL     1       5.786   3.839  17.709  0.00  0.00    +0.000 C 
ATOM      3  C   UNL     1       4.350   4.063  17.226  0.00  0.00    +0.000 C 
ATOM      4  N   UNL     1       3.860   5.375  17.649  0.00  0.00    +0.000 N 
ATOM      5  C   UNL     1       2.784   5.435  18.550  0.00  0.00    +0.000 C 
ATOM      6  O   UNL     1       2.320   4.407  19.037  0.00  0.00    +0.000 OA
ATOM      7  C   UNL     1       4.702   6.499  17.242  0.00  0.00    +0.000 C 
ATOM      8  C   UNL     1       6.121   6.321  17.769  0.00  0.00    +0.000 C 
ENDROOT
BRANCH   5   9
ATOM      9  C   UNL     1       2.242   6.748  18.889  0.00  0.00    +0.000 A 
ATOM     10  C   UNL     1       2.158   7.901  18.128  0.00  0.00    +0.000 A 
ATOM     11  C   UNL     1       1.637   9.000  18.866  0.00  0.00    +0.000 A 
ATOM     12  C   UNL     1       1.193   8.610  20.107  0.00  0.00    +0.000 A 
ATOM     13  S   UNL     1       1.547   6.983  20.438  0.00  0.00    +0.000 S 
BRANCH  12  14
ATOM     14  N   UNL     1       0.507   9.385  21.057  0.00  0.00    +0.000 N 
ATOM     15  C   UNL     1       0.581   9.248  22.435  0.00  0.00    +0.000 A 
ATOM     16  C   UNL     1      -0.145  10.248  23.037  0.00  0.00    +0.000 A 
ATOM     17  C   UNL     1      -0.765  11.000  22.012  0.00  0.00    +0.000 A 
ATOM     18  C   UNL     1      -1.649  12.097  22.025  0.00  0.00    +0.000 A 
ATOM     19  C   UNL     1      -2.153  12.599  20.821  0.00  0.00    +0.000 A 
ATOM     20  C   UNL     1      -1.790  12.018  19.613  0.00  0.00    +0.000 A 
ATOM     21  C   UNL     1      -0.909  10.936  19.577  0.00  0.00    +0.000 A 
ATOM     22  C   UNL     1      -0.373  10.446  20.788  0.00  0.00    +0.000 A 
ENDBRANCH  12  14
ENDBRANCH   5   9
BRANCH   1  24
ATOM     23  N   UNL     1       6.358   3.954  15.099  0.00  0.00    +0.000 N 
ATOM     24  C   UNL     1       6.985   4.970  15.791  0.00  0.00    +0.000 C 
ATOM     25  O   UNL     1       7.677   5.815  15.230  0.00  0.00    +0.000 OA
ATOM     26  H   UNL     1       5.739   3.316  15.580  0.00  0.00    +0.000 HD
BRANCH  23  27
ATOM     27  C   UNL     1       6.467   3.856  13.654  0.00  0.00    +0.000 C 
BRANCH  27  28
ATOM     28  C   UNL     1       5.099   3.788  12.975  0.00  0.00    +0.000 C 
BRANCH  28  29
ATOM     29  C   UNL     1       5.167   3.019  11.658  0.00  0.00    +0.000 C 
BRANCH  29  31
ATOM     30  C   UNL     1       6.180   0.967  11.067  0.00  0.00    +0.000 C 
ATOM     31  O   UNL     1       6.372   2.260  11.622  0.00  0.00    +0.000 OA
ENDBRANCH  29  31
ENDBRANCH  28  29
ENDBRANCH  27  28
ENDBRANCH  23  27
ENDBRANCH   1  24
TORSDOF 7
ENDMDL
MODEL 2
REMARK VINA RESULT:      -7.6      1.397      1.753
REMARK  Name = 
REMARK  8 active torsions:
REMARK  status: ('A' for Active; 'I' for Inactive)
REMARK    1  A    between atoms: C_1  and  O_2
REMARK    2  A    between atoms: O_2  and  C_3
REMARK    3  A    between atoms: C_3  and  C_4
REMARK    4  A    between atoms: C_4  and  C_5
REMARK    5  A    between atoms: C_5  and  N_6
REMARK    6  A    between atoms: C_7  and  C_9
REMARK    7  A    between atoms: C_13  and  C_15
REMARK    8  A    between atoms: C_18  and  N_19
REMARK                            x       y       z     vdW  Elec       q    Type
REMARK                         _______ _______ _______ _____ _____    ______ ____
ROOT
ATOM      1  C   UNL     1       6.985   5.675  17.610  0.00  0.00    +0.000 C 
ATOM      2  C   UNL     1       6.313   4.806  18.692  0.00  0.00    +0.000 C 
ATOM      3  C   UNL     1       4.822   4.596  18.414  0.00  0.00    +0.000 C 
ATOM      4  N   UNL     1       4.147   5.878  18.208  0.00  0.00    +0.000 N 
ATOM      5  C   UNL     1       3.166   6.281  19.129  0.00  0.00    +0.000 C 
ATOM      6  O   UNL     1       2.939   5.609  20.132  0.00  0.00    +0.000 OA
ATOM      7  C   UNL     1       4.735   6.713  17.160  0.00  0.00    +0.000 C 
ATOM      8  C   UNL     1       6.206   6.983  17.456  0.00  0.00    +0.000 C 
ENDROOT
BRANCH   5   9
ATOM      9  C   UNL     1       2.433   7.514  18.859  0.00  0.00    +0.000 A 
ATOM     10  C   UNL     1       2.325   8.250  17.692  0.00  0.00    +0.000 A 
ATOM     11  C   UNL     1       1.580   9.449  17.874  0.00  0.00    +0.000 A 
ATOM     12  C   UNL     1       1.013   9.506  19.124  0.00  0.00    +0.000 A 
ATOM     13  S   UNL     1       1.503   8.217  20.116  0.00  0.00    +0.000 S 
BRANCH  12  14
ATOM     14  N   UNL     1       0.115  10.466  19.617  0.00  0.00    +0.000 N 
ATOM     15  C   UNL     1       0.333  11.322  20.687  0.00  0.00    +0.000 A 
ATOM     16  C   UNL     1      -0.726  12.189  20.808  0.00  0.00    +0.000 A 
ATOM     17  C   UNL     1      -1.686  11.826  19.835  0.00  0.00    +0.000 A 
ATOM     18  C   UNL     1      -2.969  12.316  19.520  0.00  0.00    +0.000 A 
ATOM     19  C   UNL     1      -3.725  11.698  18.519  0.00  0.00    +0.000 A 
ATOM     20  C   UNL     1      -3.218  10.600  17.836  0.00  0.00    +0.000 A 
ATOM     21  C   UNL     1      -1.946  10.104  18.126  0.00  0.00    +0.000 A 
ATOM     22  C   UNL     1      -1.167  10.744  19.115  0.00  0.00    +0.000 A 
ENDBRANCH  12  14
ENDBRANCH   5   9
BRANCH   1  24
ATOM     23  N   UNL     1       7.269   5.688  15.168  0.00  0.00    +0.000 N 
ATOM     24  C   UNL     1       7.109   4.906  16.293  0.00  0.00    +0.000 C 
ATOM     25  O   UNL     1       7.103   3.679  16.244  0.00  0.00    +0.000 OA
ATOM     26  H   UNL     1       7.340   6.692  15.251  0.00  0.00    +0.000 HD
BRANCH  23  27
ATOM     27  C   UNL     1       7.470   5.086  13.862  0.00  0.00    +0.000 C 
BRANCH  27  28
ATOM     28  C   UNL     1       6.183   4.482  13.299  0.00  0.00    +0.000 C 
BRANCH  28  29
ATOM     29  C   UNL     1       6.411   3.062  12.785  0.00  0.00    +0.000 C 
BRANCH  29  31
ATOM     30  C   UNL     1       5.633   1.505  11.186  0.00  0.00    +0.000 C 
ATOM     31  O   UNL     1       5.382   2.731  11.858  0.00  0.00    +0.000 OA
ENDBRANCH  29  31
ENDBRANCH  28  29
ENDBRANCH  27  28
ENDBRANCH  23  27
ENDBRANCH   1  24
TORSDOF 7
ENDMDL
MODEL 3
REMARK VINA RESULT:      -7.5      4.354     10.596
REMARK  Name = 
REMARK  8 active torsions:
REMARK  status: ('A' for Active; 'I' for Inactive)
REMARK    1  A    between atoms: C_1  and  O_2
REMARK    2  A    between atoms: O_2  and  C_3
REMARK    3  A    between atoms: C_3  and  C_4
REMARK    4  A    between atoms: C_4  and  C_5
REMARK    5  A    between atoms: C_5  and  N_6
REMARK    6  A    between atoms: C_7  and  C_9
REMARK    7  A    between atoms: C_13  and  C_15
REMARK    8  A    between atoms: C_18  and  N_19
REMARK                            x       y       z     vdW  Elec       q    Type
REMARK                         _______ _______ _______ _____ _____    ______ ____
ROOT
ATOM      1  C   UNL     1      -2.052  12.877  20.374  0.00  0.00    +0.000 C 
ATOM      2  C   UNL     1      -1.866  12.089  21.685  0.00  0.00    +0.000 C 
ATOM      3  C   UNL     1      -0.397  11.734  21.936  0.00  0.00    +0.000 C 
ATOM      4  N   UNL     1       0.179  11.058  20.774  0.00  0.00    +0.000 N 
ATOM      5  C   UNL     1       0.599   9.725  20.907  0.00  0.00    +0.000 C 
ATOM      6  O   UNL     1       0.409   9.113  21.956  0.00  0.00    +0.000 OA
ATOM      7  C   UNL     1       0.055  11.797  19.517  0.00  0.00    +0.000 C 
ATOM      8  C   UNL     1      -1.409  12.103  19.221  0.00  0.00    +0.000 C 
ENDROOT
BRANCH   5   9
ATOM      9  C   UNL     1       1.261   9.094  19.769  0.00  0.00    +0.000 A 
ATOM     10  C   UNL     1       1.447   9.555  18.478  0.00  0.00    +0.000 A 
ATOM     11  C   UNL     1       2.070   8.587  17.641  0.00  0.00    +0.000 A 
ATOM     12  C   UNL     1       2.482   7.489  18.358  0.00  0.00    +0.000 A 
ATOM     13  S   UNL     1       1.980   7.552  19.980  0.00  0.00    +0.000 S 
BRANCH  12  14
ATOM     14  N   UNL     1       3.239   6.399  17.901  0.00  0.00    +0.000 N 
ATOM     15  C   UNL     1       4.495   6.459  17.317  0.00  0.00    +0.000 A 
ATOM     16  C   UNL     1       4.962   5.186  17.095  0.00  0.00    +0.000 A 
ATOM     17  C   UNL     1       3.941   4.285  17.477  0.00  0.00    +0.000 A 
ATOM     18  C   UNL     1       3.831   2.881  17.434  0.00  0.00    +0.000 A 
ATOM     19  C   UNL     1       2.642   2.263  17.835  0.00  0.00    +0.000 A 
ATOM     20  C   UNL     1       1.568   3.027  18.271  0.00  0.00    +0.000 A 
ATOM     21  C   UNL     1       1.659   4.419  18.329  0.00  0.00    +0.000 A 
ATOM     22  C   UNL     1       2.867   5.045  17.955  0.00  0.00    +0.000 A 
ENDBRANCH  12  14
ENDBRANCH   5   9
BRANCH   1  24
ATOM     23  N   UNL     1      -1.086  14.882  19.330  0.00  0.00    +0.000 N 
ATOM     24  C   UNL     1      -1.500  14.298  20.509  0.00  0.00    +0.000 C 
ATOM     25  O   UNL     1      -1.460  14.890  21.584  0.00  0.00    +0.000 OA
ATOM     26  H   UNL     1      -1.197  14.394  18.452  0.00  0.00    +0.000 HD
BRANCH  23  27
ATOM     27  C   UNL     1      -0.606  16.253  19.303  0.00  0.00    +0.000 C 
BRANCH  27  28
ATOM     28  C   UNL     1       0.914  16.336  19.432  0.00  0.00    +0.000 C 
BRANCH  28  29
ATOM     29  C   UNL     1       1.558  16.827  18.138  0.00  0.00    +0.000 C 
BRANCH  29  31
ATOM     30  C   UNL     1       0.932  18.628  16.741  0.00  0.00    +0.000 C 
ATOM     31  O   UNL     1       1.377  18.236  18.031  0.00  0.00    +0.000 OA
ENDBRANCH  29  31
ENDBRANCH  28  29
ENDBRANCH  27  28
ENDBRANCH  23  27
ENDBRANCH   1  24
TORSDOF 7
ENDMDL
MODEL 4
REMARK VINA RESULT:      -7.4      4.109     10.396
REMARK  Name = 
REMARK  8 active torsions:
REMARK  status: ('A' for Active; 'I' for Inactive)
REMARK    1  A    between atoms: C_1  and  O_2
REMARK    2  A    between atoms: O_2  and  C_3
REMARK    3  A    between atoms: C_3  and  C_4
REMARK    4  A    between atoms: C_4  and  C_5
REMARK    5  A    between atoms: C_5  and  N_6
REMARK    6  A    between atoms: C_7  and  C_9
REMARK    7  A    between atoms: C_13  and  C_15
REMARK    8  A    between atoms: C_18  and  N_19
REMARK                            x       y       z     vdW  Elec       q    Type
REMARK                         _______ _______ _______ _____ _____    ______ ____
ROOT
ATOM      1  C   UNL     1      -1.688  12.586  19.998  0.00  0.00    +0.000 C 
ATOM      2  C   UNL     1      -1.519  11.857  21.346  0.00  0.00    +0.000 C 
ATOM      3  C   UNL     1      -0.057  11.487  21.618  0.00  0.00    +0.000 C 
ATOM      4  N   UNL     1       0.508  10.746  20.490  0.00  0.00    +0.000 N 
ATOM      5  C   UNL     1       0.903   9.413  20.688  0.00  0.00    +0.000 C 
ATOM      6  O   UNL     1       0.699   8.855  21.764  0.00  0.00    +0.000 OA
ATOM      7  C   UNL     1       0.400  11.427  19.199  0.00  0.00    +0.000 C 
ATOM      8  C   UNL     1      -1.057  11.746  18.885  0.00  0.00    +0.000 C 
ENDROOT
BRANCH   5   9
ATOM      9  C   UNL     1       1.555   8.716  19.583  0.00  0.00    +0.000 A 
ATOM     10  C   UNL     1       1.880   9.164  18.314  0.00  0.00    +0.000 A 
ATOM     11  C   UNL     1       2.433   8.135  17.501  0.00  0.00    +0.000 A 
ATOM     12  C   UNL     1       2.659   6.988  18.223  0.00  0.00    +0.000 A 
ATOM     13  S   UNL     1       2.064   7.095  19.810  0.00  0.00    +0.000 S 
BRANCH  12  14
ATOM     14  N   UNL     1       3.304   5.816  17.795  0.00  0.00    +0.000 N 
ATOM     15  C   UNL     1       2.742   4.551  17.718  0.00  0.00    +0.000 A 
ATOM     16  C   UNL     1       3.644   3.679  17.157  0.00  0.00    +0.000 A 
ATOM     17  C   UNL     1       4.847   4.391  16.942  0.00  0.00    +0.000 A 
ATOM     18  C   UNL     1       6.111   4.016  16.444  0.00  0.00    +0.000 A 
ATOM     19  C   UNL     1       7.150   4.952  16.406  0.00  0.00    +0.000 A 
ATOM     20  C   UNL     1       6.942   6.248  16.859  0.00  0.00    +0.000 A 
ATOM     21  C   UNL     1       5.695   6.643  17.347  0.00  0.00    +0.000 A 
ATOM     22  C   UNL     1       4.635   5.710  17.359  0.00  0.00    +0.000 A 
ENDBRANCH  12  14
ENDBRANCH   5   9
BRANCH   1  24
ATOM     23  N   UNL     1      -0.720  14.537  18.857  0.00  0.00    +0.000 N 
ATOM     24  C   UNL     1      -1.109  14.000  20.067  0.00  0.00    +0.000 C 
ATOM     25  O   UNL     1      -1.028  14.628  21.119  0.00  0.00    +0.000 OA
ATOM     26  H   UNL     1      -0.864  14.021  18.000  0.00  0.00    +0.000 HD
BRANCH  23  27
ATOM     27  C   UNL     1      -0.220  15.897  18.769  0.00  0.00    +0.000 C 
BRANCH  27  28
ATOM     28  C   UNL     1       1.302  15.946  18.632  0.00  0.00    +0.000 C 
BRANCH  28  29
ATOM     29  C   UNL     1       1.901  17.079  19.462  0.00  0.00    +0.000 C 
BRANCH  29  31
ATOM     30  C   UNL     1       3.649  16.425  18.012  0.00  0.00    +0.000 C 
ATOM     31  O   UNL     1       3.218  17.355  18.994  0.00  0.00    +0.000 OA
ENDBRANCH  29  31
ENDBRANCH  28  29
ENDBRANCH  27  28
ENDBRANCH  23  27
ENDBRANCH   1  24
TORSDOF 7
ENDMDL
MODEL 5
REMARK VINA RESULT:      -7.4      4.290     11.122
REMARK  Name = 
REMARK  8 active torsions:
REMARK  status: ('A' for Active; 'I' for Inactive)
REMARK    1  A    between atoms: C_1  and  O_2
REMARK    2  A    between atoms: O_2  and  C_3
REMARK    3  A    between atoms: C_3  and  C_4
REMARK    4  A    between atoms: C_4  and  C_5
REMARK    5  A    between atoms: C_5  and  N_6
REMARK    6  A    between atoms: C_7  and  C_9
REMARK    7  A    between atoms: C_13  and  C_15
REMARK    8  A    between atoms: C_18  and  N_19
REMARK                            x       y       z     vdW  Elec       q    Type
REMARK                         _______ _______ _______ _____ _____    ______ ____
ROOT
ATOM      1  C   UNL     1      -1.503  12.961  22.690  0.00  0.00    +0.000 C 
ATOM      2  C   UNL     1      -1.347  13.634  21.312  0.00  0.00    +0.000 C 
ATOM      3  C   UNL     1      -1.647  12.666  20.164  0.00  0.00    +0.000 C 
ATOM      4  N   UNL     1      -0.855  11.443  20.297  0.00  0.00    +0.000 N 
ATOM      5  C   UNL     1       0.105  11.149  19.316  0.00  0.00    +0.000 C 
ATOM      6  O   UNL     1       0.334  11.946  18.408  0.00  0.00    +0.000 OA
ATOM      7  C   UNL     1      -1.009  10.755  21.580  0.00  0.00    +0.000 C 
ATOM      8  C   UNL     1      -0.653  11.689  22.731  0.00  0.00    +0.000 C 
ENDROOT
BRANCH   5   9
ATOM      9  C   UNL     1       0.820   9.879  19.408  0.00  0.00    +0.000 A 
ATOM     10  C   UNL     1       0.932   8.995  20.467  0.00  0.00    +0.000 A 
ATOM     11  C   UNL     1       1.800   7.906  20.173  0.00  0.00    +0.000 A 
ATOM     12  C   UNL     1       2.190   7.912  18.855  0.00  0.00    +0.000 A 
ATOM     13  S   UNL     1       1.651   9.294  18.028  0.00  0.00    +0.000 S 
BRANCH  12  14
ATOM     14  N   UNL     1       2.935   6.935  18.175  0.00  0.00    +0.000 N 
ATOM     15  C   UNL     1       4.105   7.145  17.460  0.00  0.00    +0.000 A 
ATOM     16  C   UNL     1       4.601   5.940  17.024  0.00  0.00    +0.000 A 
ATOM     17  C   UNL     1       3.680   4.937  17.405  0.00  0.00    +0.000 A 
ATOM     18  C   UNL     1       3.633   3.544  17.196  0.00  0.00    +0.000 A 
ATOM     19  C   UNL     1       2.535   2.808  17.652  0.00  0.00    +0.000 A 
ATOM     20  C   UNL     1       1.488   3.444  18.306  0.00  0.00    +0.000 A 
ATOM     21  C   UNL     1       1.518   4.821  18.530  0.00  0.00    +0.000 A 
ATOM     22  C   UNL     1       2.639   5.564  18.099  0.00  0.00    +0.000 A 
ENDBRANCH  12  14
ENDBRANCH   5   9
BRANCH   1  24
ATOM     23  N   UNL     1      -3.850  13.685  22.605  0.00  0.00    +0.000 N 
ATOM     24  C   UNL     1      -2.977  12.694  23.002  0.00  0.00    +0.000 C 
ATOM     25  O   UNL     1      -3.360  11.657  23.536  0.00  0.00    +0.000 OA
ATOM     26  H   UNL     1      -3.511  14.495  22.106  0.00  0.00    +0.000 HD
BRANCH  23  27
ATOM     27  C   UNL     1      -5.285  13.530  22.776  0.00  0.00    +0.000 C 
BRANCH  27  28
ATOM     28  C   UNL     1      -6.067  13.998  21.550  0.00  0.00    +0.000 C 
BRANCH  28  29
ATOM     29  C   UNL     1      -5.367  13.598  20.254  0.00  0.00    +0.000 C 
BRANCH  29  31
ATOM     30  C   UNL     1      -6.403  11.505  19.890  0.00  0.00    +0.000 C 
ATOM     31  O   UNL     1      -5.203  12.183  20.230  0.00  0.00    +0.000 OA
ENDBRANCH  29  31
ENDBRANCH  28  29
ENDBRANCH  27  28
ENDBRANCH  23  27
ENDBRANCH   1  24
TORSDOF 7
ENDMDL
MODEL 6
REMARK VINA RESULT:      -7.4      1.308      2.001
REMARK  Name = 
REMARK  8 active torsions:
REMARK  status: ('A' for Active; 'I' for Inactive)
REMARK    1  A    between atoms: C_1  and  O_2
REMARK    2  A    between atoms: O_2  and  C_3
REMARK    3  A    between atoms: C_3  and  C_4
REMARK    4  A    between atoms: C_4  and  C_5
REMARK    5  A    between atoms: C_5  and  N_6
REMARK    6  A    between atoms: C_7  and  C_9
REMARK    7  A    between atoms: C_13  and  C_15
REMARK    8  A    between atoms: C_18  and  N_19
REMARK                            x       y       z     vdW  Elec       q    Type
REMARK                         _______ _______ _______ _____ _____    ______ ____
ROOT
ATOM      1  C   UNL     1       6.745   5.424  17.604  0.00  0.00    +0.000 C 
ATOM      2  C   UNL     1       6.006   4.616  18.689  0.00  0.00    +0.000 C 
ATOM      3  C   UNL     1       4.500   4.540  18.420  0.00  0.00    +0.000 C 
ATOM      4  N   UNL     1       3.940   5.877  18.220  0.00  0.00    +0.000 N 
ATOM      5  C   UNL     1       3.005   6.363  19.147  0.00  0.00    +0.000 C 
ATOM      6  O   UNL     1       2.724   5.712  20.151  0.00  0.00    +0.000 OA
ATOM      7  C   UNL     1       4.593   6.659  17.170  0.00  0.00    +0.000 C 
ATOM      8  C   UNL     1       6.084   6.797  17.457  0.00  0.00    +0.000 C 
ENDROOT
BRANCH   5   9
ATOM      9  C   UNL     1       2.382   7.657  18.883  0.00  0.00    +0.000 A 
ATOM     10  C   UNL     1       2.452   8.469  17.765  0.00  0.00    +0.000 A 
ATOM     11  C   UNL     1       1.764   9.702  17.946  0.00  0.00    +0.000 A 
ATOM     12  C   UNL     1       1.061   9.719  19.127  0.00  0.00    +0.000 A 
ATOM     13  S   UNL     1       1.357   8.342  20.075  0.00  0.00    +0.000 S 
BRANCH  12  14
ATOM     14  N   UNL     1       0.171  10.705  19.582  0.00  0.00    +0.000 N 
ATOM     15  C   UNL     1      -0.326  11.768  18.842  0.00  0.00    +0.000 A 
ATOM     16  C   UNL     1      -1.247  12.460  19.590  0.00  0.00    +0.000 A 
ATOM     17  C   UNL     1      -1.283  11.869  20.874  0.00  0.00    +0.000 A 
ATOM     18  C   UNL     1      -1.992  12.173  22.054  0.00  0.00    +0.000 A 
ATOM     19  C   UNL     1      -1.767  11.425  23.214  0.00  0.00    +0.000 A 
ATOM     20  C   UNL     1      -0.845  10.387  23.210  0.00  0.00    +0.000 A 
ATOM     21  C   UNL     1      -0.139  10.063  22.051  0.00  0.00    +0.000 A 
ATOM     22  C   UNL     1      -0.385  10.795  20.869  0.00  0.00    +0.000 A 
ENDBRANCH  12  14
ENDBRANCH   5   9
BRANCH   1  24
ATOM     23  N   UNL     1       7.364   5.325  15.227  0.00  0.00    +0.000 N 
ATOM     24  C   UNL     1       6.793   4.650  16.285  0.00  0.00    +0.000 C 
ATOM     25  O   UNL     1       6.385   3.496  16.184  0.00  0.00    +0.000 OA
ATOM     26  H   UNL     1       7.754   6.247  15.361  0.00  0.00    +0.000 HD
BRANCH  23  27
ATOM     27  C   UNL     1       7.538   4.682  13.936  0.00  0.00    +0.000 C 
BRANCH  27  28
ATOM     28  C   UNL     1       6.224   4.574  13.163  0.00  0.00    +0.000 C 
BRANCH  28  29
ATOM     29  C   UNL     1       6.229   3.373  12.220  0.00  0.00    +0.000 C 
BRANCH  29  31
ATOM     30  C   UNL     1       4.185   3.200  11.045  0.00  0.00    +0.000 C 
ATOM     31  O   UNL     1       4.926   2.799  12.188  0.00  0.00    +0.000 OA
ENDBRANCH  29  31
ENDBRANCH  28  29
ENDBRANCH  27  28
ENDBRANCH  23  27
ENDBRANCH   1  24
TORSDOF 7
ENDMDL
MODEL 7
REMARK VINA RESULT:      -7.3      4.473     11.317
REMARK  Name = 
REMARK  8 active torsions:
REMARK  status: ('A' for Active; 'I' for Inactive)
REMARK    1  A    between atoms: C_1  and  O_2
REMARK    2  A    between atoms: O_2  and  C_3
REMARK    3  A    between atoms: C_3  and  C_4
REMARK    4  A    between atoms: C_4  and  C_5
REMARK    5  A    between atoms: C_5  and  N_6
REMARK    6  A    between atoms: C_7  and  C_9
REMARK    7  A    between atoms: C_13  and  C_15
REMARK    8  A    between atoms: C_18  and  N_19
REMARK                            x       y       z     vdW  Elec       q    Type
REMARK                         _______ _______ _______ _____ _____    ______ ____
ROOT
ATOM      1  C   UNL     1       1.477  14.614  19.992  0.00  0.00    +0.000 C 
ATOM      2  C   UNL     1       0.170  14.353  19.218  0.00  0.00    +0.000 C 
ATOM      3  C   UNL     1      -0.593  13.147  19.774  0.00  0.00    +0.000 C 
ATOM      4  N   UNL     1       0.275  11.971  19.846  0.00  0.00    +0.000 N 
ATOM      5  C   UNL     1      -0.025  10.860  19.043  0.00  0.00    +0.000 C 
ATOM      6  O   UNL     1      -0.949  10.905  18.234  0.00  0.00    +0.000 OA
ATOM      7  C   UNL     1       1.508  12.173  20.607  0.00  0.00    +0.000 C 
ATOM      8  C   UNL     1       2.311  13.331  20.026  0.00  0.00    +0.000 C 
ENDROOT
BRANCH   5   9
ATOM      9  C   UNL     1       0.792   9.659  19.196  0.00  0.00    +0.000 A 
ATOM     10  C   UNL     1       1.000   8.858  20.305  0.00  0.00    +0.000 A 
ATOM     11  C   UNL     1       1.946   7.824  20.057  0.00  0.00    +0.000 A 
ATOM     12  C   UNL     1       2.302   7.773  18.730  0.00  0.00    +0.000 A 
ATOM     13  S   UNL     1       1.634   9.050  17.833  0.00  0.00    +0.000 S 
BRANCH  12  14
ATOM     14  N   UNL     1       3.107   6.815  18.093  0.00  0.00    +0.000 N 
ATOM     15  C   UNL     1       4.312   7.052  17.450  0.00  0.00    +0.000 A 
ATOM     16  C   UNL     1       4.859   5.860  17.040  0.00  0.00    +0.000 A 
ATOM     17  C   UNL     1       3.939   4.837  17.362  0.00  0.00    +0.000 A 
ATOM     18  C   UNL     1       3.934   3.444  17.147  0.00  0.00    +0.000 A 
ATOM     19  C   UNL     1       2.826   2.683  17.534  0.00  0.00    +0.000 A 
ATOM     20  C   UNL     1       1.729   3.294  18.126  0.00  0.00    +0.000 A 
ATOM     21  C   UNL     1       1.717   4.670  18.357  0.00  0.00    +0.000 A 
ATOM     22  C   UNL     1       2.845   5.438  17.996  0.00  0.00    +0.000 A 
ENDBRANCH  12  14
ENDBRANCH   5   9
BRANCH   1  24
ATOM     23  N   UNL     1       0.144  16.068  21.459  0.00  0.00    +0.000 N 
ATOM     24  C   UNL     1       1.182  15.162  21.390  0.00  0.00    +0.000 C 
ATOM     25  O   UNL     1       1.801  14.796  22.385  0.00  0.00    +0.000 OA
ATOM     26  H   UNL     1      -0.391  16.295  20.633  0.00  0.00    +0.000 HD
BRANCH  23  27
ATOM     27  C   UNL     1      -0.288  16.613  22.734  0.00  0.00    +0.000 C 
BRANCH  27  28
ATOM     28  C   UNL     1      -1.590  15.978  23.223  0.00  0.00    +0.000 C 
BRANCH  28  29
ATOM     29  C   UNL     1      -1.353  15.083  24.437  0.00  0.00    +0.000 C 
BRANCH  29  31
ATOM     30  C   UNL     1      -2.744  16.744  25.379  0.00  0.00    +0.000 C 
ATOM     31  O   UNL     1      -2.314  15.392  25.441  0.00  0.00    +0.000 OA
ENDBRANCH  29  31
ENDBRANCH  28  29
ENDBRANCH  27  28
ENDBRANCH  23  27
ENDBRANCH   1  24
TORSDOF 7
ENDMDL
MODEL 8
REMARK VINA RESULT:      -7.3      2.956      4.744
REMARK  Name = 
REMARK  8 active torsions:
REMARK  status: ('A' for Active; 'I' for Inactive)
REMARK    1  A    between atoms: C_1  and  O_2
REMARK    2  A    between atoms: O_2  and  C_3
REMARK    3  A    between atoms: C_3  and  C_4
REMARK    4  A    between atoms: C_4  and  C_5
REMARK    5  A    between atoms: C_5  and  N_6
REMARK    6  A    between atoms: C_7  and  C_9
REMARK    7  A    between atoms: C_13  and  C_15
REMARK    8  A    between atoms: C_18  and  N_19
REMARK                            x       y       z     vdW  Elec       q    Type
REMARK                         _______ _______ _______ _____ _____    ______ ____
ROOT
ATOM      1  C   UNL     1       2.448   3.244  16.971  0.00  0.00    +0.000 C 
ATOM      2  C   UNL     1       3.761   3.968  16.612  0.00  0.00    +0.000 C 
ATOM      3  C   UNL     1       4.240   4.880  17.745  0.00  0.00    +0.000 C 
ATOM      4  N   UNL     1       3.175   5.795  18.159  0.00  0.00    +0.000 N 
ATOM      5  C   UNL     1       3.355   7.173  17.963  0.00  0.00    +0.000 C 
ATOM      6  O   UNL     1       4.351   7.596  17.380  0.00  0.00    +0.000 OA
ATOM      7  C   UNL     1       1.926   5.139  18.545  0.00  0.00    +0.000 C 
ATOM      8  C   UNL     1       1.403   4.275  17.402  0.00  0.00    +0.000 C 
ENDROOT
BRANCH   5   9
ATOM      9  C   UNL     1       2.330   8.081  18.469  0.00  0.00    +0.000 A 
ATOM     10  C   UNL     1       1.487   8.942  17.788  0.00  0.00    +0.000 A 
ATOM     11  C   UNL     1       0.686   9.725  18.667  0.00  0.00    +0.000 A 
ATOM     12  C   UNL     1       0.828   9.321  19.973  0.00  0.00    +0.000 A 
ATOM     13  S   UNL     1       2.027   8.132  20.155  0.00  0.00    +0.000 S 
BRANCH  12  14
ATOM     14  N   UNL     1       0.110   9.770  21.094  0.00  0.00    +0.000 N 
ATOM     15  C   UNL     1      -0.087   9.072  22.276  0.00  0.00    +0.000 A 
ATOM     16  C   UNL     1      -0.748   9.870  23.178  0.00  0.00    +0.000 A 
ATOM     17  C   UNL     1      -1.052  11.087  22.526  0.00  0.00    +0.000 A 
ATOM     18  C   UNL     1      -1.747  12.246  22.927  0.00  0.00    +0.000 A 
ATOM     19  C   UNL     1      -1.944  13.290  22.018  0.00  0.00    +0.000 A 
ATOM     20  C   UNL     1      -1.462  13.188  20.719  0.00  0.00    +0.000 A 
ATOM     21  C   UNL     1      -0.764  12.053  20.304  0.00  0.00    +0.000 A 
ATOM     22  C   UNL     1      -0.536  11.010  21.227  0.00  0.00    +0.000 A 
ENDBRANCH  12  14
ENDBRANCH   5   9
BRANCH   1  24
ATOM     23  N   UNL     1       4.015   1.923  18.328  0.00  0.00    +0.000 N 
ATOM     24  C   UNL     1       2.691   2.171  18.034  0.00  0.00    +0.000 C 
ATOM     25  O   UNL     1       1.772   1.596  18.611  0.00  0.00    +0.000 OA
ATOM     26  H   UNL     1       4.746   2.463  17.885  0.00  0.00    +0.000 HD
BRANCH  23  27
ATOM     27  C   UNL     1       4.387   0.979  19.368  0.00  0.00    +0.000 C 
BRANCH  27  28
ATOM     28  C   UNL     1       4.716   1.675  20.689  0.00  0.00    +0.000 C 
BRANCH  28  29
ATOM     29  C   UNL     1       3.754   2.828  20.967  0.00  0.00    +0.000 C 
BRANCH  29  31
ATOM     30  C   UNL     1       1.498   2.854  21.669  0.00  0.00    +0.000 C 
ATOM     31  O   UNL     1       2.819   2.426  21.964  0.00  0.00    +0.000 OA
ENDBRANCH  29  31
ENDBRANCH  28  29
ENDBRANCH  27  28
ENDBRANCH  23  27
ENDBRANCH   1  24
TORSDOF 7
ENDMDL
MODEL 9
REMARK VINA RESULT:      -7.3      2.577      4.556
REMARK  Name = 
REMARK  8 active torsions:
REMARK  status: ('A' for Active; 'I' for Inactive)
REMARK    1  A    between atoms: C_1  and  O_2
REMARK    2  A    between atoms: O_2  and  C_3
REMARK    3  A    between atoms: C_3  and  C_4
REMARK    4  A    between atoms: C_4  and  C_5
REMARK    5  A    between atoms: C_5  and  N_6
REMARK    6  A    between atoms: C_7  and  C_9
REMARK    7  A    between atoms: C_13  and  C_15
REMARK    8  A    between atoms: C_18  and  N_19
REMARK                            x       y       z     vdW  Elec       q    Type
REMARK                         _______ _______ _______ _____ _____    ______ ____
ROOT
ATOM      1  C   UNL     1       2.409   4.872  19.121  0.00  0.00    +0.000 C 
ATOM      2  C   UNL     1       2.316   5.708  17.829  0.00  0.00    +0.000 C 
ATOM      3  C   UNL     1       2.848   7.130  18.028  0.00  0.00    +0.000 C 
ATOM      4  N   UNL     1       2.200   7.771  19.174  0.00  0.00    +0.000 N 
ATOM      5  C   UNL     1       1.390   8.894  18.950  0.00  0.00    +0.000 C 
ATOM      6  O   UNL     1       1.161   9.282  17.806  0.00  0.00    +0.000 OA
ATOM      7  C   UNL     1       2.303   7.022  20.427  0.00  0.00    +0.000 C 
ATOM      8  C   UNL     1       1.720   5.623  20.262  0.00  0.00    +0.000 C 
ENDROOT
BRANCH   5   9
ATOM      9  C   UNL     1       0.829   9.581  20.110  0.00  0.00    +0.000 A 
ATOM     10  C   UNL     1       0.514   9.096  21.367  0.00  0.00    +0.000 A 
ATOM     11  C   UNL     1      -0.101  10.082  22.190  0.00  0.00    +0.000 A 
ATOM     12  C   UNL     1      -0.087  11.319  21.592  0.00  0.00    +0.000 A 
ATOM     13  S   UNL     1       0.508  11.262  20.002  0.00  0.00    +0.000 S 
BRANCH  12  14
ATOM     14  N   UNL     1      -0.486  12.546  22.147  0.00  0.00    +0.000 N 
ATOM     15  C   UNL     1       0.204  13.746  22.067  0.00  0.00    +0.000 A 
ATOM     16  C   UNL     1      -0.543  14.747  22.638  0.00  0.00    +0.000 A 
ATOM     17  C   UNL     1      -1.712  14.155  23.169  0.00  0.00    +0.000 A 
ATOM     18  C   UNL     1      -2.806  14.668  23.895  0.00  0.00    +0.000 A 
ATOM     19  C   UNL     1      -3.808  13.803  24.349  0.00  0.00    +0.000 A 
ATOM     20  C   UNL     1      -3.727  12.441  24.091  0.00  0.00    +0.000 A 
ATOM     21  C   UNL     1      -2.657  11.914  23.366  0.00  0.00    +0.000 A 
ATOM     22  C   UNL     1      -1.660  12.787  22.880  0.00  0.00    +0.000 A 
ENDBRANCH  12  14
ENDBRANCH   5   9
BRANCH   1  24
ATOM     23  N   UNL     1       4.800   5.425  18.978  0.00  0.00    +0.000 N 
ATOM     24  C   UNL     1       3.864   4.523  19.440  0.00  0.00    +0.000 C 
ATOM     25  O   UNL     1       4.176   3.530  20.092  0.00  0.00    +0.000 OA
ATOM     26  H   UNL     1       4.506   6.268  18.506  0.00  0.00    +0.000 HD
BRANCH  23  27
ATOM     27  C   UNL     1       6.212   5.254  19.273  0.00  0.00    +0.000 C 
BRANCH  27  28
ATOM     28  C   UNL     1       7.039   4.997  18.012  0.00  0.00    +0.000 C 
BRANCH  28  29
ATOM     29  C   UNL     1       7.207   6.270  17.187  0.00  0.00    +0.000 C 
BRANCH  29  31
ATOM     30  C   UNL     1       6.951   4.662  15.474  0.00  0.00    +0.000 C 
ATOM     31  O   UNL     1       7.507   5.916  15.840  0.00  0.00    +0.000 OA
ENDBRANCH  29  31
ENDBRANCH  28  29
ENDBRANCH  27  28
ENDBRANCH  23  27
ENDBRANCH   1  24
TORSDOF 7
ENDMDL
