MODEL 1
REMARK VINA RESULT:      -7.6      0.000      0.000
REMARK  Name = 
REMARK  6 active torsions:
REMARK  status: ('A' for Active; 'I' for Inactive)
REMARK    1  A    between atoms: C_2  and  C_3
REMARK    2  A    between atoms: C_6  and  O_7
REMARK    3  A    between atoms: O_7  and  C_8
REMARK    4  A    between atoms: C_8  and  C_9
REMARK    5  A    between atoms: C_9  and  N_10
REMARK    6  A    between atoms: C_20  and  C_21
REMARK                            x       y       z     vdW  Elec       q    Type
REMARK                         _______ _______ _______ _____ _____    ______ ____
ROOT
ATOM      1  O   UNL     1       1.366   7.684  21.443  0.00  0.00    +0.000 OA
ATOM      2  C   UNL     1       1.508   8.142  20.311  0.00  0.00    +0.000 C 
ATOM      3  N   UNL     1       0.919   9.331  19.911  0.00  0.00    +0.000 N 
ATOM      4  C   UNL     1       0.093  10.074  20.850  0.00  0.00    +0.000 C 
ATOM      5  C   UNL     1      -0.802  10.956  19.990  0.00  0.00    +0.000 C 
ATOM      6  C   UNL     1      -0.036  11.142  18.677  0.00  0.00    +0.000 C 
ATOM      7  C   UNL     1       0.753   9.835  18.550  0.00  0.00    +0.000 C 
ENDROOT
BRANCH   6   8
ATOM      8  C   UNL     1       0.841  12.383  18.631  0.00  0.00    +0.000 A 
ATOM      9  C   UNL     1       2.215  12.336  18.347  0.00  0.00    +0.000 A 
ATOM     10  C   UNL     1       2.989  13.501  18.327  0.00  0.00    +0.000 A 
ATOM     11  C   UNL     1       2.391  14.731  18.576  0.00  0.00    +0.000 A 
ATOM     12 BR   UNL     1       3.437  16.304  18.569  0.00  0.00    +0.000 Br
ATOM     13  C   UNL     1       1.025  14.808  18.831  0.00  0.00    +0.000 A 
ATOM     14  C   UNL     1       0.256  13.639  18.859  0.00  0.00    +0.000 A 
ENDBRANCH   6   8
BRANCH   2  15
ATOM     15  C   UNL     1       2.301   7.348  19.336  0.00  0.00    +0.000 A 
ATOM     16  C   UNL     1       2.403   5.970  19.546  0.00  0.00    +0.000 A 
ATOM     17  C   UNL     1       3.121   5.173  18.652  0.00  0.00    +0.000 A 
ATOM     18  C   UNL     1       3.732   5.740  17.529  0.00  0.00    +0.000 A 
ATOM     19  C   UNL     1       3.659   7.120  17.340  0.00  0.00    +0.000 A 
ATOM     20  C   UNL     1       2.984   7.925  18.263  0.00  0.00    +0.000 A 
BRANCH  18  21
ATOM     21  O   UNL     1       4.432   5.050  16.572  0.00  0.00    +0.000 OA
BRANCH  21  22
ATOM     22  C   UNL     1       5.213   5.867  15.700  0.00  0.00    +0.000 C 
BRANCH  22  23
ATOM     23  C   UNL     1       6.664   5.412  15.699  0.00  0.00    +0.000 C 
BRANCH  23  24
ATOM     24  N   UNL     1       7.239   5.569  17.019  0.00  0.00    +0.000 N 
ATOM     25  C   UNL     1       7.390   6.744  17.701  0.00  0.00    +0.000 A 
ATOM     26  C   UNL     1       7.911   6.378  18.919  0.00  0.00    +0.000 A 
ATOM     27  N   UNL     1       8.056   5.017  18.997  0.00  0.00    +0.000 NA
ATOM     28  C   UNL     1       7.641   4.556  17.840  0.00  0.00    +0.000 A 
ENDBRANCH  23  24
ENDBRANCH  22  23
ENDBRANCH  21  22
ENDBRANCH  18  21
ENDBRANCH   2  15
TORSDOF 6
ENDMDL
MODEL 2
REMARK VINA RESULT:      -7.4      3.715      8.864
REMARK  Name = 
REMARK  6 active torsions:
REMARK  status: ('A' for Active; 'I' for Inactive)
REMARK    1  A    between atoms: C_2  and  C_3
REMARK    2  A    between atoms: C_6  and  O_7
REMARK    3  A    between atoms: O_7  and  C_8
REMARK    4  A    between atoms: C_8  and  C_9
REMARK    5  A    between atoms: C_9  and  N_10
REMARK    6  A    between atoms: C_20  and  C_21
REMARK                            x       y       z     vdW  Elec       q    Type
REMARK                         _______ _______ _______ _____ _____    ______ ____
ROOT
ATOM      1  O   UNL     1       1.158   4.712  20.404  0.00  0.00    +0.000 OA
ATOM      2  C   UNL     1       2.040   5.442  19.958  0.00  0.00    +0.000 C 
ATOM      3  N   UNL     1       3.276   4.957  19.562  0.00  0.00    +0.000 N 
ATOM      4  C   UNL     1       3.560   3.535  19.678  0.00  0.00    +0.000 C 
ATOM      5  C   UNL     1       5.079   3.428  19.704  0.00  0.00    +0.000 C 
ATOM      6  C   UNL     1       5.580   4.684  18.986  0.00  0.00    +0.000 C 
ATOM      7  C   UNL     1       4.496   5.719  19.304  0.00  0.00    +0.000 C 
ENDROOT
BRANCH   6   8
ATOM      8  C   UNL     1       5.822   4.503  17.496  0.00  0.00    +0.000 A 
ATOM      9  C   UNL     1       7.079   4.689  16.898  0.00  0.00    +0.000 A 
ATOM     10  C   UNL     1       7.255   4.524  15.521  0.00  0.00    +0.000 A 
ATOM     11  C   UNL     1       6.176   4.154  14.726  0.00  0.00    +0.000 A 
ATOM     12 BR   UNL     1       6.406   3.949  12.862  0.00  0.00    +0.000 Br
ATOM     13  C   UNL     1       4.926   3.934  15.298  0.00  0.00    +0.000 A 
ATOM     14  C   UNL     1       4.752   4.109  16.676  0.00  0.00    +0.000 A 
ENDBRANCH   6   8
BRANCH   2  15
ATOM     15  C   UNL     1       1.768   6.903  19.901  0.00  0.00    +0.000 A 
ATOM     16  C   UNL     1       1.976   7.557  18.683  0.00  0.00    +0.000 A 
ATOM     17  C   UNL     1       1.720   8.925  18.567  0.00  0.00    +0.000 A 
ATOM     18  C   UNL     1       1.240   9.652  19.661  0.00  0.00    +0.000 A 
ATOM     19  C   UNL     1       1.067   9.005  20.884  0.00  0.00    +0.000 A 
ATOM     20  C   UNL     1       1.371   7.647  21.014  0.00  0.00    +0.000 A 
BRANCH  18  21
ATOM     21  O   UNL     1       0.925  10.988  19.651  0.00  0.00    +0.000 OA
BRANCH  21  22
ATOM     22  C   UNL     1      -0.009  11.373  18.644  0.00  0.00    +0.000 C 
BRANCH  22  23
ATOM     23  C   UNL     1      -1.418  10.953  19.032  0.00  0.00    +0.000 C 
BRANCH  23  24
ATOM     24  N   UNL     1      -2.240  10.809  17.849  0.00  0.00    +0.000 N 
ATOM     25  C   UNL     1      -2.063   9.898  16.846  0.00  0.00    +0.000 A 
ATOM     26  C   UNL     1      -3.121  10.104  15.993  0.00  0.00    +0.000 A 
ATOM     27  N   UNL     1      -3.940  11.096  16.465  0.00  0.00    +0.000 NA
ATOM     28  C   UNL     1      -3.388  11.500  17.585  0.00  0.00    +0.000 A 
ENDBRANCH  23  24
ENDBRANCH  22  23
ENDBRANCH  21  22
ENDBRANCH  18  21
ENDBRANCH   2  15
TORSDOF 6
ENDMDL
MODEL 3
REMARK VINA RESULT:      -7.3      3.806      8.988
REMARK  Name = 
REMARK  6 active torsions:
REMARK  status: ('A' for Active; 'I' for Inactive)
REMARK    1  A    between atoms: C_2  and  C_3
REMARK    2  A    between atoms: C_6  and  O_7
REMARK    3  A    between atoms: O_7  and  C_8
REMARK    4  A    between atoms: C_8  and  C_9
REMARK    5  A    between atoms: C_9  and  N_10
REMARK    6  A    between atoms: C_20  and  C_21
REMARK                            x       y       z     vdW  Elec       q    Type
REMARK                         _______ _______ _______ _____ _____    ______ ____
ROOT
ATOM      1  O   UNL     1       1.751   5.205  20.347  0.00  0.00    +0.000 OA
ATOM      2  C   UNL     1       2.459   5.928  19.649  0.00  0.00    +0.000 C 
ATOM      3  N   UNL     1       3.685   5.512  19.154  0.00  0.00    +0.000 N 
ATOM      4  C   UNL     1       4.170   4.177  19.467  0.00  0.00    +0.000 C 
ATOM      5  C   UNL     1       5.679   4.240  19.273  0.00  0.00    +0.000 C 
ATOM      6  C   UNL     1       5.906   5.383  18.279  0.00  0.00    +0.000 C 
ATOM      7  C   UNL     1       4.745   6.337  18.580  0.00  0.00    +0.000 C 
ENDROOT
BRANCH   6   8
ATOM      8  C   UNL     1       5.967   4.948  16.824  0.00  0.00    +0.000 A 
ATOM      9  C   UNL     1       4.903   4.302  16.175  0.00  0.00    +0.000 A 
ATOM     10  C   UNL     1       5.006   3.907  14.837  0.00  0.00    +0.000 A 
ATOM     11  C   UNL     1       6.172   4.169  14.127  0.00  0.00    +0.000 A 
ATOM     12 BR   UNL     1       6.322   3.620  12.326  0.00  0.00    +0.000 Br
ATOM     13  C   UNL     1       7.230   4.835  14.739  0.00  0.00    +0.000 A 
ATOM     14  C   UNL     1       7.127   5.220  16.080  0.00  0.00    +0.000 A 
ENDBRANCH   6   8
BRANCH   2  15
ATOM     15  C   UNL     1       1.988   7.313  19.384  0.00  0.00    +0.000 A 
ATOM     16  C   UNL     1       2.067   7.788  18.071  0.00  0.00    +0.000 A 
ATOM     17  C   UNL     1       1.623   9.075  17.762  0.00  0.00    +0.000 A 
ATOM     18  C   UNL     1       1.081   9.897  18.755  0.00  0.00    +0.000 A 
ATOM     19  C   UNL     1       1.036   9.434  20.070  0.00  0.00    +0.000 A 
ATOM     20  C   UNL     1       1.527   8.165  20.389  0.00  0.00    +0.000 A 
BRANCH  18  21
ATOM     21  O   UNL     1       0.586  11.162  18.558  0.00  0.00    +0.000 OA
BRANCH  21  22
ATOM     22  C   UNL     1      -0.758  11.351  18.998  0.00  0.00    +0.000 C 
BRANCH  22  23
ATOM     23  C   UNL     1      -1.641  10.207  18.526  0.00  0.00    +0.000 C 
BRANCH  23  24
ATOM     24  N   UNL     1      -2.541  10.666  17.488  0.00  0.00    +0.000 N 
ATOM     25  C   UNL     1      -2.446  10.386  16.153  0.00  0.00    +0.000 A 
ATOM     26  C   UNL     1      -3.552  10.978  15.591  0.00  0.00    +0.000 A 
ATOM     27  N   UNL     1      -4.319  11.585  16.551  0.00  0.00    +0.000 NA
ATOM     28  C   UNL     1      -3.688  11.379  17.684  0.00  0.00    +0.000 A 
ENDBRANCH  23  24
ENDBRANCH  22  23
ENDBRANCH  21  22
ENDBRANCH  18  21
ENDBRANCH   2  15
TORSDOF 6
ENDMDL
MODEL 4
REMARK VINA RESULT:      -7.3      1.335      2.128
REMARK  Name = 
REMARK  6 active torsions:
REMARK  status: ('A' for Active; 'I' for Inactive)
REMARK    1  A    between atoms: C_2  and  C_3
REMARK    2  A    between atoms: C_6  and  O_7
REMARK    3  A    between atoms: O_7  and  C_8
REMARK    4  A    between atoms: C_8  and  C_9
REMARK    5  A    between atoms: C_9  and  N_10
REMARK    6  A    between atoms: C_20  and  C_21
REMARK                            x       y       z     vdW  Elec       q    Type
REMARK                         _______ _______ _______ _____ _____    ______ ____
ROOT
ATOM      1  O   UNL     1       0.686   8.798  22.110  0.00  0.00    +0.000 OA
ATOM      2  C   UNL     1       0.817   9.130  20.934  0.00  0.00    +0.000 C 
ATOM      3  N   UNL     1       0.257  10.291  20.423  0.00  0.00    +0.000 N 
ATOM      4  C   UNL     1      -0.522  11.156  21.294  0.00  0.00    +0.000 C 
ATOM      5  C   UNL     1      -1.407  11.974  20.364  0.00  0.00    +0.000 C 
ATOM      6  C   UNL     1      -0.666  11.994  19.024  0.00  0.00    +0.000 C 
ATOM      7  C   UNL     1       0.077  10.655  19.020  0.00  0.00    +0.000 C 
ENDROOT
BRANCH   6   8
ATOM      8  C   UNL     1       0.250  13.193  18.831  0.00  0.00    +0.000 A 
ATOM      9  C   UNL     1      -0.177  14.517  19.016  0.00  0.00    +0.000 A 
ATOM     10  C   UNL     1       0.696  15.592  18.815  0.00  0.00    +0.000 A 
ATOM     11  C   UNL     1       2.013  15.351  18.442  0.00  0.00    +0.000 A 
ATOM     12 BR   UNL     1       3.189  16.801  18.151  0.00  0.00    +0.000 Br
ATOM     13  C   UNL     1       2.469  14.046  18.280  0.00  0.00    +0.000 A 
ATOM     14  C   UNL     1       1.590  12.974  18.473  0.00  0.00    +0.000 A 
ENDBRANCH   6   8
BRANCH   2  15
ATOM     15  C   UNL     1       1.561   8.211  20.033  0.00  0.00    +0.000 A 
ATOM     16  C   UNL     1       1.857   6.930  20.507  0.00  0.00    +0.000 A 
ATOM     17  C   UNL     1       2.538   6.020  19.697  0.00  0.00    +0.000 A 
ATOM     18  C   UNL     1       2.919   6.373  18.398  0.00  0.00    +0.000 A 
ATOM     19  C   UNL     1       2.655   7.664  17.940  0.00  0.00    +0.000 A 
ATOM     20  C   UNL     1       2.018   8.592  18.769  0.00  0.00    +0.000 A 
BRANCH  18  21
ATOM     21  O   UNL     1       3.562   5.552  17.507  0.00  0.00    +0.000 OA
BRANCH  21  22
ATOM     22  C   UNL     1       3.966   4.292  18.042  0.00  0.00    +0.000 C 
BRANCH  22  23
ATOM     23  C   UNL     1       5.478   4.239  18.201  0.00  0.00    +0.000 C 
BRANCH  23  24
ATOM     24  N   UNL     1       6.123   4.493  16.930  0.00  0.00    +0.000 N 
ATOM     25  C   UNL     1       5.939   3.789  15.773  0.00  0.00    +0.000 A 
ATOM     26  C   UNL     1       6.706   4.444  14.838  0.00  0.00    +0.000 A 
ATOM     27  N   UNL     1       7.327   5.532  15.394  0.00  0.00    +0.000 NA
ATOM     28  C   UNL     1       6.956   5.539  16.653  0.00  0.00    +0.000 A 
ENDBRANCH  23  24
ENDBRANCH  22  23
ENDBRANCH  21  22
ENDBRANCH  18  21
ENDBRANCH   2  15
TORSDOF 6
ENDMDL
MODEL 5
REMARK VINA RESULT:      -7.3      3.856      9.249
REMARK  Name = 
REMARK  6 active torsions:
REMARK  status: ('A' for Active; 'I' for Inactive)
REMARK    1  A    between atoms: C_2  and  C_3
REMARK    2  A    between atoms: C_6  and  O_7
REMARK    3  A    between atoms: O_7  and  C_8
REMARK    4  A    between atoms: C_8  and  C_9
REMARK    5  A    between atoms: C_9  and  N_10
REMARK    6  A    between atoms: C_20  and  C_21
REMARK                            x       y       z     vdW  Elec       q    Type
REMARK                         _______ _______ _______ _____ _____    ______ ____
ROOT
ATOM      1  O   UNL     1       2.183   5.235  20.575  0.00  0.00    +0.000 OA
ATOM      2  C   UNL     1       2.745   5.967  19.763  0.00  0.00    +0.000 C 
ATOM      3  N   UNL     1       3.950   5.629  19.168  0.00  0.00    +0.000 N 
ATOM      4  C   UNL     1       4.592   4.370  19.511  0.00  0.00    +0.000 C 
ATOM      5  C   UNL     1       6.060   4.555  19.154  0.00  0.00    +0.000 C 
ATOM      6  C   UNL     1       6.075   5.640  18.073  0.00  0.00    +0.000 C 
ATOM      7  C   UNL     1       4.862   6.504  18.435  0.00  0.00    +0.000 C 
ENDROOT
BRANCH   6   8
ATOM      8  C   UNL     1       6.034   5.108  16.649  0.00  0.00    +0.000 A 
ATOM      9  C   UNL     1       4.848   4.689  16.025  0.00  0.00    +0.000 A 
ATOM     10  C   UNL     1       4.856   4.194  14.717  0.00  0.00    +0.000 A 
ATOM     11  C   UNL     1       6.052   4.129  14.011  0.00  0.00    +0.000 A 
ATOM     12 BR   UNL     1       6.070   3.443  12.251  0.00  0.00    +0.000 Br
ATOM     13  C   UNL     1       7.236   4.566  14.597  0.00  0.00    +0.000 A 
ATOM     14  C   UNL     1       7.225   5.051  15.909  0.00  0.00    +0.000 A 
ENDBRANCH   6   8
BRANCH   2  15
ATOM     15  C   UNL     1       2.117   7.281  19.463  0.00  0.00    +0.000 A 
ATOM     16  C   UNL     1       1.558   7.995  20.527  0.00  0.00    +0.000 A 
ATOM     17  C   UNL     1       0.971   9.242  20.305  0.00  0.00    +0.000 A 
ATOM     18  C   UNL     1       0.949   9.798  19.022  0.00  0.00    +0.000 A 
ATOM     19  C   UNL     1       1.475   9.069  17.956  0.00  0.00    +0.000 A 
ATOM     20  C   UNL     1       2.017   7.798  18.169  0.00  0.00    +0.000 A 
BRANCH  18  21
ATOM     21  O   UNL     1       0.429  11.026  18.696  0.00  0.00    +0.000 OA
BRANCH  21  22
ATOM     22  C   UNL     1      -0.852  10.983  18.069  0.00  0.00    +0.000 C 
BRANCH  22  23
ATOM     23  C   UNL     1      -1.926  11.505  19.011  0.00  0.00    +0.000 C 
BRANCH  23  24
ATOM     24  N   UNL     1      -3.208  11.540  18.338  0.00  0.00    +0.000 N 
ATOM     25  C   UNL     1      -4.398  11.929  18.885  0.00  0.00    +0.000 A 
ATOM     26  C   UNL     1      -5.300  11.857  17.849  0.00  0.00    +0.000 A 
ATOM     27  N   UNL     1      -4.682  11.458  16.693  0.00  0.00    +0.000 NA
ATOM     28  C   UNL     1      -3.422  11.276  17.016  0.00  0.00    +0.000 A 
ENDBRANCH  23  24
ENDBRANCH  22  23
ENDBRANCH  21  22
ENDBRANCH  18  21
ENDBRANCH   2  15
TORSDOF 6
ENDMDL
MODEL 6
REMARK VINA RESULT:      -7.3      1.127      1.716
REMARK  Name = 
REMARK  6 active torsions:
REMARK  status: ('A' for Active; 'I' for Inactive)
REMARK    1  A    between atoms: C_2  and  C_3
REMARK    2  A    between atoms: C_6  and  O_7
REMARK    3  A    between atoms: O_7  and  C_8
REMARK    4  A    between atoms: C_8  and  C_9
REMARK    5  A    between atoms: C_9  and  N_10
REMARK    6  A    between atoms: C_20  and  C_21
REMARK                            x       y       z     vdW  Elec       q    Type
REMARK                         _______ _______ _______ _____ _____    ______ ____
ROOT
ATOM      1  O   UNL     1       1.260   8.331  22.385  0.00  0.00    +0.000 OA
ATOM      2  C   UNL     1       1.209   8.600  21.187  0.00  0.00    +0.000 C 
ATOM      3  N   UNL     1       0.691   9.797  20.716  0.00  0.00    +0.000 N 
ATOM      4  C   UNL     1       0.176  10.777  21.659  0.00  0.00    +0.000 C 
ATOM      5  C   UNL     1      -0.773  11.653  20.853  0.00  0.00    +0.000 C 
ATOM      6  C   UNL     1      -0.288  11.539  19.405  0.00  0.00    +0.000 C 
ATOM      7  C   UNL     1       0.298  10.125  19.348  0.00  0.00    +0.000 C 
ENDROOT
BRANCH   6   8
ATOM      8  C   UNL     1       0.697  12.618  18.985  0.00  0.00    +0.000 A 
ATOM      9  C   UNL     1       0.441  13.989  19.144  0.00  0.00    +0.000 A 
ATOM     10  C   UNL     1       1.370  14.950  18.732  0.00  0.00    +0.000 A 
ATOM     11  C   UNL     1       2.577  14.548  18.170  0.00  0.00    +0.000 A 
ATOM     12 BR   UNL     1       3.826  15.843  17.596  0.00  0.00    +0.000 Br
ATOM     13  C   UNL     1       2.867  13.194  18.030  0.00  0.00    +0.000 A 
ATOM     14  C   UNL     1       1.931  12.236  18.434  0.00  0.00    +0.000 A 
ENDBRANCH   6   8
BRANCH   2  15
ATOM     15  C   UNL     1       1.679   7.570  20.223  0.00  0.00    +0.000 A 
ATOM     16  C   UNL     1       1.551   6.227  20.591  0.00  0.00    +0.000 A 
ATOM     17  C   UNL     1       1.960   5.218  19.717  0.00  0.00    +0.000 A 
ATOM     18  C   UNL     1       2.486   5.536  18.461  0.00  0.00    +0.000 A 
ATOM     19  C   UNL     1       2.645   6.876  18.110  0.00  0.00    +0.000 A 
ATOM     20  C   UNL     1       2.283   7.888  19.005  0.00  0.00    +0.000 A 
BRANCH  18  21
ATOM     21  O   UNL     1       2.887   4.628  17.514  0.00  0.00    +0.000 OA
BRANCH  21  22
ATOM     22  C   UNL     1       4.025   3.848  17.880  0.00  0.00    +0.000 C 
BRANCH  22  23
ATOM     23  C   UNL     1       5.061   3.859  16.768  0.00  0.00    +0.000 C 
BRANCH  23  24
ATOM     24  N   UNL     1       6.003   4.940  16.972  0.00  0.00    +0.000 N 
ATOM     25  C   UNL     1       6.364   5.482  18.174  0.00  0.00    +0.000 A 
ATOM     26  C   UNL     1       7.323   6.417  17.862  0.00  0.00    +0.000 A 
ATOM     27  N   UNL     1       7.563   6.438  16.513  0.00  0.00    +0.000 NA
ATOM     28  C   UNL     1       6.756   5.536  16.002  0.00  0.00    +0.000 A 
ENDBRANCH  23  24
ENDBRANCH  22  23
ENDBRANCH  21  22
ENDBRANCH  18  21
ENDBRANCH   2  15
TORSDOF 6
ENDMDL
MODEL 7
REMARK VINA RESULT:      -7.2      0.709      1.186
REMARK  Name = 
REMARK  6 active torsions:
REMARK  status: ('A' for Active; 'I' for Inactive)
REMARK    1  A    between atoms: C_2  and  C_3
REMARK    2  A    between atoms: C_6  and  O_7
REMARK    3  A    between atoms: O_7  and  C_8
REMARK    4  A    between atoms: C_8  and  C_9
REMARK    5  A    between atoms: C_9  and  N_10
REMARK    6  A    between atoms: C_20  and  C_21
REMARK                            x       y       z     vdW  Elec       q    Type
REMARK                         _______ _______ _______ _____ _____    ______ ____
ROOT
ATOM      1  O   UNL     1       1.320   7.905  21.618  0.00  0.00    +0.000 OA
ATOM      2  C   UNL     1       1.438   8.318  20.466  0.00  0.00    +0.000 C 
ATOM      3  N   UNL     1       0.867   9.508  20.041  0.00  0.00    +0.000 N 
ATOM      4  C   UNL     1       0.090  10.305  20.977  0.00  0.00    +0.000 C 
ATOM      5  C   UNL     1      -0.809  11.179  20.112  0.00  0.00    +0.000 C 
ATOM      6  C   UNL     1      -0.080  11.297  18.771  0.00  0.00    +0.000 C 
ATOM      7  C   UNL     1       0.672   9.966  18.668  0.00  0.00    +0.000 C 
ENDROOT
BRANCH   6   8
ATOM      8  C   UNL     1       0.827  12.513  18.653  0.00  0.00    +0.000 A 
ATOM      9  C   UNL     1       0.386  13.821  18.905  0.00  0.00    +0.000 A 
ATOM     10  C   UNL     1       1.250  14.913  18.773  0.00  0.00    +0.000 A 
ATOM     11  C   UNL     1       2.574  14.705  18.402  0.00  0.00    +0.000 A 
ATOM     12 BR   UNL     1       3.738  16.179  18.204  0.00  0.00    +0.000 Br
ATOM     13  C   UNL     1       3.043  13.414  18.176  0.00  0.00    +0.000 A 
ATOM     14  C   UNL     1       2.173  12.326  18.300  0.00  0.00    +0.000 A 
ENDBRANCH   6   8
BRANCH   2  15
ATOM     15  C   UNL     1       2.180   7.469  19.497  0.00  0.00    +0.000 A 
ATOM     16  C   UNL     1       2.248   6.096  19.752  0.00  0.00    +0.000 A 
ATOM     17  C   UNL     1       2.918   5.250  18.866  0.00  0.00    +0.000 A 
ATOM     18  C   UNL     1       3.514   5.761  17.709  0.00  0.00    +0.000 A 
ATOM     19  C   UNL     1       3.476   7.136  17.475  0.00  0.00    +0.000 A 
ATOM     20  C   UNL     1       2.849   7.990  18.388  0.00  0.00    +0.000 A 
BRANCH  18  21
ATOM     21  O   UNL     1       4.167   5.020  16.757  0.00  0.00    +0.000 OA
BRANCH  21  22
ATOM     22  C   UNL     1       5.148   4.120  17.271  0.00  0.00    +0.000 C 
BRANCH  22  23
ATOM     23  C   UNL     1       6.510   4.409  16.661  0.00  0.00    +0.000 C 
BRANCH  23  24
ATOM     24  N   UNL     1       7.132   5.530  17.334  0.00  0.00    +0.000 N 
ATOM     25  C   UNL     1       7.182   6.819  16.883  0.00  0.00    +0.000 A 
ATOM     26  C   UNL     1       7.805   7.519  17.888  0.00  0.00    +0.000 A 
ATOM     27  N   UNL     1       8.111   6.694  18.938  0.00  0.00    +0.000 NA
ATOM     28  C   UNL     1       7.692   5.502  18.579  0.00  0.00    +0.000 A 
ENDBRANCH  23  24
ENDBRANCH  22  23
ENDBRANCH  21  22
ENDBRANCH  18  21
ENDBRANCH   2  15
TORSDOF 6
ENDMDL
MODEL 8
REMARK VINA RESULT:      -7.2      3.650      8.819
REMARK  Name = 
REMARK  6 active torsions:
REMARK  status: ('A' for Active; 'I' for Inactive)
REMARK    1  A    between atoms: C_2  and  C_3
REMARK    2  A    between atoms: C_6  and  O_7
REMARK    3  A    between atoms: O_7  and  C_8
REMARK    4  A    between atoms: C_8  and  C_9
REMARK    5  A    between atoms: C_9  and  N_10
REMARK    6  A    between atoms: C_20  and  C_21
REMARK                            x       y       z     vdW  Elec       q    Type
REMARK                         _______ _______ _______ _____ _____    ______ ____
ROOT
ATOM      1  O   UNL     1       1.167   4.652  20.239  0.00  0.00    +0.000 OA
ATOM      2  C   UNL     1       2.049   5.393  19.810  0.00  0.00    +0.000 C 
ATOM      3  N   UNL     1       3.282   4.916  19.392  0.00  0.00    +0.000 N 
ATOM      4  C   UNL     1       3.562   3.491  19.463  0.00  0.00    +0.000 C 
ATOM      5  C   UNL     1       5.080   3.378  19.476  0.00  0.00    +0.000 C 
ATOM      6  C   UNL     1       5.581   4.655  18.794  0.00  0.00    +0.000 C 
ATOM      7  C   UNL     1       4.502   5.682  19.150  0.00  0.00    +0.000 C 
ENDROOT
BRANCH   6   8
ATOM      8  C   UNL     1       5.813   4.518  17.297  0.00  0.00    +0.000 A 
ATOM      9  C   UNL     1       4.795   4.171  16.395  0.00  0.00    +0.000 A 
ATOM     10  C   UNL     1       5.054   4.042  15.027  0.00  0.00    +0.000 A 
ATOM     11  C   UNL     1       6.336   4.278  14.542  0.00  0.00    +0.000 A 
ATOM     12 BR   UNL     1       6.694   4.087  12.698  0.00  0.00    +0.000 Br
ATOM     13  C   UNL     1       7.356   4.652  15.412  0.00  0.00    +0.000 A 
ATOM     14  C   UNL     1       7.094   4.770  16.781  0.00  0.00    +0.000 A 
ENDBRANCH   6   8
BRANCH   2  15
ATOM     15  C   UNL     1       1.781   6.855  19.799  0.00  0.00    +0.000 A 
ATOM     16  C   UNL     1       1.344   7.448  20.987  0.00  0.00    +0.000 A 
ATOM     17  C   UNL     1       1.094   8.821  21.037  0.00  0.00    +0.000 A 
ATOM     18  C   UNL     1       1.292   9.620  19.907  0.00  0.00    +0.000 A 
ATOM     19  C   UNL     1       1.694   9.022  18.713  0.00  0.00    +0.000 A 
ATOM     20  C   UNL     1       1.896   7.640  18.649  0.00  0.00    +0.000 A 
BRANCH  18  21
ATOM     21  O   UNL     1       1.110  10.979  19.853  0.00  0.00    +0.000 OA
BRANCH  21  22
ATOM     22  C   UNL     1       0.494  11.450  18.655  0.00  0.00    +0.000 C 
BRANCH  22  23
ATOM     23  C   UNL     1      -0.870  12.053  18.956  0.00  0.00    +0.000 C 
BRANCH  23  24
ATOM     24  N   UNL     1      -1.908  11.303  18.281  0.00  0.00    +0.000 N 
ATOM     25  C   UNL     1      -1.725  10.230  17.455  0.00  0.00    +0.000 A 
ATOM     26  C   UNL     1      -2.995   9.823  17.120  0.00  0.00    +0.000 A 
ATOM     27  N   UNL     1      -3.935  10.606  17.738  0.00  0.00    +0.000 NA
ATOM     28  C   UNL     1      -3.252  11.487  18.433  0.00  0.00    +0.000 A 
ENDBRANCH  23  24
ENDBRANCH  22  23
ENDBRANCH  21  22
ENDBRANCH  18  21
ENDBRANCH   2  15
TORSDOF 6
ENDMDL
MODEL 9
REMARK VINA RESULT:      -7.2      3.703      8.924
REMARK  Name = 
REMARK  6 active torsions:
REMARK  status: ('A' for Active; 'I' for Inactive)
REMARK    1  A    between atoms: C_2  and  C_3
REMARK    2  A    between atoms: C_6  and  O_7
REMARK    3  A    between atoms: O_7  and  C_8
REMARK    4  A    between atoms: C_8  and  C_9
REMARK    5  A    between atoms: C_9  and  N_10
REMARK    6  A    between atoms: C_20  and  C_21
REMARK                            x       y       z     vdW  Elec       q    Type
REMARK                         _______ _______ _______ _____ _____    ______ ____
ROOT
ATOM      1  O   UNL     1       1.343   4.763  20.314  0.00  0.00    +0.000 OA
ATOM      2  C   UNL     1       2.188   5.503  19.814  0.00  0.00    +0.000 C 
ATOM      3  N   UNL     1       3.427   5.041  19.399  0.00  0.00    +0.000 N 
ATOM      4  C   UNL     1       3.761   3.635  19.561  0.00  0.00    +0.000 C 
ATOM      5  C   UNL     1       5.282   3.576  19.544  0.00  0.00    +0.000 C 
ATOM      6  C   UNL     1       5.720   4.818  18.763  0.00  0.00    +0.000 C 
ATOM      7  C   UNL     1       4.613   5.830  19.074  0.00  0.00    +0.000 C 
ENDROOT
BRANCH   6   8
ATOM      8  C   UNL     1       5.924   4.585  17.275  0.00  0.00    +0.000 A 
ATOM      9  C   UNL     1       7.135   4.857  16.618  0.00  0.00    +0.000 A 
ATOM     10  C   UNL     1       7.276   4.640  15.244  0.00  0.00    +0.000 A 
ATOM     11  C   UNL     1       6.208   4.132  14.512  0.00  0.00    +0.000 A 
ATOM     12 BR   UNL     1       6.390   3.857  12.652  0.00  0.00    +0.000 Br
ATOM     13  C   UNL     1       5.007   3.827  15.144  0.00  0.00    +0.000 A 
ATOM     14  C   UNL     1       4.867   4.055  16.518  0.00  0.00    +0.000 A 
ENDBRANCH   6   8
BRANCH   2  15
ATOM     15  C   UNL     1       1.867   6.950  19.708  0.00  0.00    +0.000 A 
ATOM     16  C   UNL     1       1.407   7.602  20.856  0.00  0.00    +0.000 A 
ATOM     17  C   UNL     1       1.107   8.965  20.818  0.00  0.00    +0.000 A 
ATOM     18  C   UNL     1       1.277   9.697  19.639  0.00  0.00    +0.000 A 
ATOM     19  C   UNL     1       1.702   9.037  18.485  0.00  0.00    +0.000 A 
ATOM     20  C   UNL     1       1.953   7.662  18.510  0.00  0.00    +0.000 A 
BRANCH  18  21
ATOM     21  O   UNL     1       1.045  11.042  19.496  0.00  0.00    +0.000 OA
BRANCH  21  22
ATOM     22  C   UNL     1       0.002  11.373  18.580  0.00  0.00    +0.000 C 
BRANCH  22  23
ATOM     23  C   UNL     1      -1.360  11.184  19.230  0.00  0.00    +0.000 C 
BRANCH  23  24
ATOM     24  N   UNL     1      -2.388  11.087  18.215  0.00  0.00    +0.000 N 
ATOM     25  C   UNL     1      -3.671  11.549  18.316  0.00  0.00    +0.000 A 
ATOM     26  C   UNL     1      -4.234  11.290  17.088  0.00  0.00    +0.000 A 
ATOM     27  N   UNL     1      -3.322  10.707  16.248  0.00  0.00    +0.000 NA
ATOM     28  C   UNL     1      -2.219  10.599  16.951  0.00  0.00    +0.000 A 
ENDBRANCH  23  24
ENDBRANCH  22  23
ENDBRANCH  21  22
ENDBRANCH  18  21
ENDBRANCH   2  15
TORSDOF 6
ENDMDL
