MODEL 1
REMARK VINA RESULT:      -7.0      0.000      0.000
REMARK  Name = 
REMARK  5 active torsions:
REMARK  status: ('A' for Active; 'I' for Inactive)
REMARK    1  A    between atoms: C_2  and  C_3
REMARK    2  A    between atoms: C_3  and  S_4
REMARK    3  A    between atoms: S_4  and  C_5
REMARK    4  A    between atoms: C_12  and  C_13
REMARK    5  A    between atoms: N_20  and  C_21
REMARK                            x       y       z     vdW  Elec       q    Type
REMARK                         _______ _______ _______ _____ _____    ______ ____
ROOT
ATOM      1  C   UNL     1       2.897   6.253  19.143  0.00  0.00    +0.000 A 
ATOM      2  N   UNL     1       1.938   6.718  19.975  0.00  0.00    +0.000 NA
ATOM      3  C   UNL     1       1.464   5.905  20.922  0.00  0.00    +0.000 A 
ATOM      4  N   UNL     1       1.854   4.662  21.168  0.00  0.00    +0.000 NA
ATOM      5  C   UNL     1       2.797   4.224  20.318  0.00  0.00    +0.000 A 
ATOM      6  S   UNL     1       3.414   2.656  20.523  0.00  0.00    +0.000 S 
ATOM      7  C   UNL     1       4.434   2.824  19.176  0.00  0.00    +0.000 A 
ATOM      8  C   UNL     1       4.336   4.062  18.558  0.00  0.00    +0.000 A 
ATOM      9  C   UNL     1       3.370   4.924  19.254  0.00  0.00    +0.000 A 
ENDROOT
BRANCH   8  10
ATOM     10  C   UNL     1       5.183   4.319  17.379  0.00  0.00    +0.000 A 
ATOM     11  C   UNL     1       4.682   4.195  16.081  0.00  0.00    +0.000 A 
ATOM     12  C   UNL     1       5.450   4.567  14.973  0.00  0.00    +0.000 A 
ATOM     13  C   UNL     1       6.774   4.959  15.142  0.00  0.00    +0.000 A 
ATOM     14  C   UNL     1       7.329   4.974  16.417  0.00  0.00    +0.000 A 
ATOM     15  C   UNL     1       6.535   4.676  17.529  0.00  0.00    +0.000 A 
ENDBRANCH   8  10
BRANCH   1  16
ATOM     16  S   UNL     1       3.500   7.387  17.928  0.00  0.00    +0.000 S 
BRANCH  16  17
ATOM     17  C   UNL     1       1.978   8.270  17.476  0.00  0.00    +0.000 C 
BRANCH  17  19
ATOM     18  O   UNL     1       2.733  10.560  17.484  0.00  0.00    +0.000 OA
ATOM     19  C   UNL     1       2.036   9.695  18.004  0.00  0.00    +0.000 C 
ATOM     20  N   UNL     1       1.195   9.961  19.074  0.00  0.00    +0.000 N 
ATOM     21  H   UNL     1       0.597   9.203  19.392  0.00  0.00    +0.000 HD
BRANCH  20  22
ATOM     22  C   UNL     1       1.049  11.301  19.629  0.00  0.00    +0.000 C 
ATOM     23  C   UNL     1       0.543  11.296  21.084  0.00  0.00    +0.000 C 
ATOM     24  C   UNL     1      -0.954  11.050  21.020  0.00  0.00    +0.000 C 
ATOM     25  S   UNL     1      -1.501  12.059  19.659  0.00  0.00    +0.000 S 
ATOM     26  O   UNL     1      -1.837  13.372  20.163  0.00  0.00    +0.000 OA
ATOM     27  O   UNL     1      -2.416  11.283  18.847  0.00  0.00    +0.000 OA
ATOM     28  C   UNL     1       0.073  12.159  18.821  0.00  0.00    +0.000 C 
ENDBRANCH  20  22
ENDBRANCH  17  19
ENDBRANCH  16  17
ENDBRANCH   1  16
TORSDOF 5
ENDMDL
MODEL 2
REMARK VINA RESULT:      -6.9      1.529      1.897
REMARK  Name = 
REMARK  5 active torsions:
REMARK  status: ('A' for Active; 'I' for Inactive)
REMARK    1  A    between atoms: C_2  and  C_3
REMARK    2  A    between atoms: C_3  and  S_4
REMARK    3  A    between atoms: S_4  and  C_5
REMARK    4  A    between atoms: C_12  and  C_13
REMARK    5  A    between atoms: N_20  and  C_21
REMARK                            x       y       z     vdW  Elec       q    Type
REMARK                         _______ _______ _______ _____ _____    ______ ____
ROOT
ATOM      1  C   UNL     1       2.978   6.174  19.127  0.00  0.00    +0.000 A 
ATOM      2  N   UNL     1       2.017   6.626  19.964  0.00  0.00    +0.000 NA
ATOM      3  C   UNL     1       1.532   5.796  20.889  0.00  0.00    +0.000 A 
ATOM      4  N   UNL     1       1.913   4.545  21.111  0.00  0.00    +0.000 NA
ATOM      5  C   UNL     1       2.859   4.120  20.256  0.00  0.00    +0.000 A 
ATOM      6  S   UNL     1       3.466   2.544  20.430  0.00  0.00    +0.000 S 
ATOM      7  C   UNL     1       4.495   2.736  19.093  0.00  0.00    +0.000 A 
ATOM      8  C   UNL     1       4.408   3.988  18.502  0.00  0.00    +0.000 A 
ATOM      9  C   UNL     1       3.443   4.841  19.212  0.00  0.00    +0.000 A 
ENDROOT
BRANCH   8  10
ATOM     10  C   UNL     1       5.264   4.266  17.334  0.00  0.00    +0.000 A 
ATOM     11  C   UNL     1       6.597   4.655  17.484  0.00  0.00    +0.000 A 
ATOM     12  C   UNL     1       7.438   4.790  16.375  0.00  0.00    +0.000 A 
ATOM     13  C   UNL     1       6.924   4.651  15.089  0.00  0.00    +0.000 A 
ATOM     14  C   UNL     1       5.571   4.381  14.916  0.00  0.00    +0.000 A 
ATOM     15  C   UNL     1       4.751   4.171  16.028  0.00  0.00    +0.000 A 
ENDBRANCH   8  10
BRANCH   1  16
ATOM     16  S   UNL     1       3.595   7.332  17.942  0.00  0.00    +0.000 S 
BRANCH  16  17
ATOM     17  C   UNL     1       2.059   8.115  17.373  0.00  0.00    +0.000 C 
BRANCH  17  19
ATOM     18  O   UNL     1       2.307  10.483  17.758  0.00  0.00    +0.000 OA
ATOM     19  C   UNL     1       1.835   9.415  18.132  0.00  0.00    +0.000 C 
ATOM     20  N   UNL     1       1.007   9.314  19.240  0.00  0.00    +0.000 N 
ATOM     21  H   UNL     1       0.599   8.403  19.431  0.00  0.00    +0.000 HD
BRANCH  20  22
ATOM     22  C   UNL     1       0.603  10.483  20.012  0.00  0.00    +0.000 C 
ATOM     23  C   UNL     1       1.598  10.833  21.135  0.00  0.00    +0.000 C 
ATOM     24  C   UNL     1       1.325   9.863  22.271  0.00  0.00    +0.000 C 
ATOM     25  S   UNL     1      -0.451   9.776  22.350  0.00  0.00    +0.000 S 
ATOM     26  O   UNL     1      -0.925  10.807  23.247  0.00  0.00    +0.000 OA
ATOM     27  O   UNL     1      -0.841   8.388  22.491  0.00  0.00    +0.000 OA
ATOM     28  C   UNL     1      -0.766  10.297  20.671  0.00  0.00    +0.000 C 
ENDBRANCH  20  22
ENDBRANCH  17  19
ENDBRANCH  16  17
ENDBRANCH   1  16
TORSDOF 5
ENDMDL
MODEL 3
REMARK VINA RESULT:      -6.8      2.763      4.287
REMARK  Name = 
REMARK  5 active torsions:
REMARK  status: ('A' for Active; 'I' for Inactive)
REMARK    1  A    between atoms: C_2  and  C_3
REMARK    2  A    between atoms: C_3  and  S_4
REMARK    3  A    between atoms: S_4  and  C_5
REMARK    4  A    between atoms: C_12  and  C_13
REMARK    5  A    between atoms: N_20  and  C_21
REMARK                            x       y       z     vdW  Elec       q    Type
REMARK                         _______ _______ _______ _____ _____    ______ ____
ROOT
ATOM      1  C   UNL     1       5.478   6.139  17.968  0.00  0.00    +0.000 A 
ATOM      2  N   UNL     1       6.443   7.086  17.977  0.00  0.00    +0.000 NA
ATOM      3  C   UNL     1       7.378   7.055  17.025  0.00  0.00    +0.000 A 
ATOM      4  N   UNL     1       7.460   6.193  16.022  0.00  0.00    +0.000 NA
ATOM      5  C   UNL     1       6.496   5.257  16.047  0.00  0.00    +0.000 A 
ATOM      6  S   UNL     1       6.456   4.095  14.809  0.00  0.00    +0.000 S 
ATOM      7  C   UNL     1       5.105   3.332  15.498  0.00  0.00    +0.000 A 
ATOM      8  C   UNL     1       4.656   3.942  16.660  0.00  0.00    +0.000 A 
ATOM      9  C   UNL     1       5.472   5.121  16.986  0.00  0.00    +0.000 A 
ENDROOT
BRANCH   8  10
ATOM     10  C   UNL     1       3.482   3.365  17.340  0.00  0.00    +0.000 A 
ATOM     11  C   UNL     1       3.550   2.130  17.989  0.00  0.00    +0.000 A 
ATOM     12  C   UNL     1       2.474   1.650  18.742  0.00  0.00    +0.000 A 
ATOM     13  C   UNL     1       1.270   2.347  18.759  0.00  0.00    +0.000 A 
ATOM     14  C   UNL     1       1.143   3.519  18.022  0.00  0.00    +0.000 A 
ATOM     15  C   UNL     1       2.245   4.035  17.334  0.00  0.00    +0.000 A 
ENDBRANCH   8  10
BRANCH   1  16
ATOM     16  S   UNL     1       4.256   6.252  19.241  0.00  0.00    +0.000 S 
BRANCH  16  17
ATOM     17  C   UNL     1       3.040   7.361  18.472  0.00  0.00    +0.000 C 
BRANCH  17  19
ATOM     18  O   UNL     1       1.726   7.054  20.471  0.00  0.00    +0.000 OA
ATOM     19  C   UNL     1       1.984   7.751  19.495  0.00  0.00    +0.000 C 
ATOM     20  N   UNL     1       1.382   8.981  19.279  0.00  0.00    +0.000 N 
ATOM     21  H   UNL     1       1.712   9.526  18.487  0.00  0.00    +0.000 HD
BRANCH  20  22
ATOM     22  C   UNL     1       0.429   9.552  20.224  0.00  0.00    +0.000 C 
ATOM     23  C   UNL     1      -0.757  10.250  19.532  0.00  0.00    +0.000 C 
ATOM     24  C   UNL     1      -0.251  11.605  19.069  0.00  0.00    +0.000 C 
ATOM     25  S   UNL     1       0.738  12.186  20.431  0.00  0.00    +0.000 S 
ATOM     26  O   UNL     1      -0.114  12.924  21.338  0.00  0.00    +0.000 OA
ATOM     27  O   UNL     1       1.971  12.737  19.906  0.00  0.00    +0.000 OA
ATOM     28  C   UNL     1       1.078  10.586  21.147  0.00  0.00    +0.000 C 
ENDBRANCH  20  22
ENDBRANCH  17  19
ENDBRANCH  16  17
ENDBRANCH   1  16
TORSDOF 5
ENDMDL
MODEL 4
REMARK VINA RESULT:      -6.8      1.990      2.439
REMARK  Name = 
REMARK  5 active torsions:
REMARK  status: ('A' for Active; 'I' for Inactive)
REMARK    1  A    between atoms: C_2  and  C_3
REMARK    2  A    between atoms: C_3  and  S_4
REMARK    3  A    between atoms: S_4  and  C_5
REMARK    4  A    between atoms: C_12  and  C_13
REMARK    5  A    between atoms: N_20  and  C_21
REMARK                            x       y       z     vdW  Elec       q    Type
REMARK                         _______ _______ _______ _____ _____    ______ ____
ROOT
ATOM      1  C   UNL     1       2.088   4.950  19.825  0.00  0.00    +0.000 A 
ATOM      2  N   UNL     1       0.919   4.555  20.377  0.00  0.00    +0.000 NA
ATOM      3  C   UNL     1       0.560   3.274  20.268  0.00  0.00    +0.000 A 
ATOM      4  N   UNL     1       1.251   2.304  19.685  0.00  0.00    +0.000 NA
ATOM      5  C   UNL     1       2.400   2.728  19.135  0.00  0.00    +0.000 A 
ATOM      6  S   UNL     1       3.407   1.594  18.372  0.00  0.00    +0.000 S 
ATOM      7  C   UNL     1       4.530   2.795  17.950  0.00  0.00    +0.000 A 
ATOM      8  C   UNL     1       4.174   4.063  18.383  0.00  0.00    +0.000 A 
ATOM      9  C   UNL     1       2.903   4.031  19.123  0.00  0.00    +0.000 A 
ENDROOT
BRANCH   8  10
ATOM     10  C   UNL     1       5.082   5.183  18.076  0.00  0.00    +0.000 A 
ATOM     11  C   UNL     1       6.290   5.350  18.756  0.00  0.00    +0.000 A 
ATOM     12  C   UNL     1       7.205   6.335  18.371  0.00  0.00    +0.000 A 
ATOM     13  C   UNL     1       6.871   7.245  17.373  0.00  0.00    +0.000 A 
ATOM     14  C   UNL     1       5.623   7.170  16.765  0.00  0.00    +0.000 A 
ATOM     15  C   UNL     1       4.743   6.137  17.099  0.00  0.00    +0.000 A 
ENDBRANCH   8  10
BRANCH   1  16
ATOM     16  S   UNL     1       2.516   6.653  20.028  0.00  0.00    +0.000 S 
BRANCH  16  17
ATOM     17  C   UNL     1       1.104   7.265  20.990  0.00  0.00    +0.000 C 
BRANCH  17  19
ATOM     18  O   UNL     1       1.880   9.153  22.275  0.00  0.00    +0.000 OA
ATOM     19  C   UNL     1       1.286   8.747  21.281  0.00  0.00    +0.000 C 
ATOM     20  N   UNL     1       0.790   9.603  20.309  0.00  0.00    +0.000 N 
ATOM     21  H   UNL     1       0.380   9.177  19.482  0.00  0.00    +0.000 HD
BRANCH  20  22
ATOM     22  C   UNL     1       0.979  11.047  20.381  0.00  0.00    +0.000 C 
ATOM     23  C   UNL     1      -0.069  11.746  21.267  0.00  0.00    +0.000 C 
ATOM     24  C   UNL     1      -1.336  11.853  20.436  0.00  0.00    +0.000 C 
ATOM     25  S   UNL     1      -0.756  12.325  18.821  0.00  0.00    +0.000 S 
ATOM     26  O   UNL     1      -0.707  13.769  18.752  0.00  0.00    +0.000 OA
ATOM     27  O   UNL     1      -1.446  11.526  17.829  0.00  0.00    +0.000 OA
ATOM     28  C   UNL     1       0.911  11.709  19.003  0.00  0.00    +0.000 C 
ENDBRANCH  20  22
ENDBRANCH  17  19
ENDBRANCH  16  17
ENDBRANCH   1  16
TORSDOF 5
ENDMDL
MODEL 5
REMARK VINA RESULT:      -6.6      1.714      2.141
REMARK  Name = 
REMARK  5 active torsions:
REMARK  status: ('A' for Active; 'I' for Inactive)
REMARK    1  A    between atoms: C_2  and  C_3
REMARK    2  A    between atoms: C_3  and  S_4
REMARK    3  A    between atoms: S_4  and  C_5
REMARK    4  A    between atoms: C_12  and  C_13
REMARK    5  A    between atoms: N_20  and  C_21
REMARK                            x       y       z     vdW  Elec       q    Type
REMARK                         _______ _______ _______ _____ _____    ______ ____
ROOT
ATOM      1  C   UNL     1       2.213   5.218  19.700  0.00  0.00    +0.000 A 
ATOM      2  N   UNL     1       0.986   4.926  20.186  0.00  0.00    +0.000 NA
ATOM      3  C   UNL     1       0.597   3.649  20.216  0.00  0.00    +0.000 A 
ATOM      4  N   UNL     1       1.307   2.595  19.839  0.00  0.00    +0.000 NA
ATOM      5  C   UNL     1       2.515   2.917  19.349  0.00  0.00    +0.000 A 
ATOM      6  S   UNL     1       3.550   1.668  18.847  0.00  0.00    +0.000 S 
ATOM      7  C   UNL     1       4.746   2.778  18.376  0.00  0.00    +0.000 A 
ATOM      8  C   UNL     1       4.394   4.100  18.598  0.00  0.00    +0.000 A 
ATOM      9  C   UNL     1       3.060   4.195  19.210  0.00  0.00    +0.000 A 
ENDROOT
BRANCH   8  10
ATOM     10  C   UNL     1       5.362   5.150  18.231  0.00  0.00    +0.000 A 
ATOM     11  C   UNL     1       6.498   5.396  19.006  0.00  0.00    +0.000 A 
ATOM     12  C   UNL     1       7.478   6.300  18.583  0.00  0.00    +0.000 A 
ATOM     13  C   UNL     1       7.277   7.058  17.433  0.00  0.00    +0.000 A 
ATOM     14  C   UNL     1       6.097   6.914  16.712  0.00  0.00    +0.000 A 
ATOM     15  C   UNL     1       5.155   5.954  17.096  0.00  0.00    +0.000 A 
ENDBRANCH   8  10
BRANCH   1  16
ATOM     16  S   UNL     1       2.677   6.924  19.711  0.00  0.00    +0.000 S 
BRANCH  16  17
ATOM     17  C   UNL     1       2.195   7.437  18.037  0.00  0.00    +0.000 C 
BRANCH  17  19
ATOM     18  O   UNL     1       2.398   9.725  17.303  0.00  0.00    +0.000 OA
ATOM     19  C   UNL     1       1.840   8.916  18.037  0.00  0.00    +0.000 C 
ATOM     20  N   UNL     1       0.796   9.271  18.878  0.00  0.00    +0.000 N 
ATOM     21  H   UNL     1       0.342   8.521  19.394  0.00  0.00    +0.000 HD
BRANCH  20  22
ATOM     22  C   UNL     1       0.260  10.626  18.916  0.00  0.00    +0.000 C 
ATOM     23  C   UNL     1       1.230  11.637  19.557  0.00  0.00    +0.000 C 
ATOM     24  C   UNL     1       1.123  11.445  21.060  0.00  0.00    +0.000 C 
ATOM     25  S   UNL     1      -0.622  11.246  21.348  0.00  0.00    +0.000 S 
ATOM     26  O   UNL     1      -1.206  12.550  21.572  0.00  0.00    +0.000 OA
ATOM     27  O   UNL     1      -0.816  10.143  22.267  0.00  0.00    +0.000 OA
ATOM     28  C   UNL     1      -1.052  10.708  19.700  0.00  0.00    +0.000 C 
ENDBRANCH  20  22
ENDBRANCH  17  19
ENDBRANCH  16  17
ENDBRANCH   1  16
TORSDOF 5
ENDMDL
MODEL 6
REMARK VINA RESULT:      -6.6      2.080      2.361
REMARK  Name = 
REMARK  5 active torsions:
REMARK  status: ('A' for Active; 'I' for Inactive)
REMARK    1  A    between atoms: C_2  and  C_3
REMARK    2  A    between atoms: C_3  and  S_4
REMARK    3  A    between atoms: S_4  and  C_5
REMARK    4  A    between atoms: C_12  and  C_13
REMARK    5  A    between atoms: N_20  and  C_21
REMARK                            x       y       z     vdW  Elec       q    Type
REMARK                         _______ _______ _______ _____ _____    ______ ____
ROOT
ATOM      1  C   UNL     1       2.406   5.191  19.660  0.00  0.00    +0.000 A 
ATOM      2  N   UNL     1       1.191   4.947  20.200  0.00  0.00    +0.000 NA
ATOM      3  C   UNL     1       0.674   3.722  20.084  0.00  0.00    +0.000 A 
ATOM      4  N   UNL     1       1.242   2.673  19.506  0.00  0.00    +0.000 NA
ATOM      5  C   UNL     1       2.442   2.949  18.968  0.00  0.00    +0.000 A 
ATOM      6  S   UNL     1       3.304   1.697  18.212  0.00  0.00    +0.000 S 
ATOM      7  C   UNL     1       4.574   2.746  17.805  0.00  0.00    +0.000 A 
ATOM      8  C   UNL     1       4.378   4.049  18.238  0.00  0.00    +0.000 A 
ATOM      9  C   UNL     1       3.106   4.177  18.964  0.00  0.00    +0.000 A 
ENDROOT
BRANCH   8  10
ATOM     10  C   UNL     1       5.424   5.046  17.942  0.00  0.00    +0.000 A 
ATOM     11  C   UNL     1       5.394   5.807  16.772  0.00  0.00    +0.000 A 
ATOM     12  C   UNL     1       6.313   6.840  16.560  0.00  0.00    +0.000 A 
ATOM     13  C   UNL     1       7.349   7.048  17.466  0.00  0.00    +0.000 A 
ATOM     14  C   UNL     1       7.465   6.222  18.578  0.00  0.00    +0.000 A 
ATOM     15  C   UNL     1       6.500   5.242  18.826  0.00  0.00    +0.000 A 
ENDBRANCH   8  10
BRANCH   1  16
ATOM     16  S   UNL     1       3.045   6.826  19.872  0.00  0.00    +0.000 S 
BRANCH  16  17
ATOM     17  C   UNL     1       2.802   7.523  18.212  0.00  0.00    +0.000 C 
BRANCH  17  19
ATOM     18  O   UNL     1       1.242   9.084  17.241  0.00  0.00    +0.000 OA
ATOM     19  C   UNL     1       1.715   8.585  18.257  0.00  0.00    +0.000 C 
ATOM     20  N   UNL     1       1.253   8.902  19.525  0.00  0.00    +0.000 N 
ATOM     21  H   UNL     1       1.649   8.383  20.305  0.00  0.00    +0.000 HD
BRANCH  20  22
ATOM     22  C   UNL     1       0.139   9.819  19.737  0.00  0.00    +0.000 C 
ATOM     23  C   UNL     1       0.587  11.287  19.866  0.00  0.00    +0.000 C 
ATOM     24  C   UNL     1       1.122  11.453  21.277  0.00  0.00    +0.000 C 
ATOM     25  S   UNL     1      -0.035  10.553  22.287  0.00  0.00    +0.000 S 
ATOM     26  O   UNL     1      -1.095  11.452  22.689  0.00  0.00    +0.000 OA
ATOM     27  O   UNL     1       0.708   9.756  23.243  0.00  0.00    +0.000 OA
ATOM     28  C   UNL     1      -0.657   9.483  21.000  0.00  0.00    +0.000 C 
ENDBRANCH  20  22
ENDBRANCH  17  19
ENDBRANCH  16  17
ENDBRANCH   1  16
TORSDOF 5
ENDMDL
MODEL 7
REMARK VINA RESULT:      -6.6      2.697      4.250
REMARK  Name = 
REMARK  5 active torsions:
REMARK  status: ('A' for Active; 'I' for Inactive)
REMARK    1  A    between atoms: C_2  and  C_3
REMARK    2  A    between atoms: C_3  and  S_4
REMARK    3  A    between atoms: S_4  and  C_5
REMARK    4  A    between atoms: C_12  and  C_13
REMARK    5  A    between atoms: N_20  and  C_21
REMARK                            x       y       z     vdW  Elec       q    Type
REMARK                         _______ _______ _______ _____ _____    ______ ____
ROOT
ATOM      1  C   UNL     1       3.878   6.495  17.359  0.00  0.00    +0.000 A 
ATOM      2  N   UNL     1       4.501   7.423  16.598  0.00  0.00    +0.000 NA
ATOM      3  C   UNL     1       5.403   7.015  15.703  0.00  0.00    +0.000 A 
ATOM      4  N   UNL     1       5.753   5.763  15.444  0.00  0.00    +0.000 NA
ATOM      5  C   UNL     1       5.128   4.865  16.224  0.00  0.00    +0.000 A 
ATOM      6  S   UNL     1       5.456   3.215  15.993  0.00  0.00    +0.000 S 
ATOM      7  C   UNL     1       4.406   2.776  17.252  0.00  0.00    +0.000 A 
ATOM      8  C   UNL     1       3.785   3.857  17.859  0.00  0.00    +0.000 A 
ATOM      9  C   UNL     1       4.193   5.122  17.229  0.00  0.00    +0.000 A 
ENDROOT
BRANCH   8  10
ATOM     10  C   UNL     1       2.847   3.591  18.965  0.00  0.00    +0.000 A 
ATOM     11  C   UNL     1       1.480   3.415  18.734  0.00  0.00    +0.000 A 
ATOM     12  C   UNL     1       0.618   3.033  19.766  0.00  0.00    +0.000 A 
ATOM     13  C   UNL     1       1.092   2.935  21.071  0.00  0.00    +0.000 A 
ATOM     14  C   UNL     1       2.425   3.223  21.341  0.00  0.00    +0.000 A 
ATOM     15  C   UNL     1       3.300   3.529  20.294  0.00  0.00    +0.000 A 
ENDBRANCH   8  10
BRANCH   1  16
ATOM     16  S   UNL     1       2.677   7.099  18.507  0.00  0.00    +0.000 S 
BRANCH  16  17
ATOM     17  C   UNL     1       2.518   8.831  17.981  0.00  0.00    +0.000 C 
BRANCH  17  19
ATOM     18  O   UNL     1       0.225   9.341  17.438  0.00  0.00    +0.000 OA
ATOM     19  C   UNL     1       1.114   9.331  18.283  0.00  0.00    +0.000 C 
ATOM     20  N   UNL     1       0.895   9.713  19.598  0.00  0.00    +0.000 N 
ATOM     21  H   UNL     1       1.669   9.600  20.248  0.00  0.00    +0.000 HD
BRANCH  20  22
ATOM     22  C   UNL     1      -0.422  10.113  20.078  0.00  0.00    +0.000 C 
ATOM     23  C   UNL     1      -0.502  11.610  20.433  0.00  0.00    +0.000 C 
ATOM     24  C   UNL     1       0.152  11.768  21.794  0.00  0.00    +0.000 C 
ATOM     25  S   UNL     1      -0.445  10.373  22.725  0.00  0.00    +0.000 S 
ATOM     26  O   UNL     1      -1.676  10.751  23.384  0.00  0.00    +0.000 OA
ATOM     27  O   UNL     1       0.668   9.786  23.444  0.00  0.00    +0.000 OA
ATOM     28  C   UNL     1      -0.843   9.336  21.327  0.00  0.00    +0.000 C 
ENDBRANCH  20  22
ENDBRANCH  17  19
ENDBRANCH  16  17
ENDBRANCH   1  16
TORSDOF 5
ENDMDL
MODEL 8
REMARK VINA RESULT:      -6.6      2.714      4.343
REMARK  Name = 
REMARK  5 active torsions:
REMARK  status: ('A' for Active; 'I' for Inactive)
REMARK    1  A    between atoms: C_2  and  C_3
REMARK    2  A    between atoms: C_3  and  S_4
REMARK    3  A    between atoms: S_4  and  C_5
REMARK    4  A    between atoms: C_12  and  C_13
REMARK    5  A    between atoms: N_20  and  C_21
REMARK                            x       y       z     vdW  Elec       q    Type
REMARK                         _______ _______ _______ _____ _____    ______ ____
ROOT
ATOM      1  C   UNL     1       3.921   6.713  17.501  0.00  0.00    +0.000 A 
ATOM      2  N   UNL     1       4.609   7.691  16.871  0.00  0.00    +0.000 NA
ATOM      3  C   UNL     1       5.599   7.347  16.045  0.00  0.00    +0.000 A 
ATOM      4  N   UNL     1       5.983   6.116  15.737  0.00  0.00    +0.000 NA
ATOM      5  C   UNL     1       5.290   5.166  16.388  0.00  0.00    +0.000 A 
ATOM      6  S   UNL     1       5.653   3.537  16.079  0.00  0.00    +0.000 S 
ATOM      7  C   UNL     1       4.487   3.011  17.194  0.00  0.00    +0.000 A 
ATOM      8  C   UNL     1       3.800   4.047  17.809  0.00  0.00    +0.000 A 
ATOM      9  C   UNL     1       4.258   5.352  17.310  0.00  0.00    +0.000 A 
ENDROOT
BRANCH   8  10
ATOM     10  C   UNL     1       2.758   3.704  18.794  0.00  0.00    +0.000 A 
ATOM     11  C   UNL     1       2.918   3.989  20.152  0.00  0.00    +0.000 A 
ATOM     12  C   UNL     1       1.874   3.781  21.060  0.00  0.00    +0.000 A 
ATOM     13  C   UNL     1       0.694   3.174  20.639  0.00  0.00    +0.000 A 
ATOM     14  C   UNL     1       0.562   2.774  19.315  0.00  0.00    +0.000 A 
ATOM     15  C   UNL     1       1.577   3.053  18.394  0.00  0.00    +0.000 A 
ENDBRANCH   8  10
BRANCH   1  16
ATOM     16  S   UNL     1       2.606   7.235  18.562  0.00  0.00    +0.000 S 
BRANCH  16  17
ATOM     17  C   UNL     1       2.162   8.833  17.820  0.00  0.00    +0.000 C 
BRANCH  17  19
ATOM     18  O   UNL     1       1.008   9.496  19.832  0.00  0.00    +0.000 OA
ATOM     19  C   UNL     1       1.020   9.462  18.605  0.00  0.00    +0.000 C 
ATOM     20  N   UNL     1       0.029  10.050  17.834  0.00  0.00    +0.000 N 
ATOM     21  H   UNL     1       0.161  10.041  16.826  0.00  0.00    +0.000 HD
BRANCH  20  22
ATOM     22  C   UNL     1      -1.077  10.790  18.430  0.00  0.00    +0.000 C 
ATOM     23  C   UNL     1      -2.258   9.885  18.828  0.00  0.00    +0.000 C 
ATOM     24  C   UNL     1      -3.019   9.580  17.550  0.00  0.00    +0.000 C 
ATOM     25  S   UNL     1      -3.055  11.136  16.685  0.00  0.00    +0.000 S 
ATOM     26  O   UNL     1      -4.234  11.866  17.096  0.00  0.00    +0.000 OA
ATOM     27  O   UNL     1      -2.738  10.898  15.291  0.00  0.00    +0.000 OA
ATOM     28  C   UNL     1      -1.632  11.860  17.487  0.00  0.00    +0.000 C 
ENDBRANCH  20  22
ENDBRANCH  17  19
ENDBRANCH  16  17
ENDBRANCH   1  16
TORSDOF 5
ENDMDL
MODEL 9
REMARK VINA RESULT:      -6.6      1.495      1.889
REMARK  Name = 
REMARK  5 active torsions:
REMARK  status: ('A' for Active; 'I' for Inactive)
REMARK    1  A    between atoms: C_2  and  C_3
REMARK    2  A    between atoms: C_3  and  S_4
REMARK    3  A    between atoms: S_4  and  C_5
REMARK    4  A    between atoms: C_12  and  C_13
REMARK    5  A    between atoms: N_20  and  C_21
REMARK                            x       y       z     vdW  Elec       q    Type
REMARK                         _______ _______ _______ _____ _____    ______ ____
ROOT
ATOM      1  C   UNL     1       2.170   4.962  19.742  0.00  0.00    +0.000 A 
ATOM      2  N   UNL     1       0.992   4.616  20.308  0.00  0.00    +0.000 NA
ATOM      3  C   UNL     1       0.617   3.336  20.271  0.00  0.00    +0.000 A 
ATOM      4  N   UNL     1       1.298   2.324  19.752  0.00  0.00    +0.000 NA
ATOM      5  C   UNL     1       2.457   2.700  19.186  0.00  0.00    +0.000 A 
ATOM      6  S   UNL     1       3.452   1.509  18.498  0.00  0.00    +0.000 S 
ATOM      7  C   UNL     1       4.595   2.668  18.015  0.00  0.00    +0.000 A 
ATOM      8  C   UNL     1       4.254   3.964  18.370  0.00  0.00    +0.000 A 
ATOM      9  C   UNL     1       2.978   3.993  19.101  0.00  0.00    +0.000 A 
ENDROOT
BRANCH   8  10
ATOM     10  C   UNL     1       5.179   5.053  18.005  0.00  0.00    +0.000 A 
ATOM     11  C   UNL     1       6.270   5.383  18.811  0.00  0.00    +0.000 A 
ATOM     12  C   UNL     1       7.216   6.325  18.394  0.00  0.00    +0.000 A 
ATOM     13  C   UNL     1       7.019   7.036  17.215  0.00  0.00    +0.000 A 
ATOM     14  C   UNL     1       5.876   6.807  16.457  0.00  0.00    +0.000 A 
ATOM     15  C   UNL     1       4.973   5.810  16.837  0.00  0.00    +0.000 A 
ENDBRANCH   8  10
BRANCH   1  16
ATOM     16  S   UNL     1       2.621   6.668  19.848  0.00  0.00    +0.000 S 
BRANCH  16  17
ATOM     17  C   UNL     1       2.033   7.294  18.247  0.00  0.00    +0.000 C 
BRANCH  17  19
ATOM     18  O   UNL     1       2.478   9.494  17.365  0.00  0.00    +0.000 OA
ATOM     19  C   UNL     1       2.005   8.814  18.271  0.00  0.00    +0.000 C 
ATOM     20  N   UNL     1       1.351   9.375  19.357  0.00  0.00    +0.000 N 
ATOM     21  H   UNL     1       0.923   8.734  20.021  0.00  0.00    +0.000 HD
BRANCH  20  22
ATOM     22  C   UNL     1       1.139  10.813  19.476  0.00  0.00    +0.000 C 
ATOM     23  C   UNL     1       0.609  11.228  20.861  0.00  0.00    +0.000 C 
ATOM     24  C   UNL     1      -0.875  10.908  20.870  0.00  0.00    +0.000 C 
ATOM     25  S   UNL     1      -1.439  11.429  19.264  0.00  0.00    +0.000 S 
ATOM     26  O   UNL     1      -1.839  12.817  19.342  0.00  0.00    +0.000 OA
ATOM     27  O   UNL     1      -2.308  10.403  18.723  0.00  0.00    +0.000 OA
ATOM     28  C   UNL     1       0.143  11.339  18.441  0.00  0.00    +0.000 C 
ENDBRANCH  20  22
ENDBRANCH  17  19
ENDBRANCH  16  17
ENDBRANCH   1  16
TORSDOF 5
ENDMDL
