MODEL 1
REMARK VINA RESULT:      -7.9      0.000      0.000
REMARK  Name = 
REMARK  4 active torsions:
REMARK  status: ('A' for Active; 'I' for Inactive)
REMARK    1  A    between atoms: C_2  and  C_4
REMARK    2  A    between atoms: C_4  and  C_5
REMARK    3  A    between atoms: C_5  and  C_6
REMARK    4  A    between atoms: N_10  and  C_11
REMARK                            x       y       z     vdW  Elec       q    Type
REMARK                         _______ _______ _______ _____ _____    ______ ____
ROOT
ATOM      1  C   UNL     1       1.628   4.655  19.088  0.00  0.00    +0.000 C 
ATOM      2  C   UNL     1       1.388   3.246  19.663  0.00  0.00    +0.000 C 
ATOM      3  C   UNL     1       2.674   2.538  20.098  0.00  0.00    +0.000 C 
ATOM      4  C   UNL     1       3.797   2.652  19.061  0.00  0.00    +0.000 C 
ATOM      5  N   UNL     1       3.982   4.081  18.707  0.00  0.00    +0.000 N 
ATOM      6  C   UNL     1       2.756   4.581  18.046  0.00  0.00    +0.000 C 
ENDROOT
BRANCH   5   7
ATOM      7  C   UNL     1       5.254   4.574  18.351  0.00  0.00    +0.000 A 
ATOM      8  C   UNL     1       6.062   5.233  19.295  0.00  0.00    +0.000 A 
ATOM      9  C   UNL     1       7.276   5.784  18.924  0.00  0.00    +0.000 A 
ATOM     10  N   UNL     1       7.736   5.794  17.666  0.00  0.00    +0.000 NA
ATOM     11  C   UNL     1       7.009   5.165  16.741  0.00  0.00    +0.000 A 
ATOM     12  C   UNL     1       7.447   5.264  15.430  0.00  0.00    +0.000 A 
ATOM     13  C   UNL     1       6.759   4.652  14.397  0.00  0.00    +0.000 A 
ATOM     14  F   UNL     1       7.136   4.857  13.130  0.00  0.00    +0.000 F 
ATOM     15  C   UNL     1       5.705   3.804  14.665  0.00  0.00    +0.000 A 
ATOM     16  C   UNL     1       5.303   3.641  15.986  0.00  0.00    +0.000 A 
ATOM     17  C   UNL     1       5.821   4.442  17.036  0.00  0.00    +0.000 A 
ENDBRANCH   5   7
BRANCH   1  18
ATOM     18  C   UNL     1       1.894   5.691  20.208  0.00  0.00    +0.000 C 
BRANCH  18  19
ATOM     19  C   UNL     1       2.360   7.059  19.699  0.00  0.00    +0.000 C 
BRANCH  19  21
ATOM     20  N   UNL     1       1.657   8.224  21.718  0.00  0.00    +0.000 N 
ATOM     21  C   UNL     1       1.626   8.208  20.359  0.00  0.00    +0.000 C 
ATOM     22  O   UNL     1       1.057   9.101  19.726  0.00  0.00    +0.000 OA
ATOM     23  H   UNL     1       1.254   9.023  22.182  0.00  0.00    +0.000 HD
ATOM     24  H   UNL     1       2.305   7.646  22.242  0.00  0.00    +0.000 HD
ENDBRANCH  19  21
ENDBRANCH  18  19
ENDBRANCH   1  18
TORSDOF 4
ENDMDL
MODEL 2
REMARK VINA RESULT:      -7.8      3.823      7.126
REMARK  Name = 
REMARK  4 active torsions:
REMARK  status: ('A' for Active; 'I' for Inactive)
REMARK    1  A    between atoms: C_2  and  C_4
REMARK    2  A    between atoms: C_4  and  C_5
REMARK    3  A    between atoms: C_5  and  C_6
REMARK    4  A    between atoms: N_10  and  C_11
REMARK                            x       y       z     vdW  Elec       q    Type
REMARK                         _______ _______ _______ _____ _____    ______ ____
ROOT
ATOM      1  C   UNL     1       5.719   5.222  15.112  0.00  0.00    +0.000 C 
ATOM      2  C   UNL     1       7.185   5.321  15.572  0.00  0.00    +0.000 C 
ATOM      3  C   UNL     1       7.499   4.459  16.798  0.00  0.00    +0.000 C 
ATOM      4  C   UNL     1       6.445   4.588  17.904  0.00  0.00    +0.000 C 
ATOM      5  N   UNL     1       5.104   4.345  17.319  0.00  0.00    +0.000 N 
ATOM      6  C   UNL     1       4.801   5.406  16.334  0.00  0.00    +0.000 C 
ENDROOT
BRANCH   5   7
ATOM      7  C   UNL     1       4.080   3.754  18.089  0.00  0.00    +0.000 A 
ATOM      8  C   UNL     1       3.781   2.385  17.964  0.00  0.00    +0.000 A 
ATOM      9  C   UNL     1       2.728   1.825  18.664  0.00  0.00    +0.000 A 
ATOM     10  N   UNL     1       1.892   2.528  19.440  0.00  0.00    +0.000 NA
ATOM     11  C   UNL     1       2.148   3.828  19.600  0.00  0.00    +0.000 A 
ATOM     12  C   UNL     1       1.223   4.560  20.326  0.00  0.00    +0.000 A 
ATOM     13  C   UNL     1       1.395   5.916  20.543  0.00  0.00    +0.000 A 
ATOM     14  F   UNL     1       0.433   6.623  21.147  0.00  0.00    +0.000 F 
ATOM     15  C   UNL     1       2.567   6.541  20.170  0.00  0.00    +0.000 A 
ATOM     16  C   UNL     1       3.534   5.795  19.504  0.00  0.00    +0.000 A 
ATOM     17  C   UNL     1       3.286   4.476  19.046  0.00  0.00    +0.000 A 
ENDBRANCH   5   7
BRANCH   1  18
ATOM     18  C   UNL     1       5.451   3.910  14.337  0.00  0.00    +0.000 C 
BRANCH  18  19
ATOM     19  C   UNL     1       6.276   3.759  13.055  0.00  0.00    +0.000 C 
BRANCH  19  21
ATOM     20  N   UNL     1       6.226   1.817  11.586  0.00  0.00    +0.000 N 
ATOM     21  C   UNL     1       5.569   2.933  11.999  0.00  0.00    +0.000 C 
ATOM     22  O   UNL     1       4.455   3.217  11.551  0.00  0.00    +0.000 OA
ATOM     23  H   UNL     1       5.742   1.201  10.952  0.00  0.00    +0.000 HD
ATOM     24  H   UNL     1       7.016   1.444  12.102  0.00  0.00    +0.000 HD
ENDBRANCH  19  21
ENDBRANCH  18  19
ENDBRANCH   1  18
TORSDOF 4
ENDMDL
MODEL 3
REMARK VINA RESULT:      -7.8      3.804      6.853
REMARK  Name = 
REMARK  4 active torsions:
REMARK  status: ('A' for Active; 'I' for Inactive)
REMARK    1  A    between atoms: C_2  and  C_4
REMARK    2  A    between atoms: C_4  and  C_5
REMARK    3  A    between atoms: C_5  and  C_6
REMARK    4  A    between atoms: N_10  and  C_11
REMARK                            x       y       z     vdW  Elec       q    Type
REMARK                         _______ _______ _______ _____ _____    ______ ____
ROOT
ATOM      1  C   UNL     1       6.068   5.278  14.674  0.00  0.00    +0.000 C 
ATOM      2  C   UNL     1       7.458   4.993  15.275  0.00  0.00    +0.000 C 
ATOM      3  C   UNL     1       7.411   4.566  16.744  0.00  0.00    +0.000 C 
ATOM      4  C   UNL     1       6.487   5.447  17.593  0.00  0.00    +0.000 C 
ATOM      5  N   UNL     1       5.157   5.517  16.939  0.00  0.00    +0.000 N 
ATOM      6  C   UNL     1       5.292   6.198  15.632  0.00  0.00    +0.000 C 
ENDROOT
BRANCH   5   7
ATOM      7  C   UNL     1       3.984   5.648  17.710  0.00  0.00    +0.000 A 
ATOM      8  C   UNL     1       3.643   6.877  18.303  0.00  0.00    +0.000 A 
ATOM      9  C   UNL     1       2.533   6.984  19.122  0.00  0.00    +0.000 A 
ATOM     10  N   UNL     1       1.756   5.947  19.461  0.00  0.00    +0.000 NA
ATOM     11  C   UNL     1       2.033   4.765  18.908  0.00  0.00    +0.000 A 
ATOM     12  C   UNL     1       1.281   3.684  19.340  0.00  0.00    +0.000 A 
ATOM     13  C   UNL     1       1.495   2.415  18.831  0.00  0.00    +0.000 A 
ATOM     14  F   UNL     1       0.837   1.370  19.346  0.00  0.00    +0.000 F 
ATOM     15  C   UNL     1       2.359   2.221  17.774  0.00  0.00    +0.000 A 
ATOM     16  C   UNL     1       3.066   3.315  17.285  0.00  0.00    +0.000 A 
ATOM     17  C   UNL     1       3.058   4.572  17.942  0.00  0.00    +0.000 A 
ENDBRANCH   5   7
BRANCH   1  18
ATOM     18  C   UNL     1       5.314   3.969  14.335  0.00  0.00    +0.000 C 
BRANCH  18  19
ATOM     19  C   UNL     1       5.067   3.758  12.838  0.00  0.00    +0.000 C 
BRANCH  19  21
ATOM     20  N   UNL     1       6.324   1.968  11.767  0.00  0.00    +0.000 N 
ATOM     21  C   UNL     1       6.304   3.286  12.102  0.00  0.00    +0.000 C 
ATOM     22  O   UNL     1       7.232   4.036  11.787  0.00  0.00    +0.000 OA
ATOM     23  H   UNL     1       7.093   1.646  11.200  0.00  0.00    +0.000 HD
ATOM     24  H   UNL     1       5.487   1.398  11.804  0.00  0.00    +0.000 HD
ENDBRANCH  19  21
ENDBRANCH  18  19
ENDBRANCH   1  18
TORSDOF 4
ENDMDL
MODEL 4
REMARK VINA RESULT:      -7.7      3.826      6.895
REMARK  Name = 
REMARK  4 active torsions:
REMARK  status: ('A' for Active; 'I' for Inactive)
REMARK    1  A    between atoms: C_2  and  C_4
REMARK    2  A    between atoms: C_4  and  C_5
REMARK    3  A    between atoms: C_5  and  C_6
REMARK    4  A    between atoms: N_10  and  C_11
REMARK                            x       y       z     vdW  Elec       q    Type
REMARK                         _______ _______ _______ _____ _____    ______ ____
ROOT
ATOM      1  C   UNL     1       6.168   5.315  14.939  0.00  0.00    +0.000 C 
ATOM      2  C   UNL     1       7.552   4.964  15.516  0.00  0.00    +0.000 C 
ATOM      3  C   UNL     1       7.510   4.544  16.988  0.00  0.00    +0.000 C 
ATOM      4  C   UNL     1       6.645   5.473  17.849  0.00  0.00    +0.000 C 
ATOM      5  N   UNL     1       5.309   5.606  17.218  0.00  0.00    +0.000 N 
ATOM      6  C   UNL     1       5.454   6.275  15.906  0.00  0.00    +0.000 C 
ENDROOT
BRANCH   5   7
ATOM      7  C   UNL     1       4.157   5.797  18.009  0.00  0.00    +0.000 A 
ATOM      8  C   UNL     1       3.470   7.024  17.999  0.00  0.00    +0.000 A 
ATOM      9  C   UNL     1       2.387   7.235  18.833  0.00  0.00    +0.000 A 
ATOM     10  N   UNL     1       1.957   6.343  19.735  0.00  0.00    +0.000 NA
ATOM     11  C   UNL     1       2.569   5.158  19.767  0.00  0.00    +0.000 A 
ATOM     12  C   UNL     1       2.179   4.282  20.767  0.00  0.00    +0.000 A 
ATOM     13  C   UNL     1       2.757   3.030  20.888  0.00  0.00    +0.000 A 
ATOM     14  F   UNL     1       2.446   2.249  21.929  0.00  0.00    +0.000 F 
ATOM     15  C   UNL     1       3.630   2.567  19.927  0.00  0.00    +0.000 A 
ATOM     16  C   UNL     1       3.973   3.414  18.877  0.00  0.00    +0.000 A 
ATOM     17  C   UNL     1       3.596   4.782  18.859  0.00  0.00    +0.000 A 
ENDBRANCH   5   7
BRANCH   1  18
ATOM     18  C   UNL     1       5.345   4.043  14.618  0.00  0.00    +0.000 C 
BRANCH  18  19
ATOM     19  C   UNL     1       5.015   3.868  13.132  0.00  0.00    +0.000 C 
BRANCH  19  21
ATOM     20  N   UNL     1       6.155   2.078  11.937  0.00  0.00    +0.000 N 
ATOM     21  C   UNL     1       6.201   3.381  12.324  0.00  0.00    +0.000 C 
ATOM     22  O   UNL     1       7.143   4.108  11.999  0.00  0.00    +0.000 OA
ATOM     23  H   UNL     1       6.885   1.751  11.324  0.00  0.00    +0.000 HD
ATOM     24  H   UNL     1       5.298   1.538  11.988  0.00  0.00    +0.000 HD
ENDBRANCH  19  21
ENDBRANCH  18  19
ENDBRANCH   1  18
TORSDOF 4
ENDMDL
MODEL 5
REMARK VINA RESULT:      -7.6      2.521      3.481
REMARK  Name = 
REMARK  4 active torsions:
REMARK  status: ('A' for Active; 'I' for Inactive)
REMARK    1  A    between atoms: C_2  and  C_4
REMARK    2  A    between atoms: C_4  and  C_5
REMARK    3  A    between atoms: C_5  and  C_6
REMARK    4  A    between atoms: N_10  and  C_11
REMARK                            x       y       z     vdW  Elec       q    Type
REMARK                         _______ _______ _______ _____ _____    ______ ____
ROOT
ATOM      1  C   UNL     1       1.986   3.978  20.284  0.00  0.00    +0.000 C 
ATOM      2  C   UNL     1       0.876   4.217  19.243  0.00  0.00    +0.000 C 
ATOM      3  C   UNL     1       1.398   4.316  17.807  0.00  0.00    +0.000 C 
ATOM      4  C   UNL     1       2.632   5.217  17.682  0.00  0.00    +0.000 C 
ATOM      5  N   UNL     1       3.650   4.776  18.667  0.00  0.00    +0.000 N 
ATOM      6  C   UNL     1       3.125   4.983  20.035  0.00  0.00    +0.000 C 
ENDROOT
BRANCH   5   7
ATOM      7  C   UNL     1       5.026   4.911  18.388  0.00  0.00    +0.000 A 
ATOM      8  C   UNL     1       5.932   5.294  19.392  0.00  0.00    +0.000 A 
ATOM      9  C   UNL     1       7.268   5.500  19.098  0.00  0.00    +0.000 A 
ATOM     10  N   UNL     1       7.779   5.420  17.862  0.00  0.00    +0.000 NA
ATOM     11  C   UNL     1       6.958   5.043  16.881  0.00  0.00    +0.000 A 
ATOM     12  C   UNL     1       7.476   5.056  15.596  0.00  0.00    +0.000 A 
ATOM     13  C   UNL     1       6.702   4.687  14.509  0.00  0.00    +0.000 A 
ATOM     14  F   UNL     1       7.188   4.818  13.269  0.00  0.00    +0.000 F 
ATOM     15  C   UNL     1       5.444   4.154  14.694  0.00  0.00    +0.000 A 
ATOM     16  C   UNL     1       4.943   4.069  15.990  0.00  0.00    +0.000 A 
ATOM     17  C   UNL     1       5.604   4.666  17.094  0.00  0.00    +0.000 A 
ENDBRANCH   5   7
BRANCH   1  18
ATOM     18  C   UNL     1       2.459   2.504  20.286  0.00  0.00    +0.000 C 
BRANCH  18  19
ATOM     19  C   UNL     1       3.412   2.153  21.434  0.00  0.00    +0.000 C 
BRANCH  19  21
ATOM     20  N   UNL     1       4.943   1.680  19.599  0.00  0.00    +0.000 N 
ATOM     21  C   UNL     1       4.748   1.630  20.944  0.00  0.00    +0.000 C 
ATOM     22  O   UNL     1       5.629   1.212  21.699  0.00  0.00    +0.000 OA
ATOM     23  H   UNL     1       5.854   1.422  19.253  0.00  0.00    +0.000 HD
ATOM     24  H   UNL     1       4.340   2.227  18.994  0.00  0.00    +0.000 HD
ENDBRANCH  19  21
ENDBRANCH  18  19
ENDBRANCH   1  18
TORSDOF 4
ENDMDL
MODEL 6
REMARK VINA RESULT:      -7.4      3.335      6.198
REMARK  Name = 
REMARK  4 active torsions:
REMARK  status: ('A' for Active; 'I' for Inactive)
REMARK    1  A    between atoms: C_2  and  C_4
REMARK    2  A    between atoms: C_4  and  C_5
REMARK    3  A    between atoms: C_5  and  C_6
REMARK    4  A    between atoms: N_10  and  C_11
REMARK                            x       y       z     vdW  Elec       q    Type
REMARK                         _______ _______ _______ _____ _____    ______ ____
ROOT
ATOM      1  C   UNL     1       7.337   5.301  17.308  0.00  0.00    +0.000 C 
ATOM      2  C   UNL     1       7.198   4.751  15.876  0.00  0.00    +0.000 C 
ATOM      3  C   UNL     1       5.791   4.914  15.294  0.00  0.00    +0.000 C 
ATOM      4  C   UNL     1       4.688   4.501  16.276  0.00  0.00    +0.000 C 
ATOM      5  N   UNL     1       4.899   5.212  17.561  0.00  0.00    +0.000 N 
ATOM      6  C   UNL     1       6.175   4.764  18.162  0.00  0.00    +0.000 C 
ENDROOT
BRANCH   5   7
ATOM      7  C   UNL     1       3.802   5.574  18.370  0.00  0.00    +0.000 A 
ATOM      8  C   UNL     1       3.379   6.912  18.455  0.00  0.00    +0.000 A 
ATOM      9  C   UNL     1       2.352   7.276  19.308  0.00  0.00    +0.000 A 
ATOM     10  N   UNL     1       1.742   6.426  20.144  0.00  0.00    +0.000 NA
ATOM     11  C   UNL     1       2.100   5.142  20.085  0.00  0.00    +0.000 A 
ATOM     12  C   UNL     1       1.530   4.293  21.018  0.00  0.00    +0.000 A 
ATOM     13  C   UNL     1       1.840   2.944  21.043  0.00  0.00    +0.000 A 
ATOM     14  F   UNL     1       1.367   2.168  22.024  0.00  0.00    +0.000 F 
ATOM     15  C   UNL     1       2.611   2.386  20.045  0.00  0.00    +0.000 A 
ATOM     16  C   UNL     1       3.130   3.221  19.060  0.00  0.00    +0.000 A 
ATOM     17  C   UNL     1       3.039   4.634  19.146  0.00  0.00    +0.000 A 
ENDBRANCH   5   7
BRANCH   1  18
ATOM     18  C   UNL     1       7.444   6.845  17.319  0.00  0.00    +0.000 C 
BRANCH  18  19
ATOM     19  C   UNL     1       8.234   7.411  18.503  0.00  0.00    +0.000 C 
BRANCH  19  21
ATOM     20  N   UNL     1       7.671   9.547  17.478  0.00  0.00    +0.000 N 
ATOM     21  C   UNL     1       8.427   8.911  18.412  0.00  0.00    +0.000 C 
ATOM     22  O   UNL     1       9.190   9.542  19.149  0.00  0.00    +0.000 OA
ATOM     23  H   UNL     1       7.712  10.554  17.456  0.00  0.00    +0.000 HD
ATOM     24  H   UNL     1       6.880   9.093  17.035  0.00  0.00    +0.000 HD
ENDBRANCH  19  21
ENDBRANCH  18  19
ENDBRANCH   1  18
TORSDOF 4
ENDMDL
MODEL 7
REMARK VINA RESULT:      -7.4      2.302      3.282
REMARK  Name = 
REMARK  4 active torsions:
REMARK  status: ('A' for Active; 'I' for Inactive)
REMARK    1  A    between atoms: C_2  and  C_4
REMARK    2  A    between atoms: C_4  and  C_5
REMARK    3  A    between atoms: C_5  and  C_6
REMARK    4  A    between atoms: N_10  and  C_11
REMARK                            x       y       z     vdW  Elec       q    Type
REMARK                         _______ _______ _______ _____ _____    ______ ____
ROOT
ATOM      1  C   UNL     1       2.242   4.555  20.595  0.00  0.00    +0.000 C 
ATOM      2  C   UNL     1       1.079   4.471  19.588  0.00  0.00    +0.000 C 
ATOM      3  C   UNL     1       1.535   4.206  18.150  0.00  0.00    +0.000 C 
ATOM      4  C   UNL     1       2.719   5.085  17.729  0.00  0.00    +0.000 C 
ATOM      5  N   UNL     1       3.797   4.955  18.740  0.00  0.00    +0.000 N 
ATOM      6  C   UNL     1       3.320   5.497  20.032  0.00  0.00    +0.000 C 
ENDROOT
BRANCH   5   7
ATOM      7  C   UNL     1       5.152   5.059  18.363  0.00  0.00    +0.000 A 
ATOM      8  C   UNL     1       6.123   5.507  19.276  0.00  0.00    +0.000 A 
ATOM      9  C   UNL     1       7.437   5.681  18.882  0.00  0.00    +0.000 A 
ATOM     10  N   UNL     1       7.867   5.508  17.625  0.00  0.00    +0.000 NA
ATOM     11  C   UNL     1       6.982   5.067  16.729  0.00  0.00    +0.000 A 
ATOM     12  C   UNL     1       7.416   4.983  15.416  0.00  0.00    +0.000 A 
ATOM     13  C   UNL     1       6.572   4.542  14.410  0.00  0.00    +0.000 A 
ATOM     14  F   UNL     1       6.976   4.579  13.135  0.00  0.00    +0.000 F 
ATOM     15  C   UNL     1       5.327   4.033  14.715  0.00  0.00    +0.000 A 
ATOM     16  C   UNL     1       4.911   4.046  16.043  0.00  0.00    +0.000 A 
ATOM     17  C   UNL     1       5.644   4.716  17.056  0.00  0.00    +0.000 A 
ENDBRANCH   5   7
BRANCH   1  18
ATOM     18  C   UNL     1       2.784   3.151  20.958  0.00  0.00    +0.000 C 
BRANCH  18  19
ATOM     19  C   UNL     1       2.500   2.077  19.903  0.00  0.00    +0.000 C 
BRANCH  19  21
ATOM     20  N   UNL     1       4.910   1.735  19.820  0.00  0.00    +0.000 N 
ATOM     21  C   UNL     1       3.740   1.677  19.129  0.00  0.00    +0.000 C 
ATOM     22  O   UNL     1       3.712   1.289  17.958  0.00  0.00    +0.000 OA
ATOM     23  H   UNL     1       5.738   1.391  19.359  0.00  0.00    +0.000 HD
ATOM     24  H   UNL     1       4.928   1.820  20.830  0.00  0.00    +0.000 HD
ENDBRANCH  19  21
ENDBRANCH  18  19
ENDBRANCH   1  18
TORSDOF 4
ENDMDL
MODEL 8
REMARK VINA RESULT:      -7.3      1.123      1.256
REMARK  Name = 
REMARK  4 active torsions:
REMARK  status: ('A' for Active; 'I' for Inactive)
REMARK    1  A    between atoms: C_2  and  C_4
REMARK    2  A    between atoms: C_4  and  C_5
REMARK    3  A    between atoms: C_5  and  C_6
REMARK    4  A    between atoms: N_10  and  C_11
REMARK                            x       y       z     vdW  Elec       q    Type
REMARK                         _______ _______ _______ _____ _____    ______ ____
ROOT
ATOM      1  C   UNL     1       1.932   3.260  18.313  0.00  0.00    +0.000 C 
ATOM      2  C   UNL     1       1.888   2.315  19.529  0.00  0.00    +0.000 C 
ATOM      3  C   UNL     1       3.079   2.485  20.477  0.00  0.00    +0.000 C 
ATOM      4  C   UNL     1       4.422   2.560  19.740  0.00  0.00    +0.000 C 
ATOM      5  N   UNL     1       4.333   3.599  18.685  0.00  0.00    +0.000 N 
ATOM      6  C   UNL     1       3.331   3.187  17.677  0.00  0.00    +0.000 C 
ENDROOT
BRANCH   5   7
ATOM      7  C   UNL     1       5.471   4.347  18.316  0.00  0.00    +0.000 A 
ATOM      8  C   UNL     1       6.144   5.147  19.257  0.00  0.00    +0.000 A 
ATOM      9  C   UNL     1       7.212   5.939  18.875  0.00  0.00    +0.000 A 
ATOM     10  N   UNL     1       7.637   6.057  17.610  0.00  0.00    +0.000 NA
ATOM     11  C   UNL     1       7.037   5.303  16.687  0.00  0.00    +0.000 A 
ATOM     12  C   UNL     1       7.422   5.505  15.372  0.00  0.00    +0.000 A 
ATOM     13  C   UNL     1       6.855   4.777  14.340  0.00  0.00    +0.000 A 
ATOM     14  F   UNL     1       7.158   5.070  13.071  0.00  0.00    +0.000 F 
ATOM     15  C   UNL     1       6.002   3.728  14.612  0.00  0.00    +0.000 A 
ATOM     16  C   UNL     1       5.666   3.470  15.937  0.00  0.00    +0.000 A 
ATOM     17  C   UNL     1       6.028   4.348  16.991  0.00  0.00    +0.000 A 
ENDBRANCH   5   7
BRANCH   1  18
ATOM     18  C   UNL     1       1.506   4.699  18.693  0.00  0.00    +0.000 C 
BRANCH  18  19
ATOM     19  C   UNL     1       2.170   5.793  17.850  0.00  0.00    +0.000 C 
BRANCH  19  21
ATOM     20  N   UNL     1       2.684   6.787  20.013  0.00  0.00    +0.000 N 
ATOM     21  C   UNL     1       2.579   6.997  18.674  0.00  0.00    +0.000 C 
ATOM     22  O   UNL     1       2.838   8.098  18.181  0.00  0.00    +0.000 OA
ATOM     23  H   UNL     1       3.040   7.544  20.574  0.00  0.00    +0.000 HD
ATOM     24  H   UNL     1       2.707   5.852  20.404  0.00  0.00    +0.000 HD
ENDBRANCH  19  21
ENDBRANCH  18  19
ENDBRANCH   1  18
TORSDOF 4
ENDMDL
MODEL 9
REMARK VINA RESULT:      -7.3      3.440      6.483
REMARK  Name = 
REMARK  4 active torsions:
REMARK  status: ('A' for Active; 'I' for Inactive)
REMARK    1  A    between atoms: C_2  and  C_4
REMARK    2  A    between atoms: C_4  and  C_5
REMARK    3  A    between atoms: C_5  and  C_6
REMARK    4  A    between atoms: N_10  and  C_11
REMARK                            x       y       z     vdW  Elec       q    Type
REMARK                         _______ _______ _______ _____ _____    ______ ____
ROOT
ATOM      1  C   UNL     1       5.928   6.344  16.347  0.00  0.00    +0.000 C 
ATOM      2  C   UNL     1       7.261   5.922  16.995  0.00  0.00    +0.000 C 
ATOM      3  C   UNL     1       7.085   5.024  18.223  0.00  0.00    +0.000 C 
ATOM      4  C   UNL     1       6.009   5.537  19.187  0.00  0.00    +0.000 C 
ATOM      5  N   UNL     1       4.758   5.776  18.427  0.00  0.00    +0.000 N 
ATOM      6  C   UNL     1       4.983   6.861  17.446  0.00  0.00    +0.000 C 
ENDROOT
BRANCH   5   7
ATOM      7  C   UNL     1       3.500   5.600  19.040  0.00  0.00    +0.000 A 
ATOM      8  C   UNL     1       3.002   6.548  19.952  0.00  0.00    +0.000 A 
ATOM      9  C   UNL     1       1.804   6.335  20.610  0.00  0.00    +0.000 A 
ATOM     10  N   UNL     1       1.077   5.216  20.489  0.00  0.00    +0.000 NA
ATOM     11  C   UNL     1       1.503   4.297  19.622  0.00  0.00    +0.000 A 
ATOM     12  C   UNL     1       0.795   3.107  19.576  0.00  0.00    +0.000 A 
ATOM     13  C   UNL     1       1.161   2.088  18.714  0.00  0.00    +0.000 A 
ATOM     14  F   UNL     1       0.533   0.908  18.770  0.00  0.00    +0.000 F 
ATOM     15  C   UNL     1       2.148   2.290  17.773  0.00  0.00    +0.000 A 
ATOM     16  C   UNL     1       2.818   3.510  17.763  0.00  0.00    +0.000 A 
ATOM     17  C   UNL     1       2.640   4.475  18.787  0.00  0.00    +0.000 A 
ENDBRANCH   5   7
BRANCH   1  18
ATOM     18  C   UNL     1       5.317   5.200  15.502  0.00  0.00    +0.000 C 
BRANCH  18  19
ATOM     19  C   UNL     1       6.333   4.150  15.040  0.00  0.00    +0.000 C 
BRANCH  19  21
ATOM     20  N   UNL     1       7.632   5.371  13.381  0.00  0.00    +0.000 N 
ATOM     21  C   UNL     1       6.764   4.348  13.601  0.00  0.00    +0.000 C 
ATOM     22  O   UNL     1       6.390   3.621  12.676  0.00  0.00    +0.000 OA
ATOM     23  H   UNL     1       8.004   5.470  12.449  0.00  0.00    +0.000 HD
ATOM     24  H   UNL     1       8.127   5.821  14.143  0.00  0.00    +0.000 HD
ENDBRANCH  19  21
ENDBRANCH  18  19
ENDBRANCH   1  18
TORSDOF 4
ENDMDL
