MODEL 1
REMARK VINA RESULT:      -8.3      0.000      0.000
REMARK  Name = 
REMARK  7 active torsions:
REMARK  status: ('A' for Active; 'I' for Inactive)
REMARK    1  A    between atoms: C_2  and  C_3
REMARK    2  A    between atoms: C_3  and  C_4
REMARK    3  A    between atoms: C_4  and  C_5
REMARK    4  A    between atoms: N_7  and  C_8
REMARK    5  A    between atoms: C_12  and  C_13
REMARK    6  A    between atoms: C_18  and  C_19
REMARK    7  A    between atoms: C_19  and  C_21
REMARK                            x       y       z     vdW  Elec       q    Type
REMARK                         _______ _______ _______ _____ _____    ______ ____
ROOT
ATOM      1  C   UNL     1       3.949   5.568  18.971  0.00  0.00    +0.000 A 
ATOM      2  C   UNL     1       3.586   4.644  19.880  0.00  0.00    +0.000 A 
ATOM      3  C   UNL     1       2.417   4.992  20.720  0.00  0.00    +0.000 A 
ATOM      4  N   UNL     1       1.741   6.097  20.669  0.00  0.00    +0.000 NA
ATOM      5  C   UNL     1       2.160   7.030  19.759  0.00  0.00    +0.000 A 
ATOM      6  C   UNL     1       1.706   8.305  19.467  0.00  0.00    +0.000 A 
ATOM      7  C   UNL     1       2.514   8.714  18.385  0.00  0.00    +0.000 A 
ATOM      8  N   UNL     1       3.447   7.824  18.050  0.00  0.00    +0.000 NA
ATOM      9  N   UNL     1       3.238   6.777  18.890  0.00  0.00    +0.000 N 
ENDROOT
BRANCH   1  14
ATOM     10  C   UNL     1       6.095   4.328  16.110  0.00  0.00    +0.000 A 
ATOM     11  C   UNL     1       7.363   4.499  16.676  0.00  0.00    +0.000 A 
ATOM     12  C   UNL     1       7.519   5.047  17.947  0.00  0.00    +0.000 A 
ATOM     13  C   UNL     1       6.401   5.429  18.677  0.00  0.00    +0.000 A 
ATOM     14  C   UNL     1       5.120   5.276  18.131  0.00  0.00    +0.000 A 
ATOM     15  C   UNL     1       4.972   4.746  16.835  0.00  0.00    +0.000 A 
BRANCH  10  18
ATOM     16  C   UNL     1       6.470   4.200  13.660  0.00  0.00    +0.000 C 
ATOM     17  O   UNL     1       7.230   5.166  13.566  0.00  0.00    +0.000 OA
ATOM     18  N   UNL     1       5.907   3.735  14.836  0.00  0.00    +0.000 N 
ATOM     19  H   UNL     1       5.445   2.836  14.813  0.00  0.00    +0.000 HD
BRANCH  16  20
ATOM     20  C   UNL     1       6.086   3.413  12.421  0.00  0.00    +0.000 C 
BRANCH  20  21
ATOM     21  C   UNL     1       4.575   3.547  12.210  0.00  0.00    +0.000 C 
BRANCH  21  23
ATOM     22  C   UNL     1       3.184   3.803  10.152  0.00  0.00    +0.000 C 
ATOM     23  C   UNL     1       4.125   3.142  10.839  0.00  0.00    +0.000 C 
ENDBRANCH  21  23
ENDBRANCH  20  21
ENDBRANCH  16  20
ENDBRANCH  10  18
ENDBRANCH   1  14
BRANCH   6  24
ATOM     24  C   UNL     1       0.606   9.064  20.045  0.00  0.00    +0.000 C 
ATOM     25  O   UNL     1      -0.019   8.587  20.992  0.00  0.00    +0.000 OA
BRANCH  24  26
ATOM     26  C   UNL     1       0.267  10.340  19.424  0.00  0.00    +0.000 A 
ATOM     27  C   UNL     1       0.873  11.582  19.520  0.00  0.00    +0.000 A 
ATOM     28  C   UNL     1       0.208  12.585  18.754  0.00  0.00    +0.000 A 
ATOM     29  C   UNL     1      -0.862  12.073  18.060  0.00  0.00    +0.000 A 
ATOM     30  S   UNL     1      -1.058  10.397  18.329  0.00  0.00    +0.000 S 
ENDBRANCH  24  26
ENDBRANCH   6  24
TORSDOF 7
ENDMDL
MODEL 2
REMARK VINA RESULT:      -8.1      1.051      1.434
REMARK  Name = 
REMARK  7 active torsions:
REMARK  status: ('A' for Active; 'I' for Inactive)
REMARK    1  A    between atoms: C_2  and  C_3
REMARK    2  A    between atoms: C_3  and  C_4
REMARK    3  A    between atoms: C_4  and  C_5
REMARK    4  A    between atoms: N_7  and  C_8
REMARK    5  A    between atoms: C_12  and  C_13
REMARK    6  A    between atoms: C_18  and  C_19
REMARK    7  A    between atoms: C_19  and  C_21
REMARK                            x       y       z     vdW  Elec       q    Type
REMARK                         _______ _______ _______ _____ _____    ______ ____
ROOT
ATOM      1  C   UNL     1       3.720   5.728  19.038  0.00  0.00    +0.000 A 
ATOM      2  C   UNL     1       3.376   4.834  19.983  0.00  0.00    +0.000 A 
ATOM      3  C   UNL     1       2.223   5.207  20.834  0.00  0.00    +0.000 A 
ATOM      4  N   UNL     1       1.544   6.308  20.760  0.00  0.00    +0.000 NA
ATOM      5  C   UNL     1       1.942   7.212  19.811  0.00  0.00    +0.000 A 
ATOM      6  C   UNL     1       1.480   8.475  19.486  0.00  0.00    +0.000 A 
ATOM      7  C   UNL     1       2.266   8.850  18.376  0.00  0.00    +0.000 A 
ATOM      8  N   UNL     1       3.194   7.951  18.053  0.00  0.00    +0.000 NA
ATOM      9  N   UNL     1       3.005   6.932  18.931  0.00  0.00    +0.000 N 
ENDROOT
BRANCH   1  14
ATOM     10  C   UNL     1       5.811   4.419  16.167  0.00  0.00    +0.000 A 
ATOM     11  C   UNL     1       7.089   4.588  16.710  0.00  0.00    +0.000 A 
ATOM     12  C   UNL     1       7.269   5.156  17.970  0.00  0.00    +0.000 A 
ATOM     13  C   UNL     1       6.165   5.561  18.710  0.00  0.00    +0.000 A 
ATOM     14  C   UNL     1       4.875   5.411  18.186  0.00  0.00    +0.000 A 
ATOM     15  C   UNL     1       4.703   4.860  16.901  0.00  0.00    +0.000 A 
BRANCH  10  18
ATOM     16  C   UNL     1       6.239   4.171  13.734  0.00  0.00    +0.000 C 
ATOM     17  O   UNL     1       7.097   5.051  13.635  0.00  0.00    +0.000 OA
ATOM     18  N   UNL     1       5.598   3.806  14.906  0.00  0.00    +0.000 N 
ATOM     19  H   UNL     1       5.046   2.959  14.896  0.00  0.00    +0.000 HD
BRANCH  16  20
ATOM     20  C   UNL     1       5.811   3.387  12.509  0.00  0.00    +0.000 C 
BRANCH  20  21
ATOM     21  C   UNL     1       7.027   3.213  11.595  0.00  0.00    +0.000 C 
BRANCH  21  23
ATOM     22  C   UNL     1       6.328   0.889  11.005  0.00  0.00    +0.000 C 
ATOM     23  C   UNL     1       7.298   1.786  11.225  0.00  0.00    +0.000 C 
ENDBRANCH  21  23
ENDBRANCH  20  21
ENDBRANCH  16  20
ENDBRANCH  10  18
ENDBRANCH   1  14
BRANCH   6  24
ATOM     24  C   UNL     1       0.389   9.252  20.061  0.00  0.00    +0.000 C 
ATOM     25  O   UNL     1       0.042   9.030  21.221  0.00  0.00    +0.000 OA
BRANCH  24  26
ATOM     26  C   UNL     1      -0.276  10.221  19.197  0.00  0.00    +0.000 A 
ATOM     27  C   UNL     1      -1.249  10.049  18.226  0.00  0.00    +0.000 A 
ATOM     28  C   UNL     1      -1.622  11.271  17.592  0.00  0.00    +0.000 A 
ATOM     29  C   UNL     1      -0.956  12.349  18.125  0.00  0.00    +0.000 A 
ATOM     30  S   UNL     1       0.106  11.888  19.381  0.00  0.00    +0.000 S 
ENDBRANCH  24  26
ENDBRANCH   6  24
TORSDOF 7
ENDMDL
MODEL 3
REMARK VINA RESULT:      -8.1      0.817      1.051
REMARK  Name = 
REMARK  7 active torsions:
REMARK  status: ('A' for Active; 'I' for Inactive)
REMARK    1  A    between atoms: C_2  and  C_3
REMARK    2  A    between atoms: C_3  and  C_4
REMARK    3  A    between atoms: C_4  and  C_5
REMARK    4  A    between atoms: N_7  and  C_8
REMARK    5  A    between atoms: C_12  and  C_13
REMARK    6  A    between atoms: C_18  and  C_19
REMARK    7  A    between atoms: C_19  and  C_21
REMARK                            x       y       z     vdW  Elec       q    Type
REMARK                         _______ _______ _______ _____ _____    ______ ____
ROOT
ATOM      1  C   UNL     1       3.799   5.836  18.905  0.00  0.00    +0.000 A 
ATOM      2  C   UNL     1       3.394   4.974  19.856  0.00  0.00    +0.000 A 
ATOM      3  C   UNL     1       2.222   5.400  20.655  0.00  0.00    +0.000 A 
ATOM      4  N   UNL     1       1.579   6.519  20.531  0.00  0.00    +0.000 NA
ATOM      5  C   UNL     1       2.040   7.389  19.579  0.00  0.00    +0.000 A 
ATOM      6  C   UNL     1       1.628   8.657  19.209  0.00  0.00    +0.000 A 
ATOM      7  C   UNL     1       2.465   8.983  18.121  0.00  0.00    +0.000 A 
ATOM      8  N   UNL     1       3.377   8.050  17.853  0.00  0.00    +0.000 NA
ATOM      9  N   UNL     1       3.124   7.058  18.745  0.00  0.00    +0.000 N 
ENDROOT
BRANCH   1  14
ATOM     10  C   UNL     1       5.967   4.282  16.219  0.00  0.00    +0.000 A 
ATOM     11  C   UNL     1       7.232   4.560  16.748  0.00  0.00    +0.000 A 
ATOM     12  C   UNL     1       7.377   5.276  17.935  0.00  0.00    +0.000 A 
ATOM     13  C   UNL     1       6.252   5.722  18.615  0.00  0.00    +0.000 A 
ATOM     14  C   UNL     1       4.974   5.465  18.103  0.00  0.00    +0.000 A 
ATOM     15  C   UNL     1       4.836   4.763  16.889  0.00  0.00    +0.000 A 
BRANCH  10  18
ATOM     16  C   UNL     1       6.279   3.874  13.791  0.00  0.00    +0.000 C 
ATOM     17  O   UNL     1       6.956   4.876  13.548  0.00  0.00    +0.000 OA
ATOM     18  N   UNL     1       5.790   3.519  15.037  0.00  0.00    +0.000 N 
ATOM     19  H   UNL     1       5.403   2.592  15.143  0.00  0.00    +0.000 HD
BRANCH  16  20
ATOM     20  C   UNL     1       5.925   2.910  12.675  0.00  0.00    +0.000 C 
BRANCH  20  21
ATOM     21  C   UNL     1       5.294   3.706  11.528  0.00  0.00    +0.000 C 
BRANCH  21  23
ATOM     22  C   UNL     1       3.213   3.750  10.148  0.00  0.00    +0.000 C 
ATOM     23  C   UNL     1       3.901   3.267  11.190  0.00  0.00    +0.000 C 
ENDBRANCH  21  23
ENDBRANCH  20  21
ENDBRANCH  16  20
ENDBRANCH  10  18
ENDBRANCH   1  14
BRANCH   6  24
ATOM     24  C   UNL     1       0.541   9.478  19.726  0.00  0.00    +0.000 C 
ATOM     25  O   UNL     1       0.386   9.570  20.943  0.00  0.00    +0.000 OA
BRANCH  24  26
ATOM     26  C   UNL     1      -0.348  10.108  18.755  0.00  0.00    +0.000 A 
ATOM     27  C   UNL     1      -1.081   9.563  17.714  0.00  0.00    +0.000 A 
ATOM     28  C   UNL     1      -1.819  10.541  16.983  0.00  0.00    +0.000 A 
ATOM     29  C   UNL     1      -1.665  11.800  17.512  0.00  0.00    +0.000 A 
ATOM     30  S   UNL     1      -0.640  11.798  18.881  0.00  0.00    +0.000 S 
ENDBRANCH  24  26
ENDBRANCH   6  24
TORSDOF 7
ENDMDL
MODEL 4
REMARK VINA RESULT:      -8.0      4.117      9.295
REMARK  Name = 
REMARK  7 active torsions:
REMARK  status: ('A' for Active; 'I' for Inactive)
REMARK    1  A    between atoms: C_2  and  C_3
REMARK    2  A    between atoms: C_3  and  C_4
REMARK    3  A    between atoms: C_4  and  C_5
REMARK    4  A    between atoms: N_7  and  C_8
REMARK    5  A    between atoms: C_12  and  C_13
REMARK    6  A    between atoms: C_18  and  C_19
REMARK    7  A    between atoms: C_19  and  C_21
REMARK                            x       y       z     vdW  Elec       q    Type
REMARK                         _______ _______ _______ _____ _____    ______ ____
ROOT
ATOM      1  C   UNL     1       0.943   9.376  19.709  0.00  0.00    +0.000 A 
ATOM      2  C   UNL     1       0.622   8.904  20.928  0.00  0.00    +0.000 A 
ATOM      3  C   UNL     1       1.230   7.604  21.296  0.00  0.00    +0.000 A 
ATOM      4  N   UNL     1       2.012   6.888  20.551  0.00  0.00    +0.000 NA
ATOM      5  C   UNL     1       2.289   7.380  19.303  0.00  0.00    +0.000 A 
ATOM      6  C   UNL     1       3.038   6.873  18.255  0.00  0.00    +0.000 A 
ATOM      7  C   UNL     1       2.988   7.889  17.278  0.00  0.00    +0.000 A 
ATOM      8  N   UNL     1       2.225   8.924  17.625  0.00  0.00    +0.000 NA
ATOM      9  N   UNL     1       1.788   8.624  18.876  0.00  0.00    +0.000 N 
ENDROOT
BRANCH   1  14
ATOM     10  C   UNL     1      -1.549  11.923  18.431  0.00  0.00    +0.000 A 
ATOM     11  C   UNL     1      -0.697  13.020  18.260  0.00  0.00    +0.000 A 
ATOM     12  C   UNL     1       0.654  12.944  18.595  0.00  0.00    +0.000 A 
ATOM     13  C   UNL     1       1.175  11.762  19.102  0.00  0.00    +0.000 A 
ATOM     14  C   UNL     1       0.343  10.651  19.291  0.00  0.00    +0.000 A 
ATOM     15  C   UNL     1      -1.027  10.743  18.976  0.00  0.00    +0.000 A 
BRANCH  10  18
ATOM     16  C   UNL     1      -3.422  11.469  16.867  0.00  0.00    +0.000 C 
ATOM     17  O   UNL     1      -2.762  10.910  15.988  0.00  0.00    +0.000 OA
ATOM     18  N   UNL     1      -2.917  11.959  18.059  0.00  0.00    +0.000 N 
ATOM     19  H   UNL     1      -3.578  12.235  18.772  0.00  0.00    +0.000 HD
BRANCH  16  20
ATOM     20  C   UNL     1      -4.916  11.659  16.688  0.00  0.00    +0.000 C 
BRANCH  20  21
ATOM     21  C   UNL     1      -5.529  12.000  18.049  0.00  0.00    +0.000 C 
BRANCH  21  23
ATOM     22  C   UNL     1      -7.685  13.257  17.967  0.00  0.00    +0.000 C 
ATOM     23  C   UNL     1      -7.025  12.094  18.025  0.00  0.00    +0.000 C 
ENDBRANCH  21  23
ENDBRANCH  20  21
ENDBRANCH  16  20
ENDBRANCH  10  18
ENDBRANCH   1  14
BRANCH   6  24
ATOM     24  C   UNL     1       3.793   5.631  18.157  0.00  0.00    +0.000 C 
ATOM     25  O   UNL     1       4.985   5.677  17.852  0.00  0.00    +0.000 OA
BRANCH  24  26
ATOM     26  C   UNL     1       3.069   4.383  18.373  0.00  0.00    +0.000 A 
ATOM     27  C   UNL     1       1.868   3.932  17.851  0.00  0.00    +0.000 A 
ATOM     28  C   UNL     1       1.499   2.644  18.339  0.00  0.00    +0.000 A 
ATOM     29  C   UNL     1       2.449   2.126  19.187  0.00  0.00    +0.000 A 
ATOM     30  S   UNL     1       3.774   3.186  19.388  0.00  0.00    +0.000 S 
ENDBRANCH  24  26
ENDBRANCH   6  24
TORSDOF 7
ENDMDL
MODEL 5
REMARK VINA RESULT:      -7.9      3.993      9.239
REMARK  Name = 
REMARK  7 active torsions:
REMARK  status: ('A' for Active; 'I' for Inactive)
REMARK    1  A    between atoms: C_2  and  C_3
REMARK    2  A    between atoms: C_3  and  C_4
REMARK    3  A    between atoms: C_4  and  C_5
REMARK    4  A    between atoms: N_7  and  C_8
REMARK    5  A    between atoms: C_12  and  C_13
REMARK    6  A    between atoms: C_18  and  C_19
REMARK    7  A    between atoms: C_19  and  C_21
REMARK                            x       y       z     vdW  Elec       q    Type
REMARK                         _______ _______ _______ _____ _____    ______ ____
ROOT
ATOM      1  C   UNL     1       0.859   9.433  19.782  0.00  0.00    +0.000 A 
ATOM      2  C   UNL     1       0.607   8.874  20.980  0.00  0.00    +0.000 A 
ATOM      3  C   UNL     1       1.287   7.585  21.244  0.00  0.00    +0.000 A 
ATOM      4  N   UNL     1       2.072   6.953  20.428  0.00  0.00    +0.000 NA
ATOM      5  C   UNL     1       2.277   7.532  19.204  0.00  0.00    +0.000 A 
ATOM      6  C   UNL     1       3.007   7.126  18.100  0.00  0.00    +0.000 A 
ATOM      7  C   UNL     1       2.873   8.196  17.191  0.00  0.00    +0.000 A 
ATOM      8  N   UNL     1       2.078   9.171  17.629  0.00  0.00    +0.000 NA
ATOM      9  N   UNL     1       1.704   8.775  18.873  0.00  0.00    +0.000 N 
ENDROOT
BRANCH   1  14
ATOM     10  C   UNL     1      -1.761  11.924  18.657  0.00  0.00    +0.000 A 
ATOM     11  C   UNL     1      -0.982  13.087  18.629  0.00  0.00    +0.000 A 
ATOM     12  C   UNL     1       0.358  13.068  19.009  0.00  0.00    +0.000 A 
ATOM     13  C   UNL     1       0.943  11.878  19.420  0.00  0.00    +0.000 A 
ATOM     14  C   UNL     1       0.185  10.702  19.466  0.00  0.00    +0.000 A 
ATOM     15  C   UNL     1      -1.176  10.733  19.106  0.00  0.00    +0.000 A 
BRANCH  10  18
ATOM     16  C   UNL     1      -3.544  11.504  16.983  0.00  0.00    +0.000 C 
ATOM     17  O   UNL     1      -2.817  11.079  16.082  0.00  0.00    +0.000 OA
ATOM     18  N   UNL     1      -3.114  11.907  18.236  0.00  0.00    +0.000 N 
ATOM     19  H   UNL     1      -3.817  12.067  18.945  0.00  0.00    +0.000 HD
BRANCH  16  20
ATOM     20  C   UNL     1      -5.040  11.612  16.762  0.00  0.00    +0.000 C 
BRANCH  20  21
ATOM     21  C   UNL     1      -5.675  12.209  18.022  0.00  0.00    +0.000 C 
BRANCH  21  23
ATOM     22  C   UNL     1      -6.792  10.230  19.057  0.00  0.00    +0.000 C 
ATOM     23  C   UNL     1      -6.872  11.448  18.506  0.00  0.00    +0.000 C 
ENDBRANCH  21  23
ENDBRANCH  20  21
ENDBRANCH  16  20
ENDBRANCH  10  18
ENDBRANCH   1  14
BRANCH   6  24
ATOM     24  C   UNL     1       3.814   5.930  17.898  0.00  0.00    +0.000 C 
ATOM     25  O   UNL     1       3.250   4.847  17.741  0.00  0.00    +0.000 OA
BRANCH  24  26
ATOM     26  C   UNL     1       5.265   6.078  17.950  0.00  0.00    +0.000 A 
ATOM     27  C   UNL     1       6.124   6.840  17.175  0.00  0.00    +0.000 A 
ATOM     28  C   UNL     1       7.491   6.686  17.548  0.00  0.00    +0.000 A 
ATOM     29  C   UNL     1       7.637   5.844  18.625  0.00  0.00    +0.000 A 
ATOM     30  S   UNL     1       6.134   5.249  19.181  0.00  0.00    +0.000 S 
ENDBRANCH  24  26
ENDBRANCH   6  24
TORSDOF 7
ENDMDL
MODEL 6
REMARK VINA RESULT:      -7.7      4.257      9.393
REMARK  Name = 
REMARK  7 active torsions:
REMARK  status: ('A' for Active; 'I' for Inactive)
REMARK    1  A    between atoms: C_2  and  C_3
REMARK    2  A    between atoms: C_3  and  C_4
REMARK    3  A    between atoms: C_4  and  C_5
REMARK    4  A    between atoms: N_7  and  C_8
REMARK    5  A    between atoms: C_12  and  C_13
REMARK    6  A    between atoms: C_18  and  C_19
REMARK    7  A    between atoms: C_19  and  C_21
REMARK                            x       y       z     vdW  Elec       q    Type
REMARK                         _______ _______ _______ _____ _____    ______ ____
ROOT
ATOM      1  C   UNL     1       0.881   9.625  19.606  0.00  0.00    +0.000 A 
ATOM      2  C   UNL     1       0.493   9.285  20.850  0.00  0.00    +0.000 A 
ATOM      3  C   UNL     1       1.021   7.997  21.359  0.00  0.00    +0.000 A 
ATOM      4  N   UNL     1       1.791   7.179  20.714  0.00  0.00    +0.000 NA
ATOM      5  C   UNL     1       2.137   7.538  19.438  0.00  0.00    +0.000 A 
ATOM      6  C   UNL     1       2.896   6.901  18.472  0.00  0.00    +0.000 A 
ATOM      7  C   UNL     1       2.932   7.823  17.405  0.00  0.00    +0.000 A 
ATOM      8  N   UNL     1       2.211   8.921  17.625  0.00  0.00    +0.000 NA
ATOM      9  N   UNL     1       1.716   8.760  18.880  0.00  0.00    +0.000 N 
ENDROOT
BRANCH   1  14
ATOM     10  C   UNL     1       0.430  13.312  18.878  0.00  0.00    +0.000 A 
ATOM     11  C   UNL     1      -0.792  13.269  18.196  0.00  0.00    +0.000 A 
ATOM     12  C   UNL     1      -1.435  12.060  17.942  0.00  0.00    +0.000 A 
ATOM     13  C   UNL     1      -0.864  10.869  18.373  0.00  0.00    +0.000 A 
ATOM     14  C   UNL     1       0.361  10.883  19.050  0.00  0.00    +0.000 A 
ATOM     15  C   UNL     1       1.019  12.107  19.280  0.00  0.00    +0.000 A 
BRANCH  10  18
ATOM     16  C   UNL     1       2.271  14.956  18.613  0.00  0.00    +0.000 C 
ATOM     17  O   UNL     1       2.897  14.351  17.740  0.00  0.00    +0.000 OA
ATOM     18  N   UNL     1       1.084  14.531  19.187  0.00  0.00    +0.000 N 
ATOM     19  H   UNL     1       0.576  15.192  19.759  0.00  0.00    +0.000 HD
BRANCH  16  20
ATOM     20  C   UNL     1       2.789  16.281  19.138  0.00  0.00    +0.000 C 
BRANCH  20  21
ATOM     21  C   UNL     1       1.796  17.380  18.746  0.00  0.00    +0.000 C 
BRANCH  21  23
ATOM     22  C   UNL     1       0.872  18.478  16.703  0.00  0.00    +0.000 C 
ATOM     23  C   UNL     1       1.768  17.663  17.275  0.00  0.00    +0.000 C 
ENDBRANCH  21  23
ENDBRANCH  20  21
ENDBRANCH  16  20
ENDBRANCH  10  18
ENDBRANCH   1  14
BRANCH   6  24
ATOM     24  C   UNL     1       3.591   5.621  18.518  0.00  0.00    +0.000 C 
ATOM     25  O   UNL     1       4.811   5.596  18.360  0.00  0.00    +0.000 OA
BRANCH  24  26
ATOM     26  C   UNL     1       2.780   4.421  18.696  0.00  0.00    +0.000 A 
ATOM     27  C   UNL     1       1.621   4.010  18.058  0.00  0.00    +0.000 A 
ATOM     28  C   UNL     1       1.132   2.763  18.546  0.00  0.00    +0.000 A 
ATOM     29  C   UNL     1       1.953   2.233  19.513  0.00  0.00    +0.000 A 
ATOM     30  S   UNL     1       3.303   3.233  19.824  0.00  0.00    +0.000 S 
ENDBRANCH  24  26
ENDBRANCH   6  24
TORSDOF 7
ENDMDL
MODEL 7
REMARK VINA RESULT:      -7.7      2.589      4.229
REMARK  Name = 
REMARK  7 active torsions:
REMARK  status: ('A' for Active; 'I' for Inactive)
REMARK    1  A    between atoms: C_2  and  C_3
REMARK    2  A    between atoms: C_3  and  C_4
REMARK    3  A    between atoms: C_4  and  C_5
REMARK    4  A    between atoms: N_7  and  C_8
REMARK    5  A    between atoms: C_12  and  C_13
REMARK    6  A    between atoms: C_18  and  C_19
REMARK    7  A    between atoms: C_19  and  C_21
REMARK                            x       y       z     vdW  Elec       q    Type
REMARK                         _______ _______ _______ _____ _____    ______ ____
ROOT
ATOM      1  C   UNL     1       1.558   7.839  20.458  0.00  0.00    +0.000 A 
ATOM      2  C   UNL     1       1.208   8.059  21.739  0.00  0.00    +0.000 A 
ATOM      3  C   UNL     1       0.740   9.429  22.053  0.00  0.00    +0.000 A 
ATOM      4  N   UNL     1       0.661  10.419  21.220  0.00  0.00    +0.000 NA
ATOM      5  C   UNL     1       1.059  10.171  19.934  0.00  0.00    +0.000 A 
ATOM      6  C   UNL     1       1.141  10.986  18.819  0.00  0.00    +0.000 A 
ATOM      7  C   UNL     1       1.556  10.115  17.790  0.00  0.00    +0.000 A 
ATOM      8  N   UNL     1       1.790   8.872  18.206  0.00  0.00    +0.000 NA
ATOM      9  N   UNL     1       1.484   8.891  19.530  0.00  0.00    +0.000 N 
ENDROOT
BRANCH   1  14
ATOM     10  C   UNL     1       3.454   5.050  18.739  0.00  0.00    +0.000 A 
ATOM     11  C   UNL     1       2.783   3.945  19.274  0.00  0.00    +0.000 A 
ATOM     12  C   UNL     1       1.761   4.104  20.208  0.00  0.00    +0.000 A 
ATOM     13  C   UNL     1       1.391   5.377  20.618  0.00  0.00    +0.000 A 
ATOM     14  C   UNL     1       2.052   6.500  20.105  0.00  0.00    +0.000 A 
ATOM     15  C   UNL     1       3.102   6.331  19.182  0.00  0.00    +0.000 A 
BRANCH  10  18
ATOM     16  C   UNL     1       5.795   4.632  18.028  0.00  0.00    +0.000 C 
ATOM     17  O   UNL     1       6.265   4.421  19.148  0.00  0.00    +0.000 OA
ATOM     18  N   UNL     1       4.468   4.920  17.756  0.00  0.00    +0.000 N 
ATOM     19  H   UNL     1       4.170   4.899  16.790  0.00  0.00    +0.000 HD
BRANCH  16  20
ATOM     20  C   UNL     1       6.694   4.581  16.807  0.00  0.00    +0.000 C 
BRANCH  20  21
ATOM     21  C   UNL     1       5.979   3.785  15.711  0.00  0.00    +0.000 C 
BRANCH  21  23
ATOM     22  C   UNL     1       5.975   3.713  13.215  0.00  0.00    +0.000 C 
ATOM     23  C   UNL     1       6.082   4.411  14.353  0.00  0.00    +0.000 C 
ENDBRANCH  21  23
ENDBRANCH  20  21
ENDBRANCH  16  20
ENDBRANCH  10  18
ENDBRANCH   1  14
BRANCH   6  24
ATOM     24  C   UNL     1       0.809  12.396  18.661  0.00  0.00    +0.000 C 
ATOM     25  O   UNL     1      -0.324  12.707  18.296  0.00  0.00    +0.000 OA
BRANCH  24  26
ATOM     26  C   UNL     1       1.872  13.369  18.894  0.00  0.00    +0.000 A 
ATOM     27  C   UNL     1       3.036  13.623  18.187  0.00  0.00    +0.000 A 
ATOM     28  C   UNL     1       3.822  14.661  18.767  0.00  0.00    +0.000 A 
ATOM     29  C   UNL     1       3.217  15.203  19.876  0.00  0.00    +0.000 A 
ATOM     30  S   UNL     1       1.712  14.465  20.209  0.00  0.00    +0.000 S 
ENDBRANCH  24  26
ENDBRANCH   6  24
TORSDOF 7
ENDMDL
MODEL 8
REMARK VINA RESULT:      -7.7      4.071      9.478
REMARK  Name = 
REMARK  7 active torsions:
REMARK  status: ('A' for Active; 'I' for Inactive)
REMARK    1  A    between atoms: C_2  and  C_3
REMARK    2  A    between atoms: C_3  and  C_4
REMARK    3  A    between atoms: C_4  and  C_5
REMARK    4  A    between atoms: N_7  and  C_8
REMARK    5  A    between atoms: C_12  and  C_13
REMARK    6  A    between atoms: C_18  and  C_19
REMARK    7  A    between atoms: C_19  and  C_21
REMARK                            x       y       z     vdW  Elec       q    Type
REMARK                         _______ _______ _______ _____ _____    ______ ____
ROOT
ATOM      1  C   UNL     1       0.909   9.499  19.705  0.00  0.00    +0.000 A 
ATOM      2  C   UNL     1       0.575   9.074  20.938  0.00  0.00    +0.000 A 
ATOM      3  C   UNL     1       1.168   7.783  21.357  0.00  0.00    +0.000 A 
ATOM      4  N   UNL     1       1.949   7.034  20.643  0.00  0.00    +0.000 NA
ATOM      5  C   UNL     1       2.240   7.478  19.381  0.00  0.00    +0.000 A 
ATOM      6  C   UNL     1       2.992   6.928  18.358  0.00  0.00    +0.000 A 
ATOM      7  C   UNL     1       2.959   7.909  17.345  0.00  0.00    +0.000 A 
ATOM      8  N   UNL     1       2.203   8.962  17.649  0.00  0.00    +0.000 NA
ATOM      9  N   UNL     1       1.754   8.711  18.906  0.00  0.00    +0.000 N 
ENDROOT
BRANCH   1  14
ATOM     10  C   UNL     1      -1.524  12.007  18.248  0.00  0.00    +0.000 A 
ATOM     11  C   UNL     1      -0.674  13.111  18.118  0.00  0.00    +0.000 A 
ATOM     12  C   UNL     1       0.654  13.052  18.536  0.00  0.00    +0.000 A 
ATOM     13  C   UNL     1       1.155  11.881  19.087  0.00  0.00    +0.000 A 
ATOM     14  C   UNL     1       0.323  10.764  19.237  0.00  0.00    +0.000 A 
ATOM     15  C   UNL     1      -1.025  10.838  18.837  0.00  0.00    +0.000 A 
BRANCH  10  18
ATOM     16  C   UNL     1      -3.974  12.173  18.612  0.00  0.00    +0.000 C 
ATOM     17  O   UNL     1      -3.941  12.339  19.833  0.00  0.00    +0.000 OA
ATOM     18  N   UNL     1      -2.867  12.025  17.793  0.00  0.00    +0.000 N 
ATOM     19  H   UNL     1      -3.012  12.073  16.794  0.00  0.00    +0.000 HD
BRANCH  16  20
ATOM     20  C   UNL     1      -5.306  12.123  17.890  0.00  0.00    +0.000 C 
BRANCH  20  21
ATOM     21  C   UNL     1      -5.960  10.767  18.171  0.00  0.00    +0.000 C 
BRANCH  21  23
ATOM     22  C   UNL     1      -7.113  10.949  20.379  0.00  0.00    +0.000 C 
ATOM     23  C   UNL     1      -7.175  10.859  19.044  0.00  0.00    +0.000 C 
ENDBRANCH  21  23
ENDBRANCH  20  21
ENDBRANCH  16  20
ENDBRANCH  10  18
ENDBRANCH   1  14
BRANCH   6  24
ATOM     24  C   UNL     1       3.738   5.676  18.311  0.00  0.00    +0.000 C 
ATOM     25  O   UNL     1       4.904   5.689  17.919  0.00  0.00    +0.000 OA
BRANCH  24  26
ATOM     26  C   UNL     1       3.030   4.456  18.681  0.00  0.00    +0.000 A 
ATOM     27  C   UNL     1       3.260   3.553  19.706  0.00  0.00    +0.000 A 
ATOM     28  C   UNL     1       2.333   2.469  19.709  0.00  0.00    +0.000 A 
ATOM     29  C   UNL     1       1.393   2.595  18.714  0.00  0.00    +0.000 A 
ATOM     30  S   UNL     1       1.628   4.012  17.788  0.00  0.00    +0.000 S 
ENDBRANCH  24  26
ENDBRANCH   6  24
TORSDOF 7
ENDMDL
MODEL 9
REMARK VINA RESULT:      -7.7      4.482      9.517
REMARK  Name = 
REMARK  7 active torsions:
REMARK  status: ('A' for Active; 'I' for Inactive)
REMARK    1  A    between atoms: C_2  and  C_3
REMARK    2  A    between atoms: C_3  and  C_4
REMARK    3  A    between atoms: C_4  and  C_5
REMARK    4  A    between atoms: N_7  and  C_8
REMARK    5  A    between atoms: C_12  and  C_13
REMARK    6  A    between atoms: C_18  and  C_19
REMARK    7  A    between atoms: C_19  and  C_21
REMARK                            x       y       z     vdW  Elec       q    Type
REMARK                         _______ _______ _______ _____ _____    ______ ____
ROOT
ATOM      1  C   UNL     1       0.814   9.794  19.834  0.00  0.00    +0.000 A 
ATOM      2  C   UNL     1       0.379   9.595  21.092  0.00  0.00    +0.000 A 
ATOM      3  C   UNL     1       0.827   8.339  21.738  0.00  0.00    +0.000 A 
ATOM      4  N   UNL     1       1.572   7.426  21.198  0.00  0.00    +0.000 NA
ATOM      5  C   UNL     1       1.968   7.643  19.905  0.00  0.00    +0.000 A 
ATOM      6  C   UNL     1       2.718   6.880  19.027  0.00  0.00    +0.000 A 
ATOM      7  C   UNL     1       2.827   7.691  17.878  0.00  0.00    +0.000 A 
ATOM      8  N   UNL     1       2.157   8.838  17.971  0.00  0.00    +0.000 NA
ATOM      9  N   UNL     1       1.623   8.823  19.219  0.00  0.00    +0.000 N 
ENDROOT
BRANCH   1  14
ATOM     10  C   UNL     1       0.728  13.345  18.524  0.00  0.00    +0.000 A 
ATOM     11  C   UNL     1      -0.590  13.391  18.058  0.00  0.00    +0.000 A 
ATOM     12  C   UNL     1      -1.422  12.275  18.130  0.00  0.00    +0.000 A 
ATOM     13  C   UNL     1      -0.945  11.092  18.678  0.00  0.00    +0.000 A 
ATOM     14  C   UNL     1       0.373  11.015  19.145  0.00  0.00    +0.000 A 
ATOM     15  C   UNL     1       1.217  12.139  19.044  0.00  0.00    +0.000 A 
BRANCH  10  18
ATOM     16  C   UNL     1       1.538  15.514  19.418  0.00  0.00    +0.000 C 
ATOM     17  O   UNL     1       0.780  15.578  20.387  0.00  0.00    +0.000 OA
ATOM     18  N   UNL     1       1.582  14.476  18.501  0.00  0.00    +0.000 N 
ATOM     19  H   UNL     1       2.360  14.451  17.856  0.00  0.00    +0.000 HD
BRANCH  16  20
ATOM     20  C   UNL     1       2.532  16.630  19.157  0.00  0.00    +0.000 C 
BRANCH  20  21
ATOM     21  C   UNL     1       2.365  17.099  17.708  0.00  0.00    +0.000 C 
BRANCH  21  23
ATOM     22  C   UNL     1       0.772  18.419  16.310  0.00  0.00    +0.000 C 
ATOM     23  C   UNL     1       1.223  18.051  17.515  0.00  0.00    +0.000 C 
ENDBRANCH  21  23
ENDBRANCH  20  21
ENDBRANCH  16  20
ENDBRANCH  10  18
ENDBRANCH   1  14
BRANCH   6  24
ATOM     24  C   UNL     1       3.345   5.578  19.216  0.00  0.00    +0.000 C 
ATOM     25  O   UNL     1       4.573   5.497  19.192  0.00  0.00    +0.000 OA
BRANCH  24  26
ATOM     26  C   UNL     1       2.468   4.423  19.369  0.00  0.00    +0.000 A 
ATOM     27  C   UNL     1       1.931   3.838  20.505  0.00  0.00    +0.000 A 
ATOM     28  C   UNL     1       1.126   2.698  20.215  0.00  0.00    +0.000 A 
ATOM     29  C   UNL     1       1.032   2.467  18.863  0.00  0.00    +0.000 A 
ATOM     30  S   UNL     1       1.908   3.621  17.955  0.00  0.00    +0.000 S 
ENDBRANCH  24  26
ENDBRANCH   6  24
TORSDOF 7
ENDMDL
