MODEL 1
REMARK VINA RESULT:      -8.2      0.000      0.000
REMARK  Name = 
REMARK  7 active torsions:
REMARK  status: ('A' for Active; 'I' for Inactive)
REMARK    1  A    between atoms: C_2  and  C_4
REMARK    2  A    between atoms: C_11  and  C_13
REMARK    3  A    between atoms: C_16  and  C_17
REMARK    4  A    between atoms: C_17  and  O_18
REMARK    5  A    between atoms: C_22  and  O_23
REMARK    6  A    between atoms: O_23  and  C_24
REMARK    7  A    between atoms: C_24  and  C_25
REMARK                            x       y       z     vdW  Elec       q    Type
REMARK                         _______ _______ _______ _____ _____    ______ ____
ROOT
ATOM      1  C   UNL     1       2.919   6.770  18.919  0.00  0.00    +0.000 A 
ATOM      2  C   UNL     1       2.841   7.461  17.735  0.00  0.00    +0.000 A 
ATOM      3  C   UNL     1       2.194   8.696  17.752  0.00  0.00    +0.000 A 
ATOM      4  C   UNL     1       1.572   9.253  18.912  0.00  0.00    +0.000 A 
ATOM      5  C   UNL     1       1.674   8.421  20.047  0.00  0.00    +0.000 A 
ATOM      6  N   UNL     1       2.359   7.236  20.052  0.00  0.00    +0.000 NA
ENDROOT
BRANCH   1  14
ATOM      7  C   UNL     1       3.546   2.993  19.595  0.00  0.00    +0.000 C 
ATOM      8  C   UNL     1       2.818   2.303  20.748  0.00  0.00    +0.000 C 
ATOM      9  C   UNL     1       1.438   2.918  20.691  0.00  0.00    +0.000 C 
ATOM     10  F   UNL     1       0.821   2.843  21.887  0.00  0.00    +0.000 F 
ATOM     11  F   UNL     1       0.659   2.284  19.788  0.00  0.00    +0.000 F 
ATOM     12  C   UNL     1       1.682   4.359  20.267  0.00  0.00    +0.000 C 
ATOM     13  N   UNL     1       2.934   4.328  19.513  0.00  0.00    +0.000 N 
ATOM     14  C   UNL     1       3.584   5.419  18.951  0.00  0.00    +0.000 C 
ATOM     15  O   UNL     1       4.722   5.296  18.469  0.00  0.00    +0.000 OA
BRANCH   7  17
ATOM     16  N   UNL     1       3.911   0.929  18.317  0.00  0.00    +0.000 N 
ATOM     17  C   UNL     1       3.421   2.202  18.274  0.00  0.00    +0.000 C 
ATOM     18  O   UNL     1       2.822   2.604  17.281  0.00  0.00    +0.000 OA
ATOM     19  H   UNL     1       3.799   0.335  17.507  0.00  0.00    +0.000 HD
ATOM     20  H   UNL     1       4.274   0.534  19.181  0.00  0.00    +0.000 HD
ENDBRANCH   7  17
ENDBRANCH   1  14
BRANCH   4  21
ATOM     21  C   UNL     1       0.818  10.696  18.664  0.00  0.00    +0.000 C 
ATOM     22  C   UNL     1       1.828  11.880  18.346  0.00  0.00    +0.000 C 
ATOM     23  C   UNL     1       0.810  12.849  18.963  0.00  0.00    +0.000 C 
ATOM     24  C   UNL     1       0.318  11.663  19.796  0.00  0.00    +0.000 C 
BRANCH  21  25
ATOM     25  O   UNL     1      -0.208  10.523  17.641  0.00  0.00    +0.000 OA
ATOM     26  H   UNL     1      -0.036   9.658  17.240  0.00  0.00    +0.000 HD
ENDBRANCH  21  25
ENDBRANCH   4  21
BRANCH   5  27
ATOM     27  O   UNL     1       1.156   8.622  21.291  0.00  0.00    +0.000 OA
BRANCH  27  28
ATOM     28  C   UNL     1      -0.223   8.373  21.484  0.00  0.00    +0.000 C 
BRANCH  28  29
ATOM     29  C   UNL     1      -0.793   8.966  22.733  0.00  0.00    +0.000 C 
ATOM     30  C   UNL     1       0.077   9.586  23.784  0.00  0.00    +0.000 C 
ATOM     31  C   UNL     1      -0.882  10.444  23.000  0.00  0.00    +0.000 C 
ENDBRANCH  28  29
ENDBRANCH  27  28
ENDBRANCH   5  27
TORSDOF 7
ENDMDL
MODEL 2
REMARK VINA RESULT:      -8.2      3.578      7.587
REMARK  Name = 
REMARK  7 active torsions:
REMARK  status: ('A' for Active; 'I' for Inactive)
REMARK    1  A    between atoms: C_2  and  C_4
REMARK    2  A    between atoms: C_11  and  C_13
REMARK    3  A    between atoms: C_16  and  C_17
REMARK    4  A    between atoms: C_17  and  O_18
REMARK    5  A    between atoms: C_22  and  O_23
REMARK    6  A    between atoms: O_23  and  C_24
REMARK    7  A    between atoms: C_24  and  C_25
REMARK                            x       y       z     vdW  Elec       q    Type
REMARK                         _______ _______ _______ _____ _____    ______ ____
ROOT
ATOM      1  C   UNL     1       1.627   9.119  18.697  0.00  0.00    +0.000 A 
ATOM      2  C   UNL     1       2.448   8.947  17.610  0.00  0.00    +0.000 A 
ATOM      3  C   UNL     1       3.148   7.745  17.516  0.00  0.00    +0.000 A 
ATOM      4  C   UNL     1       3.095   6.713  18.504  0.00  0.00    +0.000 A 
ATOM      5  C   UNL     1       2.260   7.035  19.595  0.00  0.00    +0.000 A 
ATOM      6  N   UNL     1       1.525   8.187  19.665  0.00  0.00    +0.000 NA
ENDROOT
BRANCH   1  14
ATOM      7  C   UNL     1      -1.193  11.785  18.463  0.00  0.00    +0.000 C 
ATOM      8  C   UNL     1      -2.208  11.711  17.324  0.00  0.00    +0.000 C 
ATOM      9  C   UNL     1      -2.458  10.224  17.193  0.00  0.00    +0.000 C 
ATOM     10  F   UNL     1      -2.901   9.912  15.958  0.00  0.00    +0.000 F 
ATOM     11  F   UNL     1      -3.387   9.807  18.080  0.00  0.00    +0.000 F 
ATOM     12  C   UNL     1      -1.109   9.586  17.491  0.00  0.00    +0.000 C 
ATOM     13  N   UNL     1      -0.417  10.541  18.355  0.00  0.00    +0.000 N 
ATOM     14  C   UNL     1       0.869  10.409  18.862  0.00  0.00    +0.000 C 
ATOM     15  O   UNL     1       1.412  11.356  19.456  0.00  0.00    +0.000 OA
BRANCH   7  17
ATOM     16  N   UNL     1      -3.022  12.681  19.833  0.00  0.00    +0.000 N 
ATOM     17  C   UNL     1      -1.877  11.939  19.840  0.00  0.00    +0.000 C 
ATOM     18  O   UNL     1      -1.522  11.353  20.858  0.00  0.00    +0.000 OA
ATOM     19  H   UNL     1      -3.555  12.765  20.688  0.00  0.00    +0.000 HD
ATOM     20  H   UNL     1      -3.408  13.046  18.966  0.00  0.00    +0.000 HD
ENDBRANCH   7  17
ENDBRANCH   1  14
BRANCH   4  21
ATOM     21  C   UNL     1       4.058   5.414  18.196  0.00  0.00    +0.000 C 
ATOM     22  C   UNL     1       4.978   5.608  16.915  0.00  0.00    +0.000 C 
ATOM     23  C   UNL     1       4.952   4.085  16.725  0.00  0.00    +0.000 C 
ATOM     24  C   UNL     1       3.605   4.106  17.454  0.00  0.00    +0.000 C 
BRANCH  21  25
ATOM     25  O   UNL     1       4.812   5.089  19.402  0.00  0.00    +0.000 OA
ATOM     26  H   UNL     1       5.400   4.359  19.157  0.00  0.00    +0.000 HD
ENDBRANCH  21  25
ENDBRANCH   4  21
BRANCH   5  27
ATOM     27  O   UNL     1       2.023   6.306  20.721  0.00  0.00    +0.000 OA
BRANCH  27  28
ATOM     28  C   UNL     1       1.260   5.122  20.597  0.00  0.00    +0.000 C 
BRANCH  28  29
ATOM     29  C   UNL     1       2.022   3.861  20.862  0.00  0.00    +0.000 C 
ATOM     30  C   UNL     1       1.444   2.744  21.676  0.00  0.00    +0.000 C 
ATOM     31  C   UNL     1       1.718   2.541  20.209  0.00  0.00    +0.000 C 
ENDBRANCH  28  29
ENDBRANCH  27  28
ENDBRANCH   5  27
TORSDOF 7
ENDMDL
MODEL 3
REMARK VINA RESULT:      -8.1      2.048      3.523
REMARK  Name = 
REMARK  7 active torsions:
REMARK  status: ('A' for Active; 'I' for Inactive)
REMARK    1  A    between atoms: C_2  and  C_4
REMARK    2  A    between atoms: C_11  and  C_13
REMARK    3  A    between atoms: C_16  and  C_17
REMARK    4  A    between atoms: C_17  and  O_18
REMARK    5  A    between atoms: C_22  and  O_23
REMARK    6  A    between atoms: O_23  and  C_24
REMARK    7  A    between atoms: C_24  and  C_25
REMARK                            x       y       z     vdW  Elec       q    Type
REMARK                         _______ _______ _______ _____ _____    ______ ____
ROOT
ATOM      1  C   UNL     1       1.675   8.044  19.829  0.00  0.00    +0.000 A 
ATOM      2  C   UNL     1       1.448   8.049  21.183  0.00  0.00    +0.000 A 
ATOM      3  C   UNL     1       0.740   9.126  21.713  0.00  0.00    +0.000 A 
ATOM      4  C   UNL     1       0.287  10.239  20.939  0.00  0.00    +0.000 A 
ATOM      5  C   UNL     1       0.632  10.140  19.574  0.00  0.00    +0.000 A 
ATOM      6  N   UNL     1       1.274   9.058  19.037  0.00  0.00    +0.000 NA
ENDROOT
BRANCH   1  14
ATOM      7  C   UNL     1       3.018   4.474  19.079  0.00  0.00    +0.000 C 
ATOM      8  C   UNL     1       2.955   3.401  20.165  0.00  0.00    +0.000 C 
ATOM      9  C   UNL     1       1.617   3.665  20.821  0.00  0.00    +0.000 C 
ATOM     10  F   UNL     1       1.592   3.192  22.083  0.00  0.00    +0.000 F 
ATOM     11  F   UNL     1       0.615   3.067  20.140  0.00  0.00    +0.000 F 
ATOM     12  C   UNL     1       1.465   5.178  20.777  0.00  0.00    +0.000 C 
ATOM     13  N   UNL     1       2.262   5.609  19.629  0.00  0.00    +0.000 N 
ATOM     14  C   UNL     1       2.458   6.917  19.208  0.00  0.00    +0.000 C 
ATOM     15  O   UNL     1       3.282   7.176  18.316  0.00  0.00    +0.000 OA
BRANCH   7  17
ATOM     16  N   UNL     1       3.274   3.173  17.012  0.00  0.00    +0.000 N 
ATOM     17  C   UNL     1       2.439   3.973  17.736  0.00  0.00    +0.000 C 
ATOM     18  O   UNL     1       1.281   4.153  17.372  0.00  0.00    +0.000 OA
ATOM     19  H   UNL     1       2.933   2.757  16.156  0.00  0.00    +0.000 HD
ATOM     20  H   UNL     1       4.182   2.894  17.376  0.00  0.00    +0.000 HD
ENDBRANCH   7  17
ENDBRANCH   1  14
BRANCH   4  21
ATOM     21  C   UNL     1      -0.473  11.417  21.804  0.00  0.00    +0.000 C 
ATOM     22  C   UNL     1      -1.117  10.882  23.154  0.00  0.00    +0.000 C 
ATOM     23  C   UNL     1      -2.163  12.000  23.041  0.00  0.00    +0.000 C 
ATOM     24  C   UNL     1      -1.925  11.948  21.529  0.00  0.00    +0.000 C 
BRANCH  21  25
ATOM     25  O   UNL     1       0.454  12.525  22.007  0.00  0.00    +0.000 OA
ATOM     26  H   UNL     1       0.016  13.305  21.633  0.00  0.00    +0.000 HD
ENDBRANCH  21  25
ENDBRANCH   4  21
BRANCH   5  27
ATOM     27  O   UNL     1       0.400  11.039  18.577  0.00  0.00    +0.000 OA
BRANCH  27  28
ATOM     28  C   UNL     1      -0.938  11.243  18.165  0.00  0.00    +0.000 C 
BRANCH  28  29
ATOM     29  C   UNL     1      -1.588  10.046  17.549  0.00  0.00    +0.000 C 
ATOM     30  C   UNL     1      -3.065   9.808  17.647  0.00  0.00    +0.000 C 
ATOM     31  C   UNL     1      -2.437  10.094  16.307  0.00  0.00    +0.000 C 
ENDBRANCH  28  29
ENDBRANCH  27  28
ENDBRANCH   5  27
TORSDOF 7
ENDMDL
MODEL 4
REMARK VINA RESULT:      -7.9      2.954      7.747
REMARK  Name = 
REMARK  7 active torsions:
REMARK  status: ('A' for Active; 'I' for Inactive)
REMARK    1  A    between atoms: C_2  and  C_4
REMARK    2  A    between atoms: C_11  and  C_13
REMARK    3  A    between atoms: C_16  and  C_17
REMARK    4  A    between atoms: C_17  and  O_18
REMARK    5  A    between atoms: C_22  and  O_23
REMARK    6  A    between atoms: O_23  and  C_24
REMARK    7  A    between atoms: C_24  and  C_25
REMARK                            x       y       z     vdW  Elec       q    Type
REMARK                         _______ _______ _______ _____ _____    ______ ____
ROOT
ATOM      1  C   UNL     1       2.403   7.546  18.387  0.00  0.00    +0.000 A 
ATOM      2  C   UNL     1       1.814   6.479  19.021  0.00  0.00    +0.000 A 
ATOM      3  C   UNL     1       2.435   5.237  18.900  0.00  0.00    +0.000 A 
ATOM      4  C   UNL     1       3.610   5.007  18.120  0.00  0.00    +0.000 A 
ATOM      5  C   UNL     1       4.083   6.170  17.476  0.00  0.00    +0.000 A 
ATOM      6  N   UNL     1       3.513   7.404  17.638  0.00  0.00    +0.000 NA
ENDROOT
BRANCH   1  14
ATOM      7  C   UNL     1       0.456  10.624  19.747  0.00  0.00    +0.000 C 
ATOM      8  C   UNL     1      -0.566  10.435  20.867  0.00  0.00    +0.000 C 
ATOM      9  C   UNL     1       0.101   9.413  21.761  0.00  0.00    +0.000 C 
ATOM     10  F   UNL     1      -0.809   8.743  22.496  0.00  0.00    +0.000 F 
ATOM     11  F   UNL     1       0.964  10.004  22.615  0.00  0.00    +0.000 F 
ATOM     12  C   UNL     1       0.843   8.496  20.800  0.00  0.00    +0.000 C 
ATOM     13  N   UNL     1       1.124   9.320  19.626  0.00  0.00    +0.000 N 
ATOM     14  C   UNL     1       1.759   8.905  18.463  0.00  0.00    +0.000 C 
ATOM     15  O   UNL     1       1.803   9.649  17.469  0.00  0.00    +0.000 OA
BRANCH   7  17
ATOM     16  N   UNL     1       2.059  12.308  18.958  0.00  0.00    +0.000 N 
ATOM     17  C   UNL     1       1.446  11.771  20.052  0.00  0.00    +0.000 C 
ATOM     18  O   UNL     1       1.601  12.273  21.161  0.00  0.00    +0.000 OA
ATOM     19  H   UNL     1       2.668  13.106  19.082  0.00  0.00    +0.000 HD
ATOM     20  H   UNL     1       1.823  11.999  18.018  0.00  0.00    +0.000 HD
ENDBRANCH   7  17
ENDBRANCH   1  14
BRANCH   4  21
ATOM     21  C   UNL     1       4.118   3.441  18.085  0.00  0.00    +0.000 C 
ATOM     22  C   UNL     1       2.962   2.417  17.714  0.00  0.00    +0.000 C 
ATOM     23  C   UNL     1       3.704   1.355  18.535  0.00  0.00    +0.000 C 
ATOM     24  C   UNL     1       4.292   2.516  19.343  0.00  0.00    +0.000 C 
BRANCH  21  25
ATOM     25  O   UNL     1       5.279   3.341  17.206  0.00  0.00    +0.000 OA
ATOM     26  H   UNL     1       5.278   4.153  16.677  0.00  0.00    +0.000 HD
ENDBRANCH  21  25
ENDBRANCH   4  21
BRANCH   5  27
ATOM     27  O   UNL     1       5.142   6.295  16.627  0.00  0.00    +0.000 OA
BRANCH  27  28
ATOM     28  C   UNL     1       6.251   7.060  17.058  0.00  0.00    +0.000 C 
BRANCH  28  29
ATOM     29  C   UNL     1       7.351   6.263  17.684  0.00  0.00    +0.000 C 
ATOM     30  C   UNL     1       8.190   6.812  18.798  0.00  0.00    +0.000 C 
ATOM     31  C   UNL     1       7.269   5.647  19.054  0.00  0.00    +0.000 C 
ENDBRANCH  28  29
ENDBRANCH  27  28
ENDBRANCH   5  27
TORSDOF 7
ENDMDL
MODEL 5
REMARK VINA RESULT:      -7.9      2.906      7.207
REMARK  Name = 
REMARK  7 active torsions:
REMARK  status: ('A' for Active; 'I' for Inactive)
REMARK    1  A    between atoms: C_2  and  C_4
REMARK    2  A    between atoms: C_11  and  C_13
REMARK    3  A    between atoms: C_16  and  C_17
REMARK    4  A    between atoms: C_17  and  O_18
REMARK    5  A    between atoms: C_22  and  O_23
REMARK    6  A    between atoms: O_23  and  C_24
REMARK    7  A    between atoms: C_24  and  C_25
REMARK                            x       y       z     vdW  Elec       q    Type
REMARK                         _______ _______ _______ _____ _____    ______ ____
ROOT
ATOM      1  C   UNL     1       2.509   7.798  18.326  0.00  0.00    +0.000 A 
ATOM      2  C   UNL     1       3.551   7.894  17.437  0.00  0.00    +0.000 A 
ATOM      3  C   UNL     1       4.504   6.877  17.450  0.00  0.00    +0.000 A 
ATOM      4  C   UNL     1       4.482   5.777  18.362  0.00  0.00    +0.000 A 
ATOM      5  C   UNL     1       3.393   5.824  19.258  0.00  0.00    +0.000 A 
ATOM      6  N   UNL     1       2.422   6.787  19.212  0.00  0.00    +0.000 NA
ENDROOT
BRANCH   1  14
ATOM      7  C   UNL     1      -0.096  10.343  19.689  0.00  0.00    +0.000 C 
ATOM      8  C   UNL     1      -0.778  10.078  21.031  0.00  0.00    +0.000 C 
ATOM      9  C   UNL     1       0.343   9.506  21.870  0.00  0.00    +0.000 C 
ATOM     10  F   UNL     1      -0.140   8.750  22.877  0.00  0.00    +0.000 F 
ATOM     11  F   UNL     1       1.091  10.488  22.418  0.00  0.00    +0.000 F 
ATOM     12  C   UNL     1       1.171   8.687  20.891  0.00  0.00    +0.000 C 
ATOM     13  N   UNL     1       0.943   9.307  19.587  0.00  0.00    +0.000 N 
ATOM     14  C   UNL     1       1.466   8.883  18.372  0.00  0.00    +0.000 C 
ATOM     15  O   UNL     1       1.078   9.392  17.307  0.00  0.00    +0.000 OA
BRANCH   7  17
ATOM     16  N   UNL     1      -0.408  12.771  19.870  0.00  0.00    +0.000 N 
ATOM     17  C   UNL     1       0.484  11.773  19.606  0.00  0.00    +0.000 C 
ATOM     18  O   UNL     1       1.673  12.029  19.444  0.00  0.00    +0.000 OA
ATOM     19  H   UNL     1      -0.078  13.726  19.899  0.00  0.00    +0.000 HD
ATOM     20  H   UNL     1      -1.362  12.563  20.155  0.00  0.00    +0.000 HD
ENDBRANCH   7  17
ENDBRANCH   1  14
BRANCH   4  21
ATOM     21  C   UNL     1       5.752   4.739  18.220  0.00  0.00    +0.000 C 
ATOM     22  C   UNL     1       7.140   5.389  18.637  0.00  0.00    +0.000 C 
ATOM     23  C   UNL     1       7.829   4.428  17.659  0.00  0.00    +0.000 C 
ATOM     24  C   UNL     1       6.509   4.410  16.884  0.00  0.00    +0.000 C 
BRANCH  21  25
ATOM     25  O   UNL     1       5.445   3.516  18.955  0.00  0.00    +0.000 OA
ATOM     26  H   UNL     1       5.146   2.878  18.290  0.00  0.00    +0.000 HD
ENDBRANCH  21  25
ENDBRANCH   4  21
BRANCH   5  27
ATOM     27  O   UNL     1       3.101   4.969  20.278  0.00  0.00    +0.000 OA
BRANCH  27  28
ATOM     28  C   UNL     1       1.748   4.846  20.674  0.00  0.00    +0.000 C 
BRANCH  28  29
ATOM     29  C   UNL     1       1.137   3.510  20.394  0.00  0.00    +0.000 C 
ATOM     30  C   UNL     1       0.907   3.022  18.995  0.00  0.00    +0.000 C 
ATOM     31  C   UNL     1       1.905   2.323  19.882  0.00  0.00    +0.000 C 
ENDBRANCH  28  29
ENDBRANCH  27  28
ENDBRANCH   5  27
TORSDOF 7
ENDMDL
MODEL 6
REMARK VINA RESULT:      -7.8      3.535      7.546
REMARK  Name = 
REMARK  7 active torsions:
REMARK  status: ('A' for Active; 'I' for Inactive)
REMARK    1  A    between atoms: C_2  and  C_4
REMARK    2  A    between atoms: C_11  and  C_13
REMARK    3  A    between atoms: C_16  and  C_17
REMARK    4  A    between atoms: C_17  and  O_18
REMARK    5  A    between atoms: C_22  and  O_23
REMARK    6  A    between atoms: O_23  and  C_24
REMARK    7  A    between atoms: C_24  and  C_25
REMARK                            x       y       z     vdW  Elec       q    Type
REMARK                         _______ _______ _______ _____ _____    ______ ____
ROOT
ATOM      1  C   UNL     1       1.593   9.136  18.755  0.00  0.00    +0.000 A 
ATOM      2  C   UNL     1       2.402   9.010  17.653  0.00  0.00    +0.000 A 
ATOM      3  C   UNL     1       3.124   7.826  17.518  0.00  0.00    +0.000 A 
ATOM      4  C   UNL     1       3.107   6.768  18.478  0.00  0.00    +0.000 A 
ATOM      5  C   UNL     1       2.281   7.044  19.589  0.00  0.00    +0.000 A 
ATOM      6  N   UNL     1       1.523   8.178  19.700  0.00  0.00    +0.000 NA
ENDROOT
BRANCH   1  14
ATOM      7  C   UNL     1      -1.259  11.773  18.576  0.00  0.00    +0.000 C 
ATOM      8  C   UNL     1      -2.241  11.743  17.405  0.00  0.00    +0.000 C 
ATOM      9  C   UNL     1      -2.463  10.263  17.190  0.00  0.00    +0.000 C 
ATOM     10  F   UNL     1      -2.866  10.009  15.929  0.00  0.00    +0.000 F 
ATOM     11  F   UNL     1      -3.411   9.787  18.027  0.00  0.00    +0.000 F 
ATOM     12  C   UNL     1      -1.115   9.628  17.495  0.00  0.00    +0.000 C 
ATOM     13  N   UNL     1      -0.462  10.546  18.427  0.00  0.00    +0.000 N 
ATOM     14  C   UNL     1       0.811  10.406  18.964  0.00  0.00    +0.000 C 
ATOM     15  O   UNL     1       1.322  11.327  19.622  0.00  0.00    +0.000 OA
BRANCH   7  17
ATOM     16  N   UNL     1      -1.202  11.575  21.023  0.00  0.00    +0.000 N 
ATOM     17  C   UNL     1      -1.985  11.845  19.939  0.00  0.00    +0.000 C 
ATOM     18  O   UNL     1      -3.139  12.235  20.088  0.00  0.00    +0.000 OA
ATOM     19  H   UNL     1      -1.598  11.671  21.948  0.00  0.00    +0.000 HD
ATOM     20  H   UNL     1      -0.205  11.398  20.921  0.00  0.00    +0.000 HD
ENDBRANCH   7  17
ENDBRANCH   1  14
BRANCH   4  21
ATOM     21  C   UNL     1       4.093   5.497  18.123  0.00  0.00    +0.000 C 
ATOM     22  C   UNL     1       5.084   5.126  19.308  0.00  0.00    +0.000 C 
ATOM     23  C   UNL     1       6.068   4.601  18.254  0.00  0.00    +0.000 C 
ATOM     24  C   UNL     1       5.414   5.585  17.280  0.00  0.00    +0.000 C 
BRANCH  21  25
ATOM     25  O   UNL     1       3.272   4.373  17.685  0.00  0.00    +0.000 OA
ATOM     26  H   UNL     1       3.345   3.706  18.384  0.00  0.00    +0.000 HD
ENDBRANCH  21  25
ENDBRANCH   4  21
BRANCH   5  27
ATOM     27  O   UNL     1       2.076   6.281  20.699  0.00  0.00    +0.000 OA
BRANCH  27  28
ATOM     28  C   UNL     1       1.334   5.086  20.555  0.00  0.00    +0.000 C 
BRANCH  28  29
ATOM     29  C   UNL     1       2.074   3.844  20.941  0.00  0.00    +0.000 C 
ATOM     30  C   UNL     1       1.407   2.720  21.674  0.00  0.00    +0.000 C 
ATOM     31  C   UNL     1       1.896   2.513  20.264  0.00  0.00    +0.000 C 
ENDBRANCH  28  29
ENDBRANCH  27  28
ENDBRANCH   5  27
TORSDOF 7
ENDMDL
MODEL 7
REMARK VINA RESULT:      -7.8      3.089      8.066
REMARK  Name = 
REMARK  7 active torsions:
REMARK  status: ('A' for Active; 'I' for Inactive)
REMARK    1  A    between atoms: C_2  and  C_4
REMARK    2  A    between atoms: C_11  and  C_13
REMARK    3  A    between atoms: C_16  and  C_17
REMARK    4  A    between atoms: C_17  and  O_18
REMARK    5  A    between atoms: C_22  and  O_23
REMARK    6  A    between atoms: O_23  and  C_24
REMARK    7  A    between atoms: C_24  and  C_25
REMARK                            x       y       z     vdW  Elec       q    Type
REMARK                         _______ _______ _______ _____ _____    ______ ____
ROOT
ATOM      1  C   UNL     1       2.520   7.397  18.373  0.00  0.00    +0.000 A 
ATOM      2  C   UNL     1       1.748   6.348  18.809  0.00  0.00    +0.000 A 
ATOM      3  C   UNL     1       2.371   5.110  18.957  0.00  0.00    +0.000 A 
ATOM      4  C   UNL     1       3.741   4.864  18.637  0.00  0.00    +0.000 A 
ATOM      5  C   UNL     1       4.408   6.008  18.147  0.00  0.00    +0.000 A 
ATOM      6  N   UNL     1       3.819   7.240  18.056  0.00  0.00    +0.000 NA
ENDROOT
BRANCH   1  14
ATOM      7  C   UNL     1       0.594  10.702  19.071  0.00  0.00    +0.000 C 
ATOM      8  C   UNL     1      -0.443  10.748  20.193  0.00  0.00    +0.000 C 
ATOM      9  C   UNL     1       0.202   9.916  21.280  0.00  0.00    +0.000 C 
ATOM     10  F   UNL     1      -0.724   9.413  22.121  0.00  0.00    +0.000 F 
ATOM     11  F   UNL     1       1.062  10.655  22.013  0.00  0.00    +0.000 F 
ATOM     12  C   UNL     1       0.944   8.820  20.530  0.00  0.00    +0.000 C 
ATOM     13  N   UNL     1       1.248   9.393  19.220  0.00  0.00    +0.000 N 
ATOM     14  C   UNL     1       1.892   8.750  18.170  0.00  0.00    +0.000 C 
ATOM     15  O   UNL     1       1.956   9.283  17.050  0.00  0.00    +0.000 OA
BRANCH   7  17
ATOM     16  N   UNL     1       2.283  12.132  18.008  0.00  0.00    +0.000 N 
ATOM     17  C   UNL     1       1.594  11.877  19.158  0.00  0.00    +0.000 C 
ATOM     18  O   UNL     1       1.699  12.626  20.124  0.00  0.00    +0.000 OA
ATOM     19  H   UNL     1       2.904  12.929  17.977  0.00  0.00    +0.000 HD
ATOM     20  H   UNL     1       2.094  11.612  17.155  0.00  0.00    +0.000 HD
ENDBRANCH   7  17
ENDBRANCH   1  14
BRANCH   4  21
ATOM     21  C   UNL     1       4.228   3.304  18.839  0.00  0.00    +0.000 C 
ATOM     22  C   UNL     1       3.660   2.323  17.726  0.00  0.00    +0.000 C 
ATOM     23  C   UNL     1       3.730   1.189  18.758  0.00  0.00    +0.000 C 
ATOM     24  C   UNL     1       3.576   2.273  19.829  0.00  0.00    +0.000 C 
BRANCH  21  25
ATOM     25  O   UNL     1       5.683   3.274  18.945  0.00  0.00    +0.000 OA
ATOM     26  H   UNL     1       5.877   2.798  19.767  0.00  0.00    +0.000 HD
ENDBRANCH  21  25
ENDBRANCH   4  21
BRANCH   5  27
ATOM     27  O   UNL     1       5.693   6.113  17.708  0.00  0.00    +0.000 OA
BRANCH  27  28
ATOM     28  C   UNL     1       5.905   6.393  16.337  0.00  0.00    +0.000 C 
BRANCH  28  29
ATOM     29  C   UNL     1       5.529   5.281  15.410  0.00  0.00    +0.000 C 
ATOM     30  C   UNL     1       6.476   4.763  14.370  0.00  0.00    +0.000 C 
ATOM     31  C   UNL     1       6.062   3.878  15.518  0.00  0.00    +0.000 C 
ENDBRANCH  28  29
ENDBRANCH  27  28
ENDBRANCH   5  27
TORSDOF 7
ENDMDL
MODEL 8
REMARK VINA RESULT:      -7.7      2.368      3.781
REMARK  Name = 
REMARK  7 active torsions:
REMARK  status: ('A' for Active; 'I' for Inactive)
REMARK    1  A    between atoms: C_2  and  C_4
REMARK    2  A    between atoms: C_11  and  C_13
REMARK    3  A    between atoms: C_16  and  C_17
REMARK    4  A    between atoms: C_17  and  O_18
REMARK    5  A    between atoms: C_22  and  O_23
REMARK    6  A    between atoms: O_23  and  C_24
REMARK    7  A    between atoms: C_24  and  C_25
REMARK                            x       y       z     vdW  Elec       q    Type
REMARK                         _______ _______ _______ _____ _____    ______ ____
ROOT
ATOM      1  C   UNL     1       1.476   8.347  19.617  0.00  0.00    +0.000 A 
ATOM      2  C   UNL     1       1.472   8.589  20.969  0.00  0.00    +0.000 A 
ATOM      3  C   UNL     1       0.637   9.602  21.438  0.00  0.00    +0.000 A 
ATOM      4  C   UNL     1      -0.169  10.425  20.593  0.00  0.00    +0.000 A 
ATOM      5  C   UNL     1      -0.033  10.111  19.223  0.00  0.00    +0.000 A 
ATOM      6  N   UNL     1       0.739   9.080  18.761  0.00  0.00    +0.000 NA
ENDROOT
BRANCH   1  14
ATOM      7  C   UNL     1       3.184   4.904  19.028  0.00  0.00    +0.000 C 
ATOM      8  C   UNL     1       3.207   3.871  20.154  0.00  0.00    +0.000 C 
ATOM      9  C   UNL     1       1.836   4.023  20.776  0.00  0.00    +0.000 C 
ATOM     10  F   UNL     1       1.833   3.597  22.056  0.00  0.00    +0.000 F 
ATOM     11  F   UNL     1       0.913   3.303  20.102  0.00  0.00    +0.000 F 
ATOM     12  C   UNL     1       1.535   5.511  20.672  0.00  0.00    +0.000 C 
ATOM     13  N   UNL     1       2.308   5.977  19.522  0.00  0.00    +0.000 N 
ATOM     14  C   UNL     1       2.380   7.283  19.054  0.00  0.00    +0.000 C 
ATOM     15  O   UNL     1       3.192   7.589  18.165  0.00  0.00    +0.000 OA
BRANCH   7  17
ATOM     16  N   UNL     1       3.642   3.660  16.962  0.00  0.00    +0.000 N 
ATOM     17  C   UNL     1       2.686   4.299  17.696  0.00  0.00    +0.000 C 
ATOM     18  O   UNL     1       1.509   4.263  17.350  0.00  0.00    +0.000 OA
ATOM     19  H   UNL     1       3.369   3.184  16.112  0.00  0.00    +0.000 HD
ATOM     20  H   UNL     1       4.591   3.553  17.312  0.00  0.00    +0.000 HD
ENDBRANCH   7  17
ENDBRANCH   1  14
BRANCH   4  21
ATOM     21  C   UNL     1      -1.024  11.593  21.379  0.00  0.00    +0.000 C 
ATOM     22  C   UNL     1      -0.118  12.795  21.884  0.00  0.00    +0.000 C 
ATOM     23  C   UNL     1      -1.128  13.016  23.018  0.00  0.00    +0.000 C 
ATOM     24  C   UNL     1      -1.472  11.530  22.883  0.00  0.00    +0.000 C 
BRANCH  21  25
ATOM     25  O   UNL     1      -2.128  12.022  20.528  0.00  0.00    +0.000 OA
ATOM     26  H   UNL     1      -2.020  12.979  20.419  0.00  0.00    +0.000 HD
ENDBRANCH  21  25
ENDBRANCH   4  21
BRANCH   5  27
ATOM     27  O   UNL     1      -0.615  10.724  18.154  0.00  0.00    +0.000 OA
BRANCH  27  28
ATOM     28  C   UNL     1      -1.828  10.190  17.662  0.00  0.00    +0.000 C 
BRANCH  28  29
ATOM     29  C   UNL     1      -2.494  11.022  16.613  0.00  0.00    +0.000 C 
ATOM     30  C   UNL     1      -2.850  10.464  15.268  0.00  0.00    +0.000 C 
ATOM     31  C   UNL     1      -3.940  10.884  16.220  0.00  0.00    +0.000 C 
ENDBRANCH  28  29
ENDBRANCH  27  28
ENDBRANCH   5  27
TORSDOF 7
ENDMDL
MODEL 9
REMARK VINA RESULT:      -7.6      1.112      1.346
REMARK  Name = 
REMARK  7 active torsions:
REMARK  status: ('A' for Active; 'I' for Inactive)
REMARK    1  A    between atoms: C_2  and  C_4
REMARK    2  A    between atoms: C_11  and  C_13
REMARK    3  A    between atoms: C_16  and  C_17
REMARK    4  A    between atoms: C_17  and  O_18
REMARK    5  A    between atoms: C_22  and  O_23
REMARK    6  A    between atoms: O_23  and  C_24
REMARK    7  A    between atoms: C_24  and  C_25
REMARK                            x       y       z     vdW  Elec       q    Type
REMARK                         _______ _______ _______ _____ _____    ______ ____
ROOT
ATOM      1  C   UNL     1       2.411   7.282  18.935  0.00  0.00    +0.000 A 
ATOM      2  C   UNL     1       2.089   8.013  17.818  0.00  0.00    +0.000 A 
ATOM      3  C   UNL     1       1.429   9.226  18.012  0.00  0.00    +0.000 A 
ATOM      4  C   UNL     1       1.030   9.719  19.292  0.00  0.00    +0.000 A 
ATOM      5  C   UNL     1       1.370   8.850  20.351  0.00  0.00    +0.000 A 
ATOM      6  N   UNL     1       2.071   7.687  20.173  0.00  0.00    +0.000 NA
ENDROOT
BRANCH   1  14
ATOM      7  C   UNL     1       3.219   3.494  19.279  0.00  0.00    +0.000 C 
ATOM      8  C   UNL     1       2.701   2.720  20.490  0.00  0.00    +0.000 C 
ATOM      9  C   UNL     1       1.317   3.295  20.690  0.00  0.00    +0.000 C 
ATOM     10  F   UNL     1       0.903   3.136  21.963  0.00  0.00    +0.000 F 
ATOM     11  F   UNL     1       0.417   2.688  19.887  0.00  0.00    +0.000 F 
ATOM     12  C   UNL     1       1.459   4.764  20.318  0.00  0.00    +0.000 C 
ATOM     13  N   UNL     1       2.574   4.812  19.373  0.00  0.00    +0.000 N 
ATOM     14  C   UNL     1       3.101   5.952  18.781  0.00  0.00    +0.000 C 
ATOM     15  O   UNL     1       4.149   5.890  18.116  0.00  0.00    +0.000 OA
BRANCH   7  17
ATOM     16  N   UNL     1       3.287   1.465  17.898  0.00  0.00    +0.000 N 
ATOM     17  C   UNL     1       2.900   2.773  17.950  0.00  0.00    +0.000 C 
ATOM     18  O   UNL     1       2.240   3.263  17.038  0.00  0.00    +0.000 OA
ATOM     19  H   UNL     1       3.047   0.917  17.083  0.00  0.00    +0.000 HD
ATOM     20  H   UNL     1       3.700   1.006  18.706  0.00  0.00    +0.000 HD
ENDBRANCH   7  17
ENDBRANCH   1  14
BRANCH   4  21
ATOM     21  C   UNL     1       0.210  11.147  19.256  0.00  0.00    +0.000 C 
ATOM     22  C   UNL     1      -1.366  10.963  19.321  0.00  0.00    +0.000 C 
ATOM     23  C   UNL     1      -1.503  12.274  18.535  0.00  0.00    +0.000 C 
ATOM     24  C   UNL     1      -0.117  11.971  17.960  0.00  0.00    +0.000 C 
BRANCH  21  25
ATOM     25  O   UNL     1       0.733  12.018  20.304  0.00  0.00    +0.000 OA
ATOM     26  H   UNL     1       1.326  12.640  19.857  0.00  0.00    +0.000 HD
ENDBRANCH  21  25
ENDBRANCH   4  21
BRANCH   5  27
ATOM     27  O   UNL     1       1.099   8.988  21.678  0.00  0.00    +0.000 OA
BRANCH  27  28
ATOM     28  C   UNL     1      -0.257   9.036  22.077  0.00  0.00    +0.000 C 
BRANCH  28  29
ATOM     29  C   UNL     1      -0.562  10.059  23.125  0.00  0.00    +0.000 C 
ATOM     30  C   UNL     1      -0.649  11.520  22.804  0.00  0.00    +0.000 C 
ATOM     31  C   UNL     1      -1.880  10.773  23.247  0.00  0.00    +0.000 C 
ENDBRANCH  28  29
ENDBRANCH  27  28
ENDBRANCH   5  27
TORSDOF 7
ENDMDL
