MODEL 1
REMARK VINA RESULT:      -7.7      0.000      0.000
REMARK  Name = 
REMARK  7 active torsions:
REMARK  status: ('A' for Active; 'I' for Inactive)
REMARK    1  A    between atoms: C_1  and  C_2
REMARK    2  A    between atoms: C_4  and  O_5
REMARK    3  A    between atoms: N_8  and  N_9
REMARK    4  A    between atoms: C_10  and  C_11
REMARK    5  A    between atoms: C_13  and  C_14
REMARK    6  A    between atoms: N_15  and  C_16
REMARK    7  A    between atoms: C_22  and  C_23
REMARK                            x       y       z     vdW  Elec       q    Type
REMARK                         _______ _______ _______ _____ _____    ______ ____
ROOT
ATOM      1  N   UNL     1       1.169   9.671  18.740  0.00  0.00    +0.000 NA
ATOM      2  C   UNL     1       1.588   8.724  19.508  0.00  0.00    +0.000 C 
ENDROOT
BRANCH   1   9
ATOM      3  C   UNL     1      -3.229   9.903  16.334  0.00  0.00    +0.000 C 
ATOM      4  C   UNL     1      -2.655  10.651  17.494  0.00  0.00    +0.000 A 
ATOM      5  C   UNL     1      -3.372  11.634  18.139  0.00  0.00    +0.000 A 
ATOM      6  C   UNL     1      -2.722  12.236  19.190  0.00  0.00    +0.000 A 
ATOM      7  N   UNL     1      -1.487  11.931  19.599  0.00  0.00    +0.000 NA
ATOM      8  C   UNL     1      -0.856  10.962  18.920  0.00  0.00    +0.000 A 
ATOM      9  N   UNL     1       0.438  10.645  19.345  0.00  0.00    +0.000 N 
ATOM     10  N   UNL     1      -1.410  10.313  17.877  0.00  0.00    +0.000 NA
ATOM     11  H   UNL     1       0.730  11.195  20.144  0.00  0.00    +0.000 HD
BRANCH   6  12
ATOM     12  O   UNL     1      -3.336  13.226  19.906  0.00  0.00    +0.000 OA
ATOM     13  H   UNL     1      -2.838  14.047  19.782  0.00  0.00    +0.000 HD
ENDBRANCH   6  12
ENDBRANCH   1   9
BRANCH   2  14
ATOM     14  C   UNL     1       2.370   7.637  18.933  0.00  0.00    +0.000 A 
ATOM     15  C   UNL     1       3.318   7.729  17.890  0.00  0.00    +0.000 A 
ATOM     16  C   UNL     1       3.833   6.471  17.650  0.00  0.00    +0.000 A 
ATOM     17  C   UNL     1       4.791   6.116  16.558  0.00  0.00    +0.000 C 
ATOM     18  N   UNL     1       3.207   5.570  18.513  0.00  0.00    +0.000 N 
ATOM     19  C   UNL     1       2.326   6.304  19.327  0.00  0.00    +0.000 A 
ATOM     20  C   UNL     1       1.538   5.757  20.477  0.00  0.00    +0.000 C 
BRANCH  18  21
ATOM     21  C   UNL     1       3.411   4.147  18.534  0.00  0.00    +0.000 A 
ATOM     22  C   UNL     1       2.702   3.304  17.670  0.00  0.00    +0.000 A 
ATOM     23  C   UNL     1       2.839   1.916  17.745  0.00  0.00    +0.000 A 
ATOM     24  C   UNL     1       3.735   1.354  18.647  0.00  0.00    +0.000 A 
ATOM     25  C   UNL     1       4.481   2.179  19.483  0.00  0.00    +0.000 A 
ATOM     26  C   UNL     1       4.299   3.565  19.449  0.00  0.00    +0.000 A 
ENDBRANCH  18  21
ENDBRANCH   2  14
TORSDOF 4
ENDMDL
MODEL 2
REMARK VINA RESULT:      -7.6      3.850      9.189
REMARK  Name = 
REMARK  7 active torsions:
REMARK  status: ('A' for Active; 'I' for Inactive)
REMARK    1  A    between atoms: C_1  and  C_2
REMARK    2  A    between atoms: C_4  and  O_5
REMARK    3  A    between atoms: N_8  and  N_9
REMARK    4  A    between atoms: C_10  and  C_11
REMARK    5  A    between atoms: C_13  and  C_14
REMARK    6  A    between atoms: N_15  and  C_16
REMARK    7  A    between atoms: C_22  and  C_23
REMARK                            x       y       z     vdW  Elec       q    Type
REMARK                         _______ _______ _______ _____ _____    ______ ____
ROOT
ATOM      1  N   UNL     1       1.949   7.554  20.104  0.00  0.00    +0.000 NA
ATOM      2  C   UNL     1       1.131   7.941  21.023  0.00  0.00    +0.000 C 
ENDROOT
BRANCH   1   9
ATOM      3  C   UNL     1       4.898   6.686  16.136  0.00  0.00    +0.000 C 
ATOM      4  C   UNL     1       4.605   5.916  17.383  0.00  0.00    +0.000 A 
ATOM      5  C   UNL     1       5.201   4.700  17.631  0.00  0.00    +0.000 A 
ATOM      6  C   UNL     1       4.842   4.105  18.817  0.00  0.00    +0.000 A 
ATOM      7  N   UNL     1       3.984   4.622  19.701  0.00  0.00    +0.000 NA
ATOM      8  C   UNL     1       3.447   5.810  19.387  0.00  0.00    +0.000 A 
ATOM      9  N   UNL     1       2.546   6.350  20.310  0.00  0.00    +0.000 N 
ATOM     10  N   UNL     1       3.738   6.472  18.249  0.00  0.00    +0.000 NA
ATOM     11  H   UNL     1       2.426   5.762  21.126  0.00  0.00    +0.000 HD
BRANCH   6  12
ATOM     12  O   UNL     1       5.371   2.894  19.171  0.00  0.00    +0.000 OA
ATOM     13  H   UNL     1       4.711   2.411  19.687  0.00  0.00    +0.000 HD
ENDBRANCH   6  12
ENDBRANCH   1   9
BRANCH   2  14
ATOM     14  C   UNL     1       0.460   9.226  20.880  0.00  0.00    +0.000 A 
ATOM     15  C   UNL     1       0.213   9.930  19.681  0.00  0.00    +0.000 A 
ATOM     16  C   UNL     1      -0.450  11.102  19.986  0.00  0.00    +0.000 A 
ATOM     17  C   UNL     1      -0.807  12.179  19.013  0.00  0.00    +0.000 C 
ATOM     18  N   UNL     1      -0.611  11.165  21.371  0.00  0.00    +0.000 N 
ATOM     19  C   UNL     1      -0.075   9.986  21.916  0.00  0.00    +0.000 A 
ATOM     20  C   UNL     1      -0.142   9.578  23.355  0.00  0.00    +0.000 C 
BRANCH  18  21
ATOM     21  C   UNL     1      -1.193  12.260  22.100  0.00  0.00    +0.000 A 
ATOM     22  C   UNL     1      -0.431  13.383  22.443  0.00  0.00    +0.000 A 
ATOM     23  C   UNL     1      -0.972  14.410  23.219  0.00  0.00    +0.000 A 
ATOM     24  C   UNL     1      -2.304  14.355  23.614  0.00  0.00    +0.000 A 
ATOM     25  C   UNL     1      -3.088  13.267  23.245  0.00  0.00    +0.000 A 
ATOM     26  C   UNL     1      -2.529  12.211  22.518  0.00  0.00    +0.000 A 
ENDBRANCH  18  21
ENDBRANCH   2  14
TORSDOF 4
ENDMDL
MODEL 3
REMARK VINA RESULT:      -7.4      6.176      7.778
REMARK  Name = 
REMARK  7 active torsions:
REMARK  status: ('A' for Active; 'I' for Inactive)
REMARK    1  A    between atoms: C_1  and  C_2
REMARK    2  A    between atoms: C_4  and  O_5
REMARK    3  A    between atoms: N_8  and  N_9
REMARK    4  A    between atoms: C_10  and  C_11
REMARK    5  A    between atoms: C_13  and  C_14
REMARK    6  A    between atoms: N_15  and  C_16
REMARK    7  A    between atoms: C_22  and  C_23
REMARK                            x       y       z     vdW  Elec       q    Type
REMARK                         _______ _______ _______ _____ _____    ______ ____
ROOT
ATOM      1  N   UNL     1       8.041   8.125  18.274  0.00  0.00    +0.000 NA
ATOM      2  C   UNL     1       8.057   6.839  18.368  0.00  0.00    +0.000 C 
ENDROOT
BRANCH   1   9
ATOM      3  C   UNL     1       7.665  12.976  17.042  0.00  0.00    +0.000 C 
ATOM      4  C   UNL     1       8.590  12.214  17.935  0.00  0.00    +0.000 A 
ATOM      5  C   UNL     1       9.594  12.847  18.634  0.00  0.00    +0.000 A 
ATOM      6  C   UNL     1      10.367  12.025  19.418  0.00  0.00    +0.000 A 
ATOM      7  N   UNL     1      10.202  10.704  19.533  0.00  0.00    +0.000 NA
ATOM      8  C   UNL     1       9.201  10.163  18.822  0.00  0.00    +0.000 A 
ATOM      9  N   UNL     1       9.030   8.780  18.938  0.00  0.00    +0.000 N 
ATOM     10  N   UNL     1       8.390  10.887  18.025  0.00  0.00    +0.000 NA
ATOM     11  H   UNL     1       9.695   8.359  19.576  0.00  0.00    +0.000 HD
BRANCH   6  12
ATOM     12  O   UNL     1      11.395  12.541  20.159  0.00  0.00    +0.000 OA
ATOM     13  H   UNL     1      11.745  11.840  20.727  0.00  0.00    +0.000 HD
ENDBRANCH   6  12
ENDBRANCH   1   9
BRANCH   2  14
ATOM     14  C   UNL     1       7.023   6.065  17.692  0.00  0.00    +0.000 A 
ATOM     15  C   UNL     1       6.911   5.822  16.306  0.00  0.00    +0.000 A 
ATOM     16  C   UNL     1       5.793   5.042  16.084  0.00  0.00    +0.000 A 
ATOM     17  C   UNL     1       5.260   4.644  14.745  0.00  0.00    +0.000 C 
ATOM     18  N   UNL     1       5.177   4.802  17.314  0.00  0.00    +0.000 N 
ATOM     19  C   UNL     1       5.962   5.411  18.308  0.00  0.00    +0.000 A 
ATOM     20  C   UNL     1       5.740   5.302  19.786  0.00  0.00    +0.000 C 
BRANCH  18  21
ATOM     21  C   UNL     1       3.945   4.087  17.511  0.00  0.00    +0.000 A 
ATOM     22  C   UNL     1       2.730   4.769  17.644  0.00  0.00    +0.000 A 
ATOM     23  C   UNL     1       1.545   4.081  17.916  0.00  0.00    +0.000 A 
ATOM     24  C   UNL     1       1.550   2.693  17.999  0.00  0.00    +0.000 A 
ATOM     25  C   UNL     1       2.741   1.997  17.824  0.00  0.00    +0.000 A 
ATOM     26  C   UNL     1       3.937   2.689  17.612  0.00  0.00    +0.000 A 
ENDBRANCH  18  21
ENDBRANCH   2  14
TORSDOF 4
ENDMDL
MODEL 4
REMARK VINA RESULT:      -7.2      1.336      2.612
REMARK  Name = 
REMARK  7 active torsions:
REMARK  status: ('A' for Active; 'I' for Inactive)
REMARK    1  A    between atoms: C_1  and  C_2
REMARK    2  A    between atoms: C_4  and  O_5
REMARK    3  A    between atoms: N_8  and  N_9
REMARK    4  A    between atoms: C_10  and  C_11
REMARK    5  A    between atoms: C_13  and  C_14
REMARK    6  A    between atoms: N_15  and  C_16
REMARK    7  A    between atoms: C_22  and  C_23
REMARK                            x       y       z     vdW  Elec       q    Type
REMARK                         _______ _______ _______ _____ _____    ______ ____
ROOT
ATOM      1  N   UNL     1       1.270   8.910  19.325  0.00  0.00    +0.000 NA
ATOM      2  C   UNL     1       1.592   8.014  20.194  0.00  0.00    +0.000 C 
ENDROOT
BRANCH   1   9
ATOM      3  C   UNL     1      -2.454   9.809  16.081  0.00  0.00    +0.000 C 
ATOM      4  C   UNL     1      -2.032  10.455  17.362  0.00  0.00    +0.000 A 
ATOM      5  C   UNL     1      -2.718  11.528  17.883  0.00  0.00    +0.000 A 
ATOM      6  C   UNL     1      -2.221  12.020  19.066  0.00  0.00    +0.000 A 
ATOM      7  N   UNL     1      -1.155  11.532  19.707  0.00  0.00    +0.000 NA
ATOM      8  C   UNL     1      -0.542  10.486  19.136  0.00  0.00    +0.000 A 
ATOM      9  N   UNL     1       0.576   9.977  19.804  0.00  0.00    +0.000 N 
ATOM     10  N   UNL     1      -0.955   9.933  17.978  0.00  0.00    +0.000 NA
ATOM     11  H   UNL     1       0.772  10.472  20.666  0.00  0.00    +0.000 HD
BRANCH   6  12
ATOM     12  O   UNL     1      -2.822  13.086  19.679  0.00  0.00    +0.000 OA
ATOM     13  H   UNL     1      -3.760  13.086  19.442  0.00  0.00    +0.000 HD
ENDBRANCH   6  12
ENDBRANCH   1   9
BRANCH   2  14
ATOM     14  C   UNL     1       2.327   6.834  19.757  0.00  0.00    +0.000 A 
ATOM     15  C   UNL     1       2.264   5.537  20.312  0.00  0.00    +0.000 A 
ATOM     16  C   UNL     1       3.113   4.711  19.602  0.00  0.00    +0.000 A 
ATOM     17  C   UNL     1       3.415   3.284  19.930  0.00  0.00    +0.000 C 
ATOM     18  N   UNL     1       3.735   5.472  18.612  0.00  0.00    +0.000 N 
ATOM     19  C   UNL     1       3.219   6.778  18.692  0.00  0.00    +0.000 A 
ATOM     20  C   UNL     1       3.518   7.895  17.741  0.00  0.00    +0.000 C 
BRANCH  18  21
ATOM     21  C   UNL     1       4.743   5.002  17.700  0.00  0.00    +0.000 A 
ATOM     22  C   UNL     1       6.103   5.098  18.018  0.00  0.00    +0.000 A 
ATOM     23  C   UNL     1       7.085   4.716  17.102  0.00  0.00    +0.000 A 
ATOM     24  C   UNL     1       6.719   4.177  15.874  0.00  0.00    +0.000 A 
ATOM     25  C   UNL     1       5.371   4.033  15.560  0.00  0.00    +0.000 A 
ATOM     26  C   UNL     1       4.389   4.470  16.453  0.00  0.00    +0.000 A 
ENDBRANCH  18  21
ENDBRANCH   2  14
TORSDOF 4
ENDMDL
MODEL 5
REMARK VINA RESULT:      -7.2      2.370      3.638
REMARK  Name = 
REMARK  7 active torsions:
REMARK  status: ('A' for Active; 'I' for Inactive)
REMARK    1  A    between atoms: C_1  and  C_2
REMARK    2  A    between atoms: C_4  and  O_5
REMARK    3  A    between atoms: N_8  and  N_9
REMARK    4  A    between atoms: C_10  and  C_11
REMARK    5  A    between atoms: C_13  and  C_14
REMARK    6  A    between atoms: N_15  and  C_16
REMARK    7  A    between atoms: C_22  and  C_23
REMARK                            x       y       z     vdW  Elec       q    Type
REMARK                         _______ _______ _______ _____ _____    ______ ____
ROOT
ATOM      1  N   UNL     1       1.576   7.537  20.786  0.00  0.00    +0.000 NA
ATOM      2  C   UNL     1       1.344   6.269  20.762  0.00  0.00    +0.000 C 
ENDROOT
BRANCH   1   9
ATOM      3  C   UNL     1       1.792  12.029  18.558  0.00  0.00    +0.000 C 
ATOM      4  C   UNL     1       0.919  11.457  19.627  0.00  0.00    +0.000 A 
ATOM      5  C   UNL     1      -0.082  12.201  20.211  0.00  0.00    +0.000 A 
ATOM      6  C   UNL     1      -0.808  11.548  21.177  0.00  0.00    +0.000 A 
ATOM      7  N   UNL     1      -0.603  10.285  21.562  0.00  0.00    +0.000 NA
ATOM      8  C   UNL     1       0.388   9.626  20.945  0.00  0.00    +0.000 A 
ATOM      9  N   UNL     1       0.606   8.306  21.349  0.00  0.00    +0.000 N 
ATOM     10  N   UNL     1       1.155  10.182  19.985  0.00  0.00    +0.000 NA
ATOM     11  H   UNL     1      -0.044   8.007  22.066  0.00  0.00    +0.000 HD
BRANCH   6  12
ATOM     12  O   UNL     1      -1.828  12.187  21.826  0.00  0.00    +0.000 OA
ATOM     13  H   UNL     1      -2.030  11.698  22.637  0.00  0.00    +0.000 HD
ENDBRANCH   6  12
ENDBRANCH   1   9
BRANCH   2  14
ATOM     14  C   UNL     1       2.331   5.379  20.164  0.00  0.00    +0.000 A 
ATOM     15  C   UNL     1       2.657   4.068  20.577  0.00  0.00    +0.000 A 
ATOM     16  C   UNL     1       3.639   3.573  19.741  0.00  0.00    +0.000 A 
ATOM     17  C   UNL     1       4.333   2.259  19.897  0.00  0.00    +0.000 C 
ATOM     18  N   UNL     1       3.959   4.563  18.811  0.00  0.00    +0.000 N 
ATOM     19  C   UNL     1       3.123   5.665  19.057  0.00  0.00    +0.000 A 
ATOM     20  C   UNL     1       3.041   6.905  18.220  0.00  0.00    +0.000 C 
BRANCH  18  21
ATOM     21  C   UNL     1       4.984   4.470  17.806  0.00  0.00    +0.000 A 
ATOM     22  C   UNL     1       6.314   4.789  18.102  0.00  0.00    +0.000 A 
ATOM     23  C   UNL     1       7.296   4.778  17.109  0.00  0.00    +0.000 A 
ATOM     24  C   UNL     1       6.971   4.388  15.814  0.00  0.00    +0.000 A 
ATOM     25  C   UNL     1       5.662   4.026  15.513  0.00  0.00    +0.000 A 
ATOM     26  C   UNL     1       4.668   4.094  16.493  0.00  0.00    +0.000 A 
ENDBRANCH  18  21
ENDBRANCH   2  14
TORSDOF 4
ENDMDL
MODEL 6
REMARK VINA RESULT:      -7.2      1.846      2.345
REMARK  Name = 
REMARK  7 active torsions:
REMARK  status: ('A' for Active; 'I' for Inactive)
REMARK    1  A    between atoms: C_1  and  C_2
REMARK    2  A    between atoms: C_4  and  O_5
REMARK    3  A    between atoms: N_8  and  N_9
REMARK    4  A    between atoms: C_10  and  C_11
REMARK    5  A    between atoms: C_13  and  C_14
REMARK    6  A    between atoms: N_15  and  C_16
REMARK    7  A    between atoms: C_22  and  C_23
REMARK                            x       y       z     vdW  Elec       q    Type
REMARK                         _______ _______ _______ _____ _____    ______ ____
ROOT
ATOM      1  N   UNL     1       1.347   9.141  17.811  0.00  0.00    +0.000 NA
ATOM      2  C   UNL     1       2.610   8.989  18.020  0.00  0.00    +0.000 C 
ENDROOT
BRANCH   1   9
ATOM      3  C   UNL     1      -0.301   9.017  22.550  0.00  0.00    +0.000 C 
ATOM      4  C   UNL     1      -0.270  10.084  21.504  0.00  0.00    +0.000 A 
ATOM      5  C   UNL     1      -0.757  11.347  21.754  0.00  0.00    +0.000 A 
ATOM      6  C   UNL     1      -0.663  12.227  20.703  0.00  0.00    +0.000 A 
ATOM      7  N   UNL     1      -0.146  11.934  19.506  0.00  0.00    +0.000 NA
ATOM      8  C   UNL     1       0.308  10.683  19.342  0.00  0.00    +0.000 A 
ATOM      9  N   UNL     1       0.845  10.374  18.089  0.00  0.00    +0.000 N 
ATOM     10  N   UNL     1       0.260   9.749  20.313  0.00  0.00    +0.000 NA
ATOM     11  H   UNL     1       0.834  11.165  17.455  0.00  0.00    +0.000 HD
BRANCH   6  12
ATOM     12  O   UNL     1      -1.114  13.512  20.834  0.00  0.00    +0.000 OA
ATOM     13  H   UNL     1      -1.637  13.735  20.051  0.00  0.00    +0.000 HD
ENDBRANCH   6  12
ENDBRANCH   1   9
BRANCH   2  14
ATOM     14  C   UNL     1       3.222   7.692  17.757  0.00  0.00    +0.000 A 
ATOM     15  C   UNL     1       4.194   7.392  16.778  0.00  0.00    +0.000 A 
ATOM     16  C   UNL     1       4.508   6.050  16.865  0.00  0.00    +0.000 A 
ATOM     17  C   UNL     1       5.420   5.308  15.942  0.00  0.00    +0.000 C 
ATOM     18  N   UNL     1       3.729   5.484  17.875  0.00  0.00    +0.000 N 
ATOM     19  C   UNL     1       2.959   6.513  18.446  0.00  0.00    +0.000 A 
ATOM     20  C   UNL     1       2.070   6.378  19.644  0.00  0.00    +0.000 C 
BRANCH  18  21
ATOM     21  C   UNL     1       3.704   4.092  18.237  0.00  0.00    +0.000 A 
ATOM     22  C   UNL     1       2.891   3.184  17.549  0.00  0.00    +0.000 A 
ATOM     23  C   UNL     1       2.805   1.849  17.950  0.00  0.00    +0.000 A 
ATOM     24  C   UNL     1       3.579   1.389  19.010  0.00  0.00    +0.000 A 
ATOM     25  C   UNL     1       4.426   2.269  19.676  0.00  0.00    +0.000 A 
ATOM     26  C   UNL     1       4.467   3.618  19.312  0.00  0.00    +0.000 A 
ENDBRANCH  18  21
ENDBRANCH   2  14
TORSDOF 4
ENDMDL
MODEL 7
REMARK VINA RESULT:      -7.2      2.369      3.435
REMARK  Name = 
REMARK  7 active torsions:
REMARK  status: ('A' for Active; 'I' for Inactive)
REMARK    1  A    between atoms: C_1  and  C_2
REMARK    2  A    between atoms: C_4  and  O_5
REMARK    3  A    between atoms: N_8  and  N_9
REMARK    4  A    between atoms: C_10  and  C_11
REMARK    5  A    between atoms: C_13  and  C_14
REMARK    6  A    between atoms: N_15  and  C_16
REMARK    7  A    between atoms: C_22  and  C_23
REMARK                            x       y       z     vdW  Elec       q    Type
REMARK                         _______ _______ _______ _____ _____    ______ ____
ROOT
ATOM      1  N   UNL     1       1.552   7.780  21.136  0.00  0.00    +0.000 NA
ATOM      2  C   UNL     1       1.174   6.652  20.639  0.00  0.00    +0.000 C 
ENDROOT
BRANCH   1   9
ATOM      3  C   UNL     1       1.820  12.084  18.568  0.00  0.00    +0.000 C 
ATOM      4  C   UNL     1       0.914  11.591  19.650  0.00  0.00    +0.000 A 
ATOM      5  C   UNL     1      -0.109  12.371  20.139  0.00  0.00    +0.000 A 
ATOM      6  C   UNL     1      -0.865  11.791  21.129  0.00  0.00    +0.000 A 
ATOM      7  N   UNL     1      -0.666  10.563  21.619  0.00  0.00    +0.000 NA
ATOM      8  C   UNL     1       0.349   9.866  21.090  0.00  0.00    +0.000 A 
ATOM      9  N   UNL     1       0.560   8.583  21.605  0.00  0.00    +0.000 N 
ATOM     10  N   UNL     1       1.145  10.350  20.115  0.00  0.00    +0.000 NA
ATOM     11  H   UNL     1      -0.113   8.337  22.321  0.00  0.00    +0.000 HD
BRANCH   6  12
ATOM     12  O   UNL     1      -1.910  12.471  21.691  0.00  0.00    +0.000 OA
ATOM     13  H   UNL     1      -1.803  12.457  22.653  0.00  0.00    +0.000 HD
ENDBRANCH   6  12
ENDBRANCH   1   9
BRANCH   2  14
ATOM     14  C   UNL     1       2.178   5.740  20.106  0.00  0.00    +0.000 A 
ATOM     15  C   UNL     1       2.485   4.444  20.575  0.00  0.00    +0.000 A 
ATOM     16  C   UNL     1       3.493   3.918  19.791  0.00  0.00    +0.000 A 
ATOM     17  C   UNL     1       4.178   2.608  20.015  0.00  0.00    +0.000 C 
ATOM     18  N   UNL     1       3.848   4.874  18.838  0.00  0.00    +0.000 N 
ATOM     19  C   UNL     1       3.008   5.987  19.018  0.00  0.00    +0.000 A 
ATOM     20  C   UNL     1       2.958   7.197  18.137  0.00  0.00    +0.000 C 
BRANCH  18  21
ATOM     21  C   UNL     1       4.907   4.745  17.873  0.00  0.00    +0.000 A 
ATOM     22  C   UNL     1       4.654   4.248  16.589  0.00  0.00    +0.000 A 
ATOM     23  C   UNL     1       5.693   4.046  15.677  0.00  0.00    +0.000 A 
ATOM     24  C   UNL     1       6.994   4.396  16.018  0.00  0.00    +0.000 A 
ATOM     25  C   UNL     1       7.256   4.933  17.274  0.00  0.00    +0.000 A 
ATOM     26  C   UNL     1       6.226   5.079  18.207  0.00  0.00    +0.000 A 
ENDBRANCH  18  21
ENDBRANCH   2  14
TORSDOF 4
ENDMDL
MODEL 8
REMARK VINA RESULT:      -7.0      3.904      8.955
REMARK  Name = 
REMARK  7 active torsions:
REMARK  status: ('A' for Active; 'I' for Inactive)
REMARK    1  A    between atoms: C_1  and  C_2
REMARK    2  A    between atoms: C_4  and  O_5
REMARK    3  A    between atoms: N_8  and  N_9
REMARK    4  A    between atoms: C_10  and  C_11
REMARK    5  A    between atoms: C_13  and  C_14
REMARK    6  A    between atoms: N_15  and  C_16
REMARK    7  A    between atoms: C_22  and  C_23
REMARK                            x       y       z     vdW  Elec       q    Type
REMARK                         _______ _______ _______ _____ _____    ______ ____
ROOT
ATOM      1  N   UNL     1       2.931   6.001  19.014  0.00  0.00    +0.000 NA
ATOM      2  C   UNL     1       2.226   6.981  18.561  0.00  0.00    +0.000 C 
ENDROOT
BRANCH   1   9
ATOM      3  C   UNL     1       7.506   7.424  17.519  0.00  0.00    +0.000 C 
ATOM      4  C   UNL     1       6.620   6.277  17.155  0.00  0.00    +0.000 A 
ATOM      5  C   UNL     1       7.013   5.331  16.235  0.00  0.00    +0.000 A 
ATOM      6  C   UNL     1       6.100   4.331  16.000  0.00  0.00    +0.000 A 
ATOM      7  N   UNL     1       4.906   4.233  16.590  0.00  0.00    +0.000 NA
ATOM      8  C   UNL     1       4.598   5.192  17.475  0.00  0.00    +0.000 A 
ATOM      9  N   UNL     1       3.346   5.093  18.092  0.00  0.00    +0.000 N 
ATOM     10  N   UNL     1       5.427   6.213  17.774  0.00  0.00    +0.000 NA
ATOM     11  H   UNL     1       2.828   4.276  17.790  0.00  0.00    +0.000 HD
BRANCH   6  12
ATOM     12  O   UNL     1       6.381   3.335  15.105  0.00  0.00    +0.000 OA
ATOM     13  H   UNL     1       6.246   2.482  15.543  0.00  0.00    +0.000 HD
ENDBRANCH   6  12
ENDBRANCH   1   9
BRANCH   2  14
ATOM     14  C   UNL     1       1.734   7.990  19.491  0.00  0.00    +0.000 A 
ATOM     15  C   UNL     1       1.521   7.838  20.878  0.00  0.00    +0.000 A 
ATOM     16  C   UNL     1       1.053   9.034  21.386  0.00  0.00    +0.000 A 
ATOM     17  C   UNL     1       0.609   9.268  22.794  0.00  0.00    +0.000 C 
ATOM     18  N   UNL     1       0.944   9.943  20.333  0.00  0.00    +0.000 N 
ATOM     19  C   UNL     1       1.398   9.300  19.168  0.00  0.00    +0.000 A 
ATOM     20  C   UNL     1       1.570   9.942  17.825  0.00  0.00    +0.000 C 
BRANCH  18  21
ATOM     21  C   UNL     1       0.428  11.282  20.429  0.00  0.00    +0.000 A 
ATOM     22  C   UNL     1      -0.931  11.547  20.227  0.00  0.00    +0.000 A 
ATOM     23  C   UNL     1      -1.420  12.855  20.240  0.00  0.00    +0.000 A 
ATOM     24  C   UNL     1      -0.562  13.915  20.515  0.00  0.00    +0.000 A 
ATOM     25  C   UNL     1       0.784  13.665  20.762  0.00  0.00    +0.000 A 
ATOM     26  C   UNL     1       1.283  12.362  20.690  0.00  0.00    +0.000 A 
ENDBRANCH  18  21
ENDBRANCH   2  14
TORSDOF 4
ENDMDL
MODEL 9
REMARK VINA RESULT:      -6.8      2.619      3.428
REMARK  Name = 
REMARK  7 active torsions:
REMARK  status: ('A' for Active; 'I' for Inactive)
REMARK    1  A    between atoms: C_1  and  C_2
REMARK    2  A    between atoms: C_4  and  O_5
REMARK    3  A    between atoms: N_8  and  N_9
REMARK    4  A    between atoms: C_10  and  C_11
REMARK    5  A    between atoms: C_13  and  C_14
REMARK    6  A    between atoms: N_15  and  C_16
REMARK    7  A    between atoms: C_22  and  C_23
REMARK                            x       y       z     vdW  Elec       q    Type
REMARK                         _______ _______ _______ _____ _____    ______ ____
ROOT
ATOM      1  N   UNL     1       1.731  10.227  18.182  0.00  0.00    +0.000 NA
ATOM      2  C   UNL     1       1.630   9.138  18.865  0.00  0.00    +0.000 C 
ENDROOT
BRANCH   1   9
ATOM      3  C   UNL     1       4.588  14.346  17.929  0.00  0.00    +0.000 C 
ATOM      4  C   UNL     1       3.173  14.104  18.348  0.00  0.00    +0.000 A 
ATOM      5  C   UNL     1       2.365  15.134  18.772  0.00  0.00    +0.000 A 
ATOM      6  C   UNL     1       1.088  14.768  19.123  0.00  0.00    +0.000 A 
ATOM      7  N   UNL     1       0.612  13.520  19.078  0.00  0.00    +0.000 NA
ATOM      8  C   UNL     1       1.461  12.573  18.653  0.00  0.00    +0.000 A 
ATOM      9  N   UNL     1       0.965  11.266  18.608  0.00  0.00    +0.000 N 
ATOM     10  N   UNL     1       2.731  12.835  18.285  0.00  0.00    +0.000 NA
ATOM     11  H   UNL     1      -0.004  11.209  18.897  0.00  0.00    +0.000 HD
BRANCH   6  12
ATOM     12  O   UNL     1       0.194  15.708  19.560  0.00  0.00    +0.000 OA
ATOM     13  H   UNL     1      -0.635  15.590  19.075  0.00  0.00    +0.000 HD
ENDBRANCH   6  12
ENDBRANCH   1   9
BRANCH   2  14
ATOM     14  C   UNL     1       2.410   7.974  18.464  0.00  0.00    +0.000 A 
ATOM     15  C   UNL     1       3.421   7.925  17.480  0.00  0.00    +0.000 A 
ATOM     16  C   UNL     1       3.910   6.635  17.414  0.00  0.00    +0.000 A 
ATOM     17  C   UNL     1       4.920   6.136  16.431  0.00  0.00    +0.000 C 
ATOM     18  N   UNL     1       3.206   5.854  18.332  0.00  0.00    +0.000 N 
ATOM     19  C   UNL     1       2.302   6.696  19.002  0.00  0.00    +0.000 A 
ATOM     20  C   UNL     1       1.430   6.302  20.154  0.00  0.00    +0.000 C 
BRANCH  18  21
ATOM     21  C   UNL     1       3.365   4.437  18.525  0.00  0.00    +0.000 A 
ATOM     22  C   UNL     1       4.252   3.936  19.484  0.00  0.00    +0.000 A 
ATOM     23  C   UNL     1       4.467   2.562  19.618  0.00  0.00    +0.000 A 
ATOM     24  C   UNL     1       3.751   1.667  18.832  0.00  0.00    +0.000 A 
ATOM     25  C   UNL     1       2.832   2.147  17.904  0.00  0.00    +0.000 A 
ATOM     26  C   UNL     1       2.661   3.523  17.729  0.00  0.00    +0.000 A 
ENDBRANCH  18  21
ENDBRANCH   2  14
TORSDOF 4
ENDMDL
