MODEL 1
REMARK VINA RESULT:      -7.4      0.000      0.000
REMARK  Name = 
REMARK  4 active torsions:
REMARK  status: ('A' for Active; 'I' for Inactive)
REMARK    1  A    between atoms: C_1  and  C_2
REMARK    2  A    between atoms: C_2  and  N_3
REMARK    3  A    between atoms: C_2  and  C_11
REMARK    4  A    between atoms: C_4  and  C_6
REMARK                            x       y       z     vdW  Elec       q    Type
REMARK                         _______ _______ _______ _____ _____    ______ ____
ROOT
ATOM      1  N   UNL     1       4.373   3.720  18.030  0.00  0.00    +0.000 N 
ATOM      2  C   UNL     1       5.278   4.242  17.132  0.00  0.00    +0.000 C 
ATOM      3  O   UNL     1       5.273   3.968  15.935  0.00  0.00    +0.000 OA
ATOM      4  H   UNL     1       4.394   4.075  18.975  0.00  0.00    +0.000 HD
ENDROOT
BRANCH   2   5
ATOM      5  C   UNL     1       6.275   5.125  17.700  0.00  0.00    +0.000 A 
ATOM      6  C   UNL     1       6.825   6.323  17.273  0.00  0.00    +0.000 A 
ATOM      7  C   UNL     1       7.764   6.750  18.245  0.00  0.00    +0.000 A 
ATOM      8  C   UNL     1       7.769   5.810  19.248  0.00  0.00    +0.000 A 
ATOM      9  N   UNL     1       6.875   4.831  18.908  0.00  0.00    +0.000 N 
ATOM     10  H   UNL     1       6.655   4.008  19.455  0.00  0.00    +0.000 HD
ENDBRANCH   2   5
BRANCH   1  12
ATOM     11  C   UNL     1       3.436   1.506  18.529  0.00  0.00    +0.000 C 
ATOM     12  C   UNL     1       3.296   2.780  17.692  0.00  0.00    +0.000 C 
BRANCH  12  13
ATOM     13  C   UNL     1       1.888   3.445  17.753  0.00  0.00    +0.000 C 
ATOM     14  C   UNL     1       0.936   2.690  18.706  0.00  0.00    +0.000 C 
ATOM     15  C   UNL     1       1.254   2.909  20.186  0.00  0.00    +0.000 C 
ATOM     16  C   UNL     1       1.395   4.384  20.556  0.00  0.00    +0.000 C 
ATOM     17  C   UNL     1       2.292   5.160  19.597  0.00  0.00    +0.000 C 
ATOM     18  C   UNL     1       1.896   4.933  18.143  0.00  0.00    +0.000 C 
ENDBRANCH  12  13
ENDBRANCH   1  12
TORSDOF 3
ENDMDL
MODEL 2
REMARK VINA RESULT:      -7.3      2.696      3.512
REMARK  Name = 
REMARK  4 active torsions:
REMARK  status: ('A' for Active; 'I' for Inactive)
REMARK    1  A    between atoms: C_1  and  C_2
REMARK    2  A    between atoms: C_2  and  N_3
REMARK    3  A    between atoms: C_2  and  C_11
REMARK    4  A    between atoms: C_4  and  C_6
REMARK                            x       y       z     vdW  Elec       q    Type
REMARK                         _______ _______ _______ _____ _____    ______ ____
ROOT
ATOM      1  N   UNL     1       4.796   4.718  16.192  0.00  0.00    +0.000 N 
ATOM      2  C   UNL     1       6.147   4.527  15.996  0.00  0.00    +0.000 C 
ATOM      3  O   UNL     1       6.951   4.413  16.917  0.00  0.00    +0.000 OA
ATOM      4  H   UNL     1       4.200   4.705  15.378  0.00  0.00    +0.000 HD
ENDROOT
BRANCH   2   5
ATOM      5  C   UNL     1       6.574   4.500  14.613  0.00  0.00    +0.000 A 
ATOM      6  C   UNL     1       6.144   3.785  13.507  0.00  0.00    +0.000 A 
ATOM      7  C   UNL     1       6.931   4.173  12.395  0.00  0.00    +0.000 A 
ATOM      8  C   UNL     1       7.825   5.120  12.838  0.00  0.00    +0.000 A 
ATOM      9  N   UNL     1       7.608   5.305  14.176  0.00  0.00    +0.000 N 
ATOM     10  H   UNL     1       8.108   5.947  14.778  0.00  0.00    +0.000 HD
ENDBRANCH   2   5
BRANCH   1  12
ATOM     11  C   UNL     1       4.218   6.250  18.022  0.00  0.00    +0.000 C 
ATOM     12  C   UNL     1       4.140   4.812  17.502  0.00  0.00    +0.000 C 
BRANCH  12  13
ATOM     13  C   UNL     1       2.705   4.204  17.491  0.00  0.00    +0.000 C 
ATOM     14  C   UNL     1       2.732   2.668  17.349  0.00  0.00    +0.000 C 
ATOM     15  C   UNL     1       3.176   1.945  18.621  0.00  0.00    +0.000 C 
ATOM     16  C   UNL     1       2.413   2.398  19.864  0.00  0.00    +0.000 C 
ATOM     17  C   UNL     1       2.331   3.915  19.998  0.00  0.00    +0.000 C 
ATOM     18  C   UNL     1       1.843   4.570  18.712  0.00  0.00    +0.000 C 
ENDBRANCH  12  13
ENDBRANCH   1  12
TORSDOF 3
ENDMDL
MODEL 3
REMARK VINA RESULT:      -7.2      2.398      3.199
REMARK  Name = 
REMARK  4 active torsions:
REMARK  status: ('A' for Active; 'I' for Inactive)
REMARK    1  A    between atoms: C_1  and  C_2
REMARK    2  A    between atoms: C_2  and  N_3
REMARK    3  A    between atoms: C_2  and  C_11
REMARK    4  A    between atoms: C_4  and  C_6
REMARK                            x       y       z     vdW  Elec       q    Type
REMARK                         _______ _______ _______ _____ _____    ______ ____
ROOT
ATOM      1  N   UNL     1       4.936   4.321  17.066  0.00  0.00    +0.000 N 
ATOM      2  C   UNL     1       5.226   5.328  16.172  0.00  0.00    +0.000 C 
ATOM      3  O   UNL     1       4.933   6.505  16.366  0.00  0.00    +0.000 OA
ATOM      4  H   UNL     1       5.298   3.400  16.865  0.00  0.00    +0.000 HD
ENDROOT
BRANCH   2   5
ATOM      5  C   UNL     1       5.878   4.905  14.950  0.00  0.00    +0.000 A 
ATOM      6  C   UNL     1       5.518   4.018  13.948  0.00  0.00    +0.000 A 
ATOM      7  C   UNL     1       6.551   4.003  12.978  0.00  0.00    +0.000 A 
ATOM      8  C   UNL     1       7.521   4.881  13.401  0.00  0.00    +0.000 A 
ATOM      9  N   UNL     1       7.111   5.414  14.593  0.00  0.00    +0.000 N 
ATOM     10  H   UNL     1       7.614   6.098  15.145  0.00  0.00    +0.000 HD
ENDBRANCH   2   5
BRANCH   1  12
ATOM     11  C   UNL     1       5.183   5.205  19.343  0.00  0.00    +0.000 C 
ATOM     12  C   UNL     1       4.250   4.506  18.351  0.00  0.00    +0.000 C 
BRANCH  12  13
ATOM     13  C   UNL     1       2.855   5.180  18.187  0.00  0.00    +0.000 C 
ATOM     14  C   UNL     1       1.789   4.183  17.687  0.00  0.00    +0.000 C 
ATOM     15  C   UNL     1       1.334   3.188  18.757  0.00  0.00    +0.000 C 
ATOM     16  C   UNL     1       0.929   3.861  20.066  0.00  0.00    +0.000 C 
ATOM     17  C   UNL     1       1.946   4.889  20.552  0.00  0.00    +0.000 C 
ATOM     18  C   UNL     1       2.324   5.874  19.453  0.00  0.00    +0.000 C 
ENDBRANCH  12  13
ENDBRANCH   1  12
TORSDOF 3
ENDMDL
MODEL 4
REMARK VINA RESULT:      -7.2      2.150      3.057
REMARK  Name = 
REMARK  4 active torsions:
REMARK  status: ('A' for Active; 'I' for Inactive)
REMARK    1  A    between atoms: C_1  and  C_2
REMARK    2  A    between atoms: C_2  and  N_3
REMARK    3  A    between atoms: C_2  and  C_11
REMARK    4  A    between atoms: C_4  and  C_6
REMARK                            x       y       z     vdW  Elec       q    Type
REMARK                         _______ _______ _______ _____ _____    ______ ____
ROOT
ATOM      1  N   UNL     1       3.969   4.567  17.057  0.00  0.00    +0.000 N 
ATOM      2  C   UNL     1       5.223   5.113  16.888  0.00  0.00    +0.000 C 
ATOM      3  O   UNL     1       5.775   5.808  17.736  0.00  0.00    +0.000 OA
ATOM      4  H   UNL     1       3.636   3.933  16.346  0.00  0.00    +0.000 HD
ENDROOT
BRANCH   2   5
ATOM      5  C   UNL     1       5.850   4.840  15.611  0.00  0.00    +0.000 A 
ATOM      6  C   UNL     1       5.468   4.082  14.516  0.00  0.00    +0.000 A 
ATOM      7  C   UNL     1       6.481   4.185  13.531  0.00  0.00    +0.000 A 
ATOM      8  C   UNL     1       7.461   5.005  14.038  0.00  0.00    +0.000 A 
ATOM      9  N   UNL     1       7.076   5.389  15.294  0.00  0.00    +0.000 N 
ATOM     10  H   UNL     1       7.592   6.002  15.914  0.00  0.00    +0.000 HD
ENDBRANCH   2   5
BRANCH   1  12
ATOM     11  C   UNL     1       2.361   6.056  18.165  0.00  0.00    +0.000 C 
ATOM     12  C   UNL     1       3.130   4.736  18.251  0.00  0.00    +0.000 C 
BRANCH  12  13
ATOM     13  C   UNL     1       2.244   3.485  18.534  0.00  0.00    +0.000 C 
ATOM     14  C   UNL     1       3.077   2.297  19.057  0.00  0.00    +0.000 C 
ATOM     15  C   UNL     1       3.539   2.466  20.506  0.00  0.00    +0.000 C 
ATOM     16  C   UNL     1       2.404   2.842  21.456  0.00  0.00    +0.000 C 
ATOM     17  C   UNL     1       1.537   3.983  20.934  0.00  0.00    +0.000 C 
ATOM     18  C   UNL     1       1.076   3.732  19.503  0.00  0.00    +0.000 C 
ENDBRANCH  12  13
ENDBRANCH   1  12
TORSDOF 3
ENDMDL
MODEL 5
REMARK VINA RESULT:      -7.2      0.805      1.022
REMARK  Name = 
REMARK  4 active torsions:
REMARK  status: ('A' for Active; 'I' for Inactive)
REMARK    1  A    between atoms: C_1  and  C_2
REMARK    2  A    between atoms: C_2  and  N_3
REMARK    3  A    between atoms: C_2  and  C_11
REMARK    4  A    between atoms: C_4  and  C_6
REMARK                            x       y       z     vdW  Elec       q    Type
REMARK                         _______ _______ _______ _____ _____    ______ ____
ROOT
ATOM      1  N   UNL     1       4.419   4.016  17.896  0.00  0.00    +0.000 N 
ATOM      2  C   UNL     1       5.468   4.291  17.047  0.00  0.00    +0.000 C 
ATOM      3  O   UNL     1       5.651   3.695  15.988  0.00  0.00    +0.000 OA
ATOM      4  H   UNL     1       4.295   4.619  18.696  0.00  0.00    +0.000 HD
ENDROOT
BRANCH   2   5
ATOM      5  C   UNL     1       6.380   5.319  17.501  0.00  0.00    +0.000 A 
ATOM      6  C   UNL     1       7.212   5.421  18.605  0.00  0.00    +0.000 A 
ATOM      7  C   UNL     1       7.891   6.663  18.535  0.00  0.00    +0.000 A 
ATOM      8  C   UNL     1       7.466   7.296  17.391  0.00  0.00    +0.000 A 
ATOM      9  N   UNL     1       6.551   6.484  16.779  0.00  0.00    +0.000 N 
ATOM     10  H   UNL     1       6.068   6.678  15.910  0.00  0.00    +0.000 HD
ENDBRANCH   2   5
BRANCH   1  12
ATOM     11  C   UNL     1       3.615   1.805  18.600  0.00  0.00    +0.000 C 
ATOM     12  C   UNL     1       3.390   2.993  17.662  0.00  0.00    +0.000 C 
BRANCH  12  13
ATOM     13  C   UNL     1       1.949   3.584  17.697  0.00  0.00    +0.000 C 
ATOM     14  C   UNL     1       1.011   2.759  18.603  0.00  0.00    +0.000 C 
ATOM     15  C   UNL     1       1.276   2.958  20.097  0.00  0.00    +0.000 C 
ATOM     16  C   UNL     1       1.330   4.428  20.504  0.00  0.00    +0.000 C 
ATOM     17  C   UNL     1       2.212   5.273  19.590  0.00  0.00    +0.000 C 
ATOM     18  C   UNL     1       1.869   5.061  18.121  0.00  0.00    +0.000 C 
ENDBRANCH  12  13
ENDBRANCH   1  12
TORSDOF 3
ENDMDL
MODEL 6
REMARK VINA RESULT:      -7.1      1.974      3.138
REMARK  Name = 
REMARK  4 active torsions:
REMARK  status: ('A' for Active; 'I' for Inactive)
REMARK    1  A    between atoms: C_1  and  C_2
REMARK    2  A    between atoms: C_2  and  N_3
REMARK    3  A    between atoms: C_2  and  C_11
REMARK    4  A    between atoms: C_4  and  C_6
REMARK                            x       y       z     vdW  Elec       q    Type
REMARK                         _______ _______ _______ _____ _____    ______ ____
ROOT
ATOM      1  N   UNL     1       4.719   4.317  18.052  0.00  0.00    +0.000 N 
ATOM      2  C   UNL     1       6.039   4.416  17.668  0.00  0.00    +0.000 C 
ATOM      3  O   UNL     1       6.965   4.529  18.467  0.00  0.00    +0.000 OA
ATOM      4  H   UNL     1       4.036   4.132  17.331  0.00  0.00    +0.000 HD
ENDROOT
BRANCH   2   5
ATOM      5  C   UNL     1       6.271   4.412  16.239  0.00  0.00    +0.000 A 
ATOM      6  C   UNL     1       5.744   3.661  15.201  0.00  0.00    +0.000 A 
ATOM      7  C   UNL     1       6.339   4.099  13.992  0.00  0.00    +0.000 A 
ATOM      8  C   UNL     1       7.215   5.110  14.310  0.00  0.00    +0.000 A 
ATOM      9  N   UNL     1       7.173   5.287  15.667  0.00  0.00    +0.000 N 
ATOM     10  H   UNL     1       7.705   5.967  16.196  0.00  0.00    +0.000 HD
ENDBRANCH   2   5
BRANCH   1  12
ATOM     11  C   UNL     1       3.228   5.465  19.629  0.00  0.00    +0.000 C 
ATOM     12  C   UNL     1       4.240   4.333  19.440  0.00  0.00    +0.000 C 
BRANCH  12  13
ATOM     13  C   UNL     1       3.743   2.933  19.912  0.00  0.00    +0.000 C 
ATOM     14  C   UNL     1       2.489   3.039  20.804  0.00  0.00    +0.000 C 
ATOM     15  C   UNL     1       1.215   3.381  20.029  0.00  0.00    +0.000 C 
ATOM     16  C   UNL     1       0.991   2.478  18.818  0.00  0.00    +0.000 C 
ATOM     17  C   UNL     1       2.234   2.319  17.949  0.00  0.00    +0.000 C 
ATOM     18  C   UNL     1       3.455   1.937  18.775  0.00  0.00    +0.000 C 
ENDBRANCH  12  13
ENDBRANCH   1  12
TORSDOF 3
ENDMDL
MODEL 7
REMARK VINA RESULT:      -7.0      1.806      2.956
REMARK  Name = 
REMARK  4 active torsions:
REMARK  status: ('A' for Active; 'I' for Inactive)
REMARK    1  A    between atoms: C_1  and  C_2
REMARK    2  A    between atoms: C_2  and  N_3
REMARK    3  A    between atoms: C_2  and  C_11
REMARK    4  A    between atoms: C_4  and  C_6
REMARK                            x       y       z     vdW  Elec       q    Type
REMARK                         _______ _______ _______ _____ _____    ______ ____
ROOT
ATOM      1  N   UNL     1       3.750   5.237  18.118  0.00  0.00    +0.000 N 
ATOM      2  C   UNL     1       5.014   4.694  18.186  0.00  0.00    +0.000 C 
ATOM      3  O   UNL     1       5.516   4.284  19.230  0.00  0.00    +0.000 OA
ATOM      4  H   UNL     1       3.386   5.459  17.204  0.00  0.00    +0.000 HD
ENDROOT
BRANCH   2   5
ATOM      5  C   UNL     1       5.744   4.665  16.936  0.00  0.00    +0.000 A 
ATOM      6  C   UNL     1       6.610   5.561  16.329  0.00  0.00    +0.000 A 
ATOM      7  C   UNL     1       7.039   4.999  15.101  0.00  0.00    +0.000 A 
ATOM      8  C   UNL     1       6.433   3.771  14.980  0.00  0.00    +0.000 A 
ATOM      9  N   UNL     1       5.649   3.581  16.085  0.00  0.00    +0.000 N 
ATOM     10  H   UNL     1       5.085   2.764  16.283  0.00  0.00    +0.000 HD
ENDBRANCH   2   5
BRANCH   1  12
ATOM     11  C   UNL     1       2.750   6.879  19.645  0.00  0.00    +0.000 C 
ATOM     12  C   UNL     1       2.841   5.401  19.260  0.00  0.00    +0.000 C 
BRANCH  12  13
ATOM     13  C   UNL     1       1.465   4.706  19.026  0.00  0.00    +0.000 C 
ATOM     14  C   UNL     1       1.505   3.743  17.821  0.00  0.00    +0.000 C 
ATOM     15  C   UNL     1       2.266   2.446  18.101  0.00  0.00    +0.000 C 
ATOM     16  C   UNL     1       1.814   1.751  19.384  0.00  0.00    +0.000 C 
ATOM     17  C   UNL     1       1.719   2.697  20.577  0.00  0.00    +0.000 C 
ATOM     18  C   UNL     1       0.914   3.946  20.245  0.00  0.00    +0.000 C 
ENDBRANCH  12  13
ENDBRANCH   1  12
TORSDOF 3
ENDMDL
MODEL 8
REMARK VINA RESULT:      -7.0      1.781      2.967
REMARK  Name = 
REMARK  4 active torsions:
REMARK  status: ('A' for Active; 'I' for Inactive)
REMARK    1  A    between atoms: C_1  and  C_2
REMARK    2  A    between atoms: C_2  and  N_3
REMARK    3  A    between atoms: C_2  and  C_11
REMARK    4  A    between atoms: C_4  and  C_6
REMARK                            x       y       z     vdW  Elec       q    Type
REMARK                         _______ _______ _______ _____ _____    ______ ____
ROOT
ATOM      1  N   UNL     1       4.540   4.212  18.534  0.00  0.00    +0.000 N 
ATOM      2  C   UNL     1       5.856   4.532  18.283  0.00  0.00    +0.000 C 
ATOM      3  O   UNL     1       6.661   4.812  19.167  0.00  0.00    +0.000 OA
ATOM      4  H   UNL     1       3.977   3.904  17.755  0.00  0.00    +0.000 HD
ENDROOT
BRANCH   2   5
ATOM      5  C   UNL     1       6.233   4.553  16.885  0.00  0.00    +0.000 A 
ATOM      6  C   UNL     1       7.019   5.412  16.134  0.00  0.00    +0.000 A 
ATOM      7  C   UNL     1       7.046   4.935  14.800  0.00  0.00    +0.000 A 
ATOM      8  C   UNL     1       6.282   3.793  14.759  0.00  0.00    +0.000 A 
ATOM      9  N   UNL     1       5.790   3.575  16.017  0.00  0.00    +0.000 N 
ATOM     10  H   UNL     1       5.197   2.804  16.300  0.00  0.00    +0.000 HD
ENDBRANCH   2   5
BRANCH   1  12
ATOM     11  C   UNL     1       2.929   5.312  20.026  0.00  0.00    +0.000 C 
ATOM     12  C   UNL     1       3.924   4.160  19.866  0.00  0.00    +0.000 C 
BRANCH  12  13
ATOM     13  C   UNL     1       3.344   2.752  20.197  0.00  0.00    +0.000 C 
ATOM     14  C   UNL     1       1.999   2.846  20.947  0.00  0.00    +0.000 C 
ATOM     15  C   UNL     1       0.830   3.268  20.054  0.00  0.00    +0.000 C 
ATOM     16  C   UNL     1       0.724   2.440  18.775  0.00  0.00    +0.000 C 
ATOM     17  C   UNL     1       2.055   2.292  18.044  0.00  0.00    +0.000 C 
ATOM     18  C   UNL     1       3.165   1.829  18.979  0.00  0.00    +0.000 C 
ENDBRANCH  12  13
ENDBRANCH   1  12
TORSDOF 3
ENDMDL
MODEL 9
REMARK VINA RESULT:      -7.0      2.818      3.611
REMARK  Name = 
REMARK  4 active torsions:
REMARK  status: ('A' for Active; 'I' for Inactive)
REMARK    1  A    between atoms: C_1  and  C_2
REMARK    2  A    between atoms: C_2  and  N_3
REMARK    3  A    between atoms: C_2  and  C_11
REMARK    4  A    between atoms: C_4  and  C_6
REMARK                            x       y       z     vdW  Elec       q    Type
REMARK                         _______ _______ _______ _____ _____    ______ ____
ROOT
ATOM      1  N   UNL     1       4.722   4.293  15.895  0.00  0.00    +0.000 N 
ATOM      2  C   UNL     1       6.083   4.275  15.678  0.00  0.00    +0.000 C 
ATOM      3  O   UNL     1       6.909   4.300  16.586  0.00  0.00    +0.000 OA
ATOM      4  H   UNL     1       4.120   4.174  15.093  0.00  0.00    +0.000 HD
ENDROOT
BRANCH   2   5
ATOM      5  C   UNL     1       6.489   4.257  14.288  0.00  0.00    +0.000 A 
ATOM      6  C   UNL     1       7.338   5.062  13.545  0.00  0.00    +0.000 A 
ATOM      7  C   UNL     1       7.366   4.567  12.217  0.00  0.00    +0.000 A 
ATOM      8  C   UNL     1       6.539   3.469  12.173  0.00  0.00    +0.000 A 
ATOM      9  N   UNL     1       6.010   3.295  13.422  0.00  0.00    +0.000 N 
ATOM     10  H   UNL     1       5.369   2.561  13.701  0.00  0.00    +0.000 HD
ENDBRANCH   2   5
BRANCH   1  12
ATOM     11  C   UNL     1       3.916   5.801  17.657  0.00  0.00    +0.000 C 
ATOM     12  C   UNL     1       4.079   4.345  17.214  0.00  0.00    +0.000 C 
BRANCH  12  13
ATOM     13  C   UNL     1       2.771   3.500  17.269  0.00  0.00    +0.000 C 
ATOM     14  C   UNL     1       3.003   2.123  17.926  0.00  0.00    +0.000 C 
ATOM     15  C   UNL     1       3.183   2.194  19.444  0.00  0.00    +0.000 C 
ATOM     16  C   UNL     1       2.083   2.991  20.140  0.00  0.00    +0.000 C 
ATOM     17  C   UNL     1       1.802   4.335  19.476  0.00  0.00    +0.000 C 
ATOM     18  C   UNL     1       1.590   4.189  17.974  0.00  0.00    +0.000 C 
ENDBRANCH  12  13
ENDBRANCH   1  12
TORSDOF 3
ENDMDL
