MODEL 1
REMARK VINA RESULT:      -8.5      0.000      0.000
REMARK  Name = 
REMARK  9 active torsions:
REMARK  status: ('A' for Active; 'I' for Inactive)
REMARK    1  A    between atoms: C_1  and  C_2
REMARK    2  A    between atoms: C_2  and  C_3
REMARK    3  A    between atoms: C_3  and  C_4
REMARK    4  A    between atoms: C_5  and  C_6
REMARK    5  A    between atoms: N_8  and  N_9
REMARK    6  A    between atoms: C_10  and  C_11
REMARK    7  A    between atoms: C_14  and  O_15
REMARK    8  A    between atoms: O_15  and  C_16
REMARK    9  A    between atoms: C_16  and  C_17
REMARK                            x       y       z     vdW  Elec       q    Type
REMARK                         _______ _______ _______ _____ _____    ______ ____
ROOT
ATOM      1  C   UNL     1       7.248   6.987  17.746  0.00  0.00    +0.000 C 
ATOM      2  O   UNL     1       7.182   7.526  16.666  0.00  0.00    +0.000 OA
ATOM      3  N   UNL     1       8.152   7.361  18.778  0.00  0.00    +0.000 N 
ATOM      4  H   UNL     1       8.276   6.742  19.568  0.00  0.00    +0.000 HD
ENDROOT
BRANCH   1   6
ATOM      5  C   UNL     1       4.967   5.611  17.938  0.00  0.00    +0.000 A 
ATOM      6  C   UNL     1       6.341   5.861  18.136  0.00  0.00    +0.000 A 
ATOM      7  N   UNL     1       6.849   4.857  18.929  0.00  0.00    +0.000 NA
ATOM      8  N   UNL     1       5.871   4.033  19.262  0.00  0.00    +0.000 NA
ATOM      9  N   UNL     1       4.758   4.367  18.560  0.00  0.00    +0.000 N 
ATOM     10  C   UNL     1       3.610   3.525  18.519  0.00  0.00    +0.000 A 
ATOM     11  N   UNL     1       2.844   3.487  17.425  0.00  0.00    +0.000 NA
ATOM     12  O   UNL     1       1.888   2.516  17.706  0.00  0.00    +0.000 OA
ATOM     13  N   UNL     1       2.067   1.987  18.975  0.00  0.00    +0.000 NA
ATOM     14  C   UNL     1       3.118   2.629  19.486  0.00  0.00    +0.000 A 
ATOM     15  N   UNL     1       3.519   2.486  20.765  0.00  0.00    +0.000 N 
ATOM     16  H   UNL     1       2.885   1.981  21.380  0.00  0.00    +0.000 HD
ATOM     17  H   UNL     1       3.985   3.255  21.240  0.00  0.00    +0.000 HD
BRANCH   5  18
ATOM     18  C   UNL     1       3.794   6.356  17.330  0.00  0.00    +0.000 C 
BRANCH  18  20
ATOM     19  C   UNL     1       2.408   8.477  17.761  0.00  0.00    +0.000 C 
ATOM     20  C   UNL     1       3.027   7.206  18.331  0.00  0.00    +0.000 C 
ENDBRANCH  18  20
ENDBRANCH   5  18
ENDBRANCH   1   6
BRANCH   3  21
ATOM     21  N   UNL     1       9.059   8.398  18.619  0.00  0.00    +0.000 NA
ATOM     22  C   UNL     1       8.717   9.539  19.157  0.00  0.00    +0.000 C 
BRANCH  22  23
ATOM     23  C   UNL     1       9.584  10.746  19.153  0.00  0.00    +0.000 A 
ATOM     24  C   UNL     1       9.987  11.339  20.344  0.00  0.00    +0.000 A 
ATOM     25  C   UNL     1      10.792  12.470  20.332  0.00  0.00    +0.000 A 
ATOM     26  C   UNL     1      11.241  13.027  19.133  0.00  0.00    +0.000 A 
ATOM     27  C   UNL     1      10.807  12.462  17.924  0.00  0.00    +0.000 A 
ATOM     28  C   UNL     1       9.989  11.313  17.934  0.00  0.00    +0.000 A 
BRANCH  26  29
ATOM     29  O   UNL     1      12.101  14.105  19.108  0.00  0.00    +0.000 OA
BRANCH  29  30
ATOM     30  C   UNL     1      11.774  15.080  18.090  0.00  0.00    +0.000 C 
BRANCH  30  31
ATOM     31  C   UNL     1      10.707  16.027  18.578  0.00  0.00    +0.000 A 
ATOM     32  C   UNL     1      10.866  16.688  19.801  0.00  0.00    +0.000 A 
ATOM     33  C   UNL     1       9.866  17.534  20.277  0.00  0.00    +0.000 A 
ATOM     34  C   UNL     1       8.715  17.733  19.525  0.00  0.00    +0.000 A 
ATOM     35  F   UNL     1       7.749  18.532  19.996  0.00  0.00    +0.000 F 
ATOM     36  C   UNL     1       8.552  17.111  18.294  0.00  0.00    +0.000 A 
ATOM     37  C   UNL     1       9.550  16.260  17.815  0.00  0.00    +0.000 A 
ENDBRANCH  30  31
ENDBRANCH  29  30
ENDBRANCH  26  29
ENDBRANCH  22  23
ENDBRANCH   3  21
TORSDOF 8
ENDMDL
MODEL 2
REMARK VINA RESULT:      -8.4      6.573     10.230
REMARK  Name = 
REMARK  9 active torsions:
REMARK  status: ('A' for Active; 'I' for Inactive)
REMARK    1  A    between atoms: C_1  and  C_2
REMARK    2  A    between atoms: C_2  and  C_3
REMARK    3  A    between atoms: C_3  and  C_4
REMARK    4  A    between atoms: C_5  and  C_6
REMARK    5  A    between atoms: N_8  and  N_9
REMARK    6  A    between atoms: C_10  and  C_11
REMARK    7  A    between atoms: C_14  and  O_15
REMARK    8  A    between atoms: O_15  and  C_16
REMARK    9  A    between atoms: C_16  and  C_17
REMARK                            x       y       z     vdW  Elec       q    Type
REMARK                         _______ _______ _______ _____ _____    ______ ____
ROOT
ATOM      1  C   UNL     1       3.520   5.550  18.953  0.00  0.00    +0.000 C 
ATOM      2  O   UNL     1       3.506   4.860  19.945  0.00  0.00    +0.000 OA
ATOM      3  N   UNL     1       2.910   6.831  18.855  0.00  0.00    +0.000 N 
ATOM      4  H   UNL     1       2.801   7.253  17.943  0.00  0.00    +0.000 HD
ENDROOT
BRANCH   1   6
ATOM      5  C   UNL     1       5.093   5.807  16.811  0.00  0.00    +0.000 A 
ATOM      6  C   UNL     1       4.228   5.137  17.700  0.00  0.00    +0.000 A 
ATOM      7  N   UNL     1       3.972   3.885  17.186  0.00  0.00    +0.000 NA
ATOM      8  N   UNL     1       4.589   3.761  16.025  0.00  0.00    +0.000 NA
ATOM      9  N   UNL     1       5.397   4.837  15.840  0.00  0.00    +0.000 N 
ATOM     10  C   UNL     1       6.369   4.880  14.800  0.00  0.00    +0.000 A 
ATOM     11  N   UNL     1       7.513   5.548  14.978  0.00  0.00    +0.000 NA
ATOM     12  O   UNL     1       8.238   5.307  13.815  0.00  0.00    +0.000 OA
ATOM     13  N   UNL     1       7.522   4.515  12.931  0.00  0.00    +0.000 NA
ATOM     14  C   UNL     1       6.356   4.272  13.531  0.00  0.00    +0.000 A 
ATOM     15  N   UNL     1       5.331   3.642  12.924  0.00  0.00    +0.000 N 
ATOM     16  H   UNL     1       5.425   3.496  11.921  0.00  0.00    +0.000 HD
ATOM     17  H   UNL     1       4.374   3.853  13.193  0.00  0.00    +0.000 HD
BRANCH   5  18
ATOM     18  C   UNL     1       5.637   7.216  16.664  0.00  0.00    +0.000 C 
BRANCH  18  20
ATOM     19  C   UNL     1       7.332   6.339  18.386  0.00  0.00    +0.000 C 
ATOM     20  C   UNL     1       6.940   7.447  17.414  0.00  0.00    +0.000 C 
ENDBRANCH  18  20
ENDBRANCH   5  18
ENDBRANCH   1   6
BRANCH   3  21
ATOM     21  N   UNL     1       2.225   7.400  19.918  0.00  0.00    +0.000 NA
ATOM     22  C   UNL     1       1.679   8.564  19.685  0.00  0.00    +0.000 C 
BRANCH  22  23
ATOM     23  C   UNL     1       0.848   9.300  20.673  0.00  0.00    +0.000 A 
ATOM     24  C   UNL     1       0.109  10.415  20.295  0.00  0.00    +0.000 A 
ATOM     25  C   UNL     1      -0.659  11.100  21.227  0.00  0.00    +0.000 A 
ATOM     26  C   UNL     1      -0.736  10.678  22.556  0.00  0.00    +0.000 A 
ATOM     27  C   UNL     1       0.039   9.579  22.958  0.00  0.00    +0.000 A 
ATOM     28  C   UNL     1       0.821   8.882  22.014  0.00  0.00    +0.000 A 
BRANCH  26  29
ATOM     29  O   UNL     1      -1.553  11.305  23.472  0.00  0.00    +0.000 OA
BRANCH  29  30
ATOM     30  C   UNL     1      -2.094  12.560  23.000  0.00  0.00    +0.000 C 
BRANCH  30  31
ATOM     31  C   UNL     1      -3.590  12.604  23.189  0.00  0.00    +0.000 A 
ATOM     32  C   UNL     1      -4.422  12.893  22.101  0.00  0.00    +0.000 A 
ATOM     33  C   UNL     1      -5.803  12.974  22.276  0.00  0.00    +0.000 A 
ATOM     34  C   UNL     1      -6.353  12.752  23.532  0.00  0.00    +0.000 A 
ATOM     35  F   UNL     1      -7.678  12.851  23.699  0.00  0.00    +0.000 F 
ATOM     36  C   UNL     1      -5.547  12.434  24.617  0.00  0.00    +0.000 A 
ATOM     37  C   UNL     1      -4.163  12.354  24.447  0.00  0.00    +0.000 A 
ENDBRANCH  30  31
ENDBRANCH  29  30
ENDBRANCH  26  29
ENDBRANCH  22  23
ENDBRANCH   3  21
TORSDOF 8
ENDMDL
MODEL 3
REMARK VINA RESULT:      -8.4      0.847      1.263
REMARK  Name = 
REMARK  9 active torsions:
REMARK  status: ('A' for Active; 'I' for Inactive)
REMARK    1  A    between atoms: C_1  and  C_2
REMARK    2  A    between atoms: C_2  and  C_3
REMARK    3  A    between atoms: C_3  and  C_4
REMARK    4  A    between atoms: C_5  and  C_6
REMARK    5  A    between atoms: N_8  and  N_9
REMARK    6  A    between atoms: C_10  and  C_11
REMARK    7  A    between atoms: C_14  and  O_15
REMARK    8  A    between atoms: O_15  and  C_16
REMARK    9  A    between atoms: C_16  and  C_17
REMARK                            x       y       z     vdW  Elec       q    Type
REMARK                         _______ _______ _______ _____ _____    ______ ____
ROOT
ATOM      1  C   UNL     1       6.946   7.521  17.475  0.00  0.00    +0.000 C 
ATOM      2  O   UNL     1       6.450   8.233  16.635  0.00  0.00    +0.000 OA
ATOM      3  N   UNL     1       8.087   7.866  18.251  0.00  0.00    +0.000 N 
ATOM      4  H   UNL     1       8.550   7.145  18.789  0.00  0.00    +0.000 HD
ENDROOT
BRANCH   1   6
ATOM      5  C   UNL     1       5.067   5.666  17.873  0.00  0.00    +0.000 A 
ATOM      6  C   UNL     1       6.379   6.180  17.825  0.00  0.00    +0.000 A 
ATOM      7  N   UNL     1       7.237   5.209  18.292  0.00  0.00    +0.000 NA
ATOM      8  N   UNL     1       6.534   4.152  18.659  0.00  0.00    +0.000 NA
ATOM      9  N   UNL     1       5.243   4.330  18.279  0.00  0.00    +0.000 N 
ATOM     10  C   UNL     1       4.291   3.272  18.318  0.00  0.00    +0.000 A 
ATOM     11  N   UNL     1       3.303   3.223  17.420  0.00  0.00    +0.000 NA
ATOM     12  O   UNL     1       2.635   2.035  17.705  0.00  0.00    +0.000 OA
ATOM     13  N   UNL     1       3.209   1.383  18.785  0.00  0.00    +0.000 NA
ATOM     14  C   UNL     1       4.218   2.161  19.179  0.00  0.00    +0.000 A 
ATOM     15  N   UNL     1       4.936   1.928  20.296  0.00  0.00    +0.000 N 
ATOM     16  H   UNL     1       4.571   1.214  20.923  0.00  0.00    +0.000 HD
ATOM     17  H   UNL     1       5.355   2.705  20.801  0.00  0.00    +0.000 HD
BRANCH   5  18
ATOM     18  C   UNL     1       3.667   6.214  17.674  0.00  0.00    +0.000 C 
BRANCH  18  20
ATOM     19  C   UNL     1       2.252   5.998  19.808  0.00  0.00    +0.000 C 
ATOM     20  C   UNL     1       3.097   6.894  18.909  0.00  0.00    +0.000 C 
ENDBRANCH  18  20
ENDBRANCH   5  18
ENDBRANCH   1   6
BRANCH   3  21
ATOM     21  N   UNL     1       8.743   9.077  18.093  0.00  0.00    +0.000 NA
ATOM     22  C   UNL     1       9.065   9.699  19.196  0.00  0.00    +0.000 C 
BRANCH  22  23
ATOM     23  C   UNL     1       9.830  10.972  19.235  0.00  0.00    +0.000 A 
ATOM     24  C   UNL     1      10.398  11.498  18.080  0.00  0.00    +0.000 A 
ATOM     25  C   UNL     1      11.117  12.685  18.126  0.00  0.00    +0.000 A 
ATOM     26  C   UNL     1      11.267  13.397  19.318  0.00  0.00    +0.000 A 
ATOM     27  C   UNL     1      10.734  12.854  20.497  0.00  0.00    +0.000 A 
ATOM     28  C   UNL     1      10.003  11.648  20.454  0.00  0.00    +0.000 A 
BRANCH  26  29
ATOM     29  O   UNL     1      11.914  14.613  19.363  0.00  0.00    +0.000 OA
BRANCH  29  30
ATOM     30  C   UNL     1      11.491  15.530  18.327  0.00  0.00    +0.000 C 
BRANCH  30  31
ATOM     31  C   UNL     1      10.177  16.177  18.688  0.00  0.00    +0.000 A 
ATOM     32  C   UNL     1      10.097  17.022  19.801  0.00  0.00    +0.000 A 
ATOM     33  C   UNL     1       8.878  17.592  20.163  0.00  0.00    +0.000 A 
ATOM     34  C   UNL     1       7.743  17.332  19.406  0.00  0.00    +0.000 A 
ATOM     35  F   UNL     1       6.570  17.866  19.770  0.00  0.00    +0.000 F 
ATOM     36  C   UNL     1       7.807  16.522  18.280  0.00  0.00    +0.000 A 
ATOM     37  C   UNL     1       9.026  15.946  17.915  0.00  0.00    +0.000 A 
ENDBRANCH  30  31
ENDBRANCH  29  30
ENDBRANCH  26  29
ENDBRANCH  22  23
ENDBRANCH   3  21
TORSDOF 8
ENDMDL
MODEL 4
REMARK VINA RESULT:      -8.3      0.827      1.496
REMARK  Name = 
REMARK  9 active torsions:
REMARK  status: ('A' for Active; 'I' for Inactive)
REMARK    1  A    between atoms: C_1  and  C_2
REMARK    2  A    between atoms: C_2  and  C_3
REMARK    3  A    between atoms: C_3  and  C_4
REMARK    4  A    between atoms: C_5  and  C_6
REMARK    5  A    between atoms: N_8  and  N_9
REMARK    6  A    between atoms: C_10  and  C_11
REMARK    7  A    between atoms: C_14  and  O_15
REMARK    8  A    between atoms: O_15  and  C_16
REMARK    9  A    between atoms: C_16  and  C_17
REMARK                            x       y       z     vdW  Elec       q    Type
REMARK                         _______ _______ _______ _____ _____    ______ ____
ROOT
ATOM      1  C   UNL     1       7.677   6.930  17.815  0.00  0.00    +0.000 C 
ATOM      2  O   UNL     1       7.964   7.181  16.668  0.00  0.00    +0.000 OA
ATOM      3  N   UNL     1       8.250   7.573  18.947  0.00  0.00    +0.000 N 
ATOM      4  H   UNL     1       8.099   7.175  19.864  0.00  0.00    +0.000 HD
ENDROOT
BRANCH   1   6
ATOM      5  C   UNL     1       5.346   5.633  17.686  0.00  0.00    +0.000 A 
ATOM      6  C   UNL     1       6.638   5.914  18.177  0.00  0.00    +0.000 A 
ATOM      7  N   UNL     1       6.871   5.098  19.262  0.00  0.00    +0.000 NA
ATOM      8  N   UNL     1       5.795   4.366  19.490  0.00  0.00    +0.000 NA
ATOM      9  N   UNL     1       4.916   4.549  18.472  0.00  0.00    +0.000 N 
ATOM     10  C   UNL     1       3.769   3.720  18.307  0.00  0.00    +0.000 A 
ATOM     11  N   UNL     1       3.302   3.455  17.084  0.00  0.00    +0.000 NA
ATOM     12  O   UNL     1       2.252   2.567  17.299  0.00  0.00    +0.000 OA
ATOM     13  N   UNL     1       2.075   2.317  18.651  0.00  0.00    +0.000 NA
ATOM     14  C   UNL     1       2.999   3.049  19.275  0.00  0.00    +0.000 A 
ATOM     15  N   UNL     1       3.056   3.177  20.616  0.00  0.00    +0.000 N 
ATOM     16  H   UNL     1       2.260   2.815  21.135  0.00  0.00    +0.000 HD
ATOM     17  H   UNL     1       3.431   4.028  21.029  0.00  0.00    +0.000 HD
BRANCH   5  18
ATOM     18  C   UNL     1       4.409   6.236  16.658  0.00  0.00    +0.000 C 
BRANCH  18  20
ATOM     19  C   UNL     1       5.734   4.978  14.850  0.00  0.00    +0.000 C 
ATOM     20  C   UNL     1       4.974   6.239  15.246  0.00  0.00    +0.000 C 
ENDBRANCH  18  20
ENDBRANCH   5  18
ENDBRANCH   1   6
BRANCH   3  21
ATOM     21  N   UNL     1       9.215   8.560  18.820  0.00  0.00    +0.000 NA
ATOM     22  C   UNL     1       8.810   9.783  19.043  0.00  0.00    +0.000 C 
BRANCH  22  23
ATOM     23  C   UNL     1       9.709  10.967  19.024  0.00  0.00    +0.000 A 
ATOM     24  C   UNL     1      10.245  11.435  17.830  0.00  0.00    +0.000 A 
ATOM     25  C   UNL     1      11.089  12.538  17.821  0.00  0.00    +0.000 A 
ATOM     26  C   UNL     1      11.400  13.223  18.998  0.00  0.00    +0.000 A 
ATOM     27  C   UNL     1      10.897  12.734  20.214  0.00  0.00    +0.000 A 
ATOM     28  C   UNL     1      10.040  11.613  20.225  0.00  0.00    +0.000 A 
BRANCH  26  29
ATOM     29  O   UNL     1      12.175  14.363  18.993  0.00  0.00    +0.000 OA
BRANCH  29  30
ATOM     30  C   UNL     1      11.776  15.328  17.993  0.00  0.00    +0.000 C 
BRANCH  30  31
ATOM     31  C   UNL     1      10.561  16.098  18.445  0.00  0.00    +0.000 A 
ATOM     32  C   UNL     1      10.652  16.963  19.543  0.00  0.00    +0.000 A 
ATOM     33  C   UNL     1       9.524  17.649  19.992  0.00  0.00    +0.000 A 
ATOM     34  C   UNL     1       8.311  17.484  19.335  0.00  0.00    +0.000 A 
ATOM     35  F   UNL     1       7.225  18.129  19.783  0.00  0.00    +0.000 F 
ATOM     36  C   UNL     1       8.207  16.655  18.227  0.00  0.00    +0.000 A 
ATOM     37  C   UNL     1       9.333  15.964  17.775  0.00  0.00    +0.000 A 
ENDBRANCH  30  31
ENDBRANCH  29  30
ENDBRANCH  26  29
ENDBRANCH  22  23
ENDBRANCH   3  21
TORSDOF 8
ENDMDL
MODEL 5
REMARK VINA RESULT:      -8.3      4.116     11.563
REMARK  Name = 
REMARK  9 active torsions:
REMARK  status: ('A' for Active; 'I' for Inactive)
REMARK    1  A    between atoms: C_1  and  C_2
REMARK    2  A    between atoms: C_2  and  C_3
REMARK    3  A    between atoms: C_3  and  C_4
REMARK    4  A    between atoms: C_5  and  C_6
REMARK    5  A    between atoms: N_8  and  N_9
REMARK    6  A    between atoms: C_10  and  C_11
REMARK    7  A    between atoms: C_14  and  O_15
REMARK    8  A    between atoms: O_15  and  C_16
REMARK    9  A    between atoms: C_16  and  C_17
REMARK                            x       y       z     vdW  Elec       q    Type
REMARK                         _______ _______ _______ _____ _____    ______ ____
ROOT
ATOM      1  C   UNL     1       9.253  10.478  19.118  0.00  0.00    +0.000 C 
ATOM      2  O   UNL     1       9.148  10.184  20.285  0.00  0.00    +0.000 OA
ATOM      3  N   UNL     1       8.815   9.660  18.039  0.00  0.00    +0.000 N 
ATOM      4  H   UNL     1       9.112   9.889  17.100  0.00  0.00    +0.000 HD
ENDROOT
BRANCH   1   6
ATOM      5  C   UNL     1       9.734  13.104  19.148  0.00  0.00    +0.000 A 
ATOM      6  C   UNL     1       9.837  11.782  18.669  0.00  0.00    +0.000 A 
ATOM      7  N   UNL     1      10.573  11.803  17.506  0.00  0.00    +0.000 NA
ATOM      8  N   UNL     1      10.892  13.053  17.219  0.00  0.00    +0.000 NA
ATOM      9  N   UNL     1      10.538  13.846  18.263  0.00  0.00    +0.000 N 
ATOM     10  C   UNL     1      10.964  15.201  18.359  0.00  0.00    +0.000 A 
ATOM     11  N   UNL     1      11.184  15.753  19.556  0.00  0.00    +0.000 NA
ATOM     12  O   UNL     1      11.659  17.029  19.267  0.00  0.00    +0.000 OA
ATOM     13  N   UNL     1      11.704  17.250  17.899  0.00  0.00    +0.000 NA
ATOM     14  C   UNL     1      11.250  16.128  17.339  0.00  0.00    +0.000 A 
ATOM     15  N   UNL     1      11.016  16.006  16.018  0.00  0.00    +0.000 N 
ATOM     16  H   UNL     1      11.047  16.866  15.475  0.00  0.00    +0.000 HD
ATOM     17  H   UNL     1      10.295  15.369  15.687  0.00  0.00    +0.000 HD
BRANCH   5  18
ATOM     18  C   UNL     1       8.966  13.817  20.244  0.00  0.00    +0.000 C 
BRANCH  18  20
ATOM     19  C   UNL     1       9.272  14.588  22.676  0.00  0.00    +0.000 C 
ATOM     20  C   UNL     1       9.450  13.479  21.646  0.00  0.00    +0.000 C 
ENDBRANCH  18  20
ENDBRANCH   5  18
ENDBRANCH   1   6
BRANCH   3  21
ATOM     21  N   UNL     1       8.225   8.423  18.249  0.00  0.00    +0.000 NA
ATOM     22  C   UNL     1       7.277   8.096  17.411  0.00  0.00    +0.000 C 
BRANCH  22  23
ATOM     23  C   UNL     1       6.574   6.787  17.429  0.00  0.00    +0.000 A 
ATOM     24  C   UNL     1       5.790   6.383  16.355  0.00  0.00    +0.000 A 
ATOM     25  C   UNL     1       5.132   5.161  16.383  0.00  0.00    +0.000 A 
ATOM     26  C   UNL     1       5.257   4.294  17.470  0.00  0.00    +0.000 A 
ATOM     27  C   UNL     1       6.012   4.709  18.578  0.00  0.00    +0.000 A 
ATOM     28  C   UNL     1       6.682   5.951  18.552  0.00  0.00    +0.000 A 
BRANCH  26  29
ATOM     29  O   UNL     1       4.669   3.047  17.479  0.00  0.00    +0.000 OA
BRANCH  29  30
ATOM     30  C   UNL     1       3.223   3.091  17.478  0.00  0.00    +0.000 C 
BRANCH  30  31
ATOM     31  C   UNL     1       2.716   4.062  18.514  0.00  0.00    +0.000 A 
ATOM     32  C   UNL     1       2.343   5.357  18.132  0.00  0.00    +0.000 A 
ATOM     33  C   UNL     1       1.910   6.274  19.089  0.00  0.00    +0.000 A 
ATOM     34  C   UNL     1       1.834   5.893  20.423  0.00  0.00    +0.000 A 
ATOM     35  F   UNL     1       1.436   6.784  21.341  0.00  0.00    +0.000 F 
ATOM     36  C   UNL     1       2.169   4.605  20.817  0.00  0.00    +0.000 A 
ATOM     37  C   UNL     1       2.606   3.684  19.862  0.00  0.00    +0.000 A 
ENDBRANCH  30  31
ENDBRANCH  29  30
ENDBRANCH  26  29
ENDBRANCH  22  23
ENDBRANCH   3  21
TORSDOF 8
ENDMDL
MODEL 6
REMARK VINA RESULT:      -8.3      4.581     12.103
REMARK  Name = 
REMARK  9 active torsions:
REMARK  status: ('A' for Active; 'I' for Inactive)
REMARK    1  A    between atoms: C_1  and  C_2
REMARK    2  A    between atoms: C_2  and  C_3
REMARK    3  A    between atoms: C_3  and  C_4
REMARK    4  A    between atoms: C_5  and  C_6
REMARK    5  A    between atoms: N_8  and  N_9
REMARK    6  A    between atoms: C_10  and  C_11
REMARK    7  A    between atoms: C_14  and  O_15
REMARK    8  A    between atoms: O_15  and  C_16
REMARK    9  A    between atoms: C_16  and  C_17
REMARK                            x       y       z     vdW  Elec       q    Type
REMARK                         _______ _______ _______ _____ _____    ______ ____
ROOT
ATOM      1  C   UNL     1       9.142  10.766  19.127  0.00  0.00    +0.000 C 
ATOM      2  O   UNL     1       8.593  10.651  20.197  0.00  0.00    +0.000 OA
ATOM      3  N   UNL     1       9.148   9.767  18.114  0.00  0.00    +0.000 N 
ATOM      4  H   UNL     1       9.785   9.864  17.335  0.00  0.00    +0.000 HD
ENDROOT
BRANCH   1   6
ATOM      5  C   UNL     1       9.925  13.315  19.272  0.00  0.00    +0.000 A 
ATOM      6  C   UNL     1       9.862  12.016  18.726  0.00  0.00    +0.000 A 
ATOM      7  N   UNL     1      10.567  12.014  17.543  0.00  0.00    +0.000 NA
ATOM      8  N   UNL     1      11.022  13.232  17.310  0.00  0.00    +0.000 NA
ATOM      9  N   UNL     1      10.788  14.005  18.401  0.00  0.00    +0.000 N 
ATOM     10  C   UNL     1      11.370  15.296  18.552  0.00  0.00    +0.000 A 
ATOM     11  N   UNL     1      11.682  15.754  19.767  0.00  0.00    +0.000 NA
ATOM     12  O   UNL     1      12.295  16.981  19.528  0.00  0.00    +0.000 OA
ATOM     13  N   UNL     1      12.332  17.267  18.172  0.00  0.00    +0.000 NA
ATOM     14  C   UNL     1      11.738  16.235  17.571  0.00  0.00    +0.000 A 
ATOM     15  N   UNL     1      11.459  16.211  16.253  0.00  0.00    +0.000 N 
ATOM     16  H   UNL     1      11.577  17.089  15.753  0.00  0.00    +0.000 HD
ATOM     17  H   UNL     1      10.661  15.680  15.912  0.00  0.00    +0.000 HD
BRANCH   5  18
ATOM     18  C   UNL     1       9.271  14.052  20.425  0.00  0.00    +0.000 C 
BRANCH  18  20
ATOM     19  C   UNL     1       8.843  12.833  22.647  0.00  0.00    +0.000 C 
ATOM     20  C   UNL     1       9.806  13.646  21.790  0.00  0.00    +0.000 C 
ENDBRANCH  18  20
ENDBRANCH   5  18
ENDBRANCH   1   6
BRANCH   3  21
ATOM     21  N   UNL     1       8.514   8.546  18.284  0.00  0.00    +0.000 NA
ATOM     22  C   UNL     1       7.573   8.268  17.421  0.00  0.00    +0.000 C 
BRANCH  22  23
ATOM     23  C   UNL     1       6.828   6.983  17.396  0.00  0.00    +0.000 A 
ATOM     24  C   UNL     1       7.354   5.842  17.991  0.00  0.00    +0.000 A 
ATOM     25  C   UNL     1       6.653   4.643  17.958  0.00  0.00    +0.000 A 
ATOM     26  C   UNL     1       5.397   4.554  17.355  0.00  0.00    +0.000 A 
ATOM     27  C   UNL     1       4.875   5.688  16.715  0.00  0.00    +0.000 A 
ATOM     28  C   UNL     1       5.585   6.907  16.747  0.00  0.00    +0.000 A 
BRANCH  26  29
ATOM     29  O   UNL     1       4.659   3.389  17.380  0.00  0.00    +0.000 OA
BRANCH  29  30
ATOM     30  C   UNL     1       3.231   3.610  17.305  0.00  0.00    +0.000 C 
BRANCH  30  31
ATOM     31  C   UNL     1       2.584   3.394  18.649  0.00  0.00    +0.000 A 
ATOM     32  C   UNL     1       1.530   4.221  19.057  0.00  0.00    +0.000 A 
ATOM     33  C   UNL     1       0.952   4.053  20.314  0.00  0.00    +0.000 A 
ATOM     34  C   UNL     1       1.414   3.050  21.157  0.00  0.00    +0.000 A 
ATOM     35  F   UNL     1       0.869   2.906  22.372  0.00  0.00    +0.000 F 
ATOM     36  C   UNL     1       2.437   2.200  20.760  0.00  0.00    +0.000 A 
ATOM     37  C   UNL     1       3.022   2.366  19.502  0.00  0.00    +0.000 A 
ENDBRANCH  30  31
ENDBRANCH  29  30
ENDBRANCH  26  29
ENDBRANCH  22  23
ENDBRANCH   3  21
TORSDOF 8
ENDMDL
MODEL 7
REMARK VINA RESULT:      -8.2      7.667     10.251
REMARK  Name = 
REMARK  9 active torsions:
REMARK  status: ('A' for Active; 'I' for Inactive)
REMARK    1  A    between atoms: C_1  and  C_2
REMARK    2  A    between atoms: C_2  and  C_3
REMARK    3  A    between atoms: C_3  and  C_4
REMARK    4  A    between atoms: C_5  and  C_6
REMARK    5  A    between atoms: N_8  and  N_9
REMARK    6  A    between atoms: C_10  and  C_11
REMARK    7  A    between atoms: C_14  and  O_15
REMARK    8  A    between atoms: O_15  and  C_16
REMARK    9  A    between atoms: C_16  and  C_17
REMARK                            x       y       z     vdW  Elec       q    Type
REMARK                         _______ _______ _______ _____ _____    ______ ____
ROOT
ATOM      1  C   UNL     1       3.702   6.294  18.686  0.00  0.00    +0.000 C 
ATOM      2  O   UNL     1       3.888   5.656  19.695  0.00  0.00    +0.000 OA
ATOM      3  N   UNL     1       2.774   7.366  18.573  0.00  0.00    +0.000 N 
ATOM      4  H   UNL     1       2.541   7.717  17.653  0.00  0.00    +0.000 HD
ENDROOT
BRANCH   1   6
ATOM      5  C   UNL     1       4.718   4.887  16.657  0.00  0.00    +0.000 A 
ATOM      6  C   UNL     1       4.470   6.043  17.426  0.00  0.00    +0.000 A 
ATOM      7  N   UNL     1       5.187   7.083  16.879  0.00  0.00    +0.000 NA
ATOM      8  N   UNL     1       5.887   6.633  15.853  0.00  0.00    +0.000 NA
ATOM      9  N   UNL     1       5.513   5.354  15.595  0.00  0.00    +0.000 N 
ATOM     10  C   UNL     1       5.911   4.676  14.407  0.00  0.00    +0.000 A 
ATOM     11  N   UNL     1       5.105   3.767  13.850  0.00  0.00    +0.000 NA
ATOM     12  O   UNL     1       5.766   3.385  12.687  0.00  0.00    +0.000 OA
ATOM     13  N   UNL     1       6.977   4.048  12.556  0.00  0.00    +0.000 NA
ATOM     14  C   UNL     1       7.076   4.828  13.633  0.00  0.00    +0.000 A 
ATOM     15  N   UNL     1       8.186   5.531  13.934  0.00  0.00    +0.000 N 
ATOM     16  H   UNL     1       9.015   5.318  13.384  0.00  0.00    +0.000 HD
ATOM     17  H   UNL     1       8.410   5.735  14.905  0.00  0.00    +0.000 HD
BRANCH   5  18
ATOM     18  C   UNL     1       4.404   3.408  16.769  0.00  0.00    +0.000 C 
BRANCH  18  20
ATOM     19  C   UNL     1       2.840   2.320  18.495  0.00  0.00    +0.000 C 
ATOM     20  C   UNL     1       2.975   3.120  17.204  0.00  0.00    +0.000 C 
ENDBRANCH  18  20
ENDBRANCH   5  18
ENDBRANCH   1   6
BRANCH   3  21
ATOM     21  N   UNL     1       1.983   7.768  19.638  0.00  0.00    +0.000 NA
ATOM     22  C   UNL     1       1.669   9.037  19.667  0.00  0.00    +0.000 C 
BRANCH  22  23
ATOM     23  C   UNL     1       0.776   9.644  20.687  0.00  0.00    +0.000 A 
ATOM     24  C   UNL     1       0.342  10.958  20.565  0.00  0.00    +0.000 A 
ATOM     25  C   UNL     1      -0.488  11.520  21.526  0.00  0.00    +0.000 A 
ATOM     26  C   UNL     1      -0.932  10.779  22.624  0.00  0.00    +0.000 A 
ATOM     27  C   UNL     1      -0.466   9.464  22.780  0.00  0.00    +0.000 A 
ATOM     28  C   UNL     1       0.377   8.891  21.804  0.00  0.00    +0.000 A 
BRANCH  26  29
ATOM     29  O   UNL     1      -1.814  11.300  23.545  0.00  0.00    +0.000 OA
BRANCH  29  30
ATOM     30  C   UNL     1      -2.196  12.668  23.269  0.00  0.00    +0.000 C 
BRANCH  30  31
ATOM     31  C   UNL     1      -3.678  12.862  23.465  0.00  0.00    +0.000 A 
ATOM     32  C   UNL     1      -4.329  12.231  24.532  0.00  0.00    +0.000 A 
ATOM     33  C   UNL     1      -5.706  12.373  24.697  0.00  0.00    +0.000 A 
ATOM     34  C   UNL     1      -6.429  13.157  23.808  0.00  0.00    +0.000 A 
ATOM     35  F   UNL     1      -7.755  13.275  23.960  0.00  0.00    +0.000 F 
ATOM     36  C   UNL     1      -5.798  13.816  22.762  0.00  0.00    +0.000 A 
ATOM     37  C   UNL     1      -4.419  13.675  22.591  0.00  0.00    +0.000 A 
ENDBRANCH  30  31
ENDBRANCH  29  30
ENDBRANCH  26  29
ENDBRANCH  22  23
ENDBRANCH   3  21
TORSDOF 8
ENDMDL
MODEL 8
REMARK VINA RESULT:      -8.2      6.555     10.051
REMARK  Name = 
REMARK  9 active torsions:
REMARK  status: ('A' for Active; 'I' for Inactive)
REMARK    1  A    between atoms: C_1  and  C_2
REMARK    2  A    between atoms: C_2  and  C_3
REMARK    3  A    between atoms: C_3  and  C_4
REMARK    4  A    between atoms: C_5  and  C_6
REMARK    5  A    between atoms: N_8  and  N_9
REMARK    6  A    between atoms: C_10  and  C_11
REMARK    7  A    between atoms: C_14  and  O_15
REMARK    8  A    between atoms: O_15  and  C_16
REMARK    9  A    between atoms: C_16  and  C_17
REMARK                            x       y       z     vdW  Elec       q    Type
REMARK                         _______ _______ _______ _____ _____    ______ ____
ROOT
ATOM      1  C   UNL     1       3.899   5.628  18.890  0.00  0.00    +0.000 C 
ATOM      2  O   UNL     1       4.245   5.186  19.960  0.00  0.00    +0.000 OA
ATOM      3  N   UNL     1       2.887   6.613  18.715  0.00  0.00    +0.000 N 
ATOM      4  H   UNL     1       2.527   6.785  17.786  0.00  0.00    +0.000 HD
ENDROOT
BRANCH   1   6
ATOM      5  C   UNL     1       5.380   5.852  16.679  0.00  0.00    +0.000 A 
ATOM      6  C   UNL     1       4.535   5.202  17.603  0.00  0.00    +0.000 A 
ATOM      7  N   UNL     1       4.217   3.963  17.094  0.00  0.00    +0.000 NA
ATOM      8  N   UNL     1       4.777   3.827  15.906  0.00  0.00    +0.000 NA
ATOM      9  N   UNL     1       5.609   4.878  15.690  0.00  0.00    +0.000 N 
ATOM     10  C   UNL     1       6.533   4.899  14.607  0.00  0.00    +0.000 A 
ATOM     11  N   UNL     1       7.705   5.529  14.736  0.00  0.00    +0.000 NA
ATOM     12  O   UNL     1       8.369   5.274  13.540  0.00  0.00    +0.000 OA
ATOM     13  N   UNL     1       7.589   4.511  12.686  0.00  0.00    +0.000 NA
ATOM     14  C   UNL     1       6.444   4.300  13.337  0.00  0.00    +0.000 A 
ATOM     15  N   UNL     1       5.373   3.706  12.773  0.00  0.00    +0.000 N 
ATOM     16  H   UNL     1       5.417   3.565  11.767  0.00  0.00    +0.000 HD
ATOM     17  H   UNL     1       4.436   3.946  13.088  0.00  0.00    +0.000 HD
BRANCH   5  18
ATOM     18  C   UNL     1       5.961   7.243  16.515  0.00  0.00    +0.000 C 
BRANCH  18  20
ATOM     19  C   UNL     1       7.562   6.637  18.432  0.00  0.00    +0.000 C 
ATOM     20  C   UNL     1       7.342   7.403  17.133  0.00  0.00    +0.000 C 
ENDBRANCH  18  20
ENDBRANCH   5  18
ENDBRANCH   1   6
BRANCH   3  21
ATOM     21  N   UNL     1       2.195   7.152  19.788  0.00  0.00    +0.000 NA
ATOM     22  C   UNL     1       1.755   8.372  19.627  0.00  0.00    +0.000 C 
BRANCH  22  23
ATOM     23  C   UNL     1       0.935   9.095  20.633  0.00  0.00    +0.000 A 
ATOM     24  C   UNL     1       0.886   8.666  21.954  0.00  0.00    +0.000 A 
ATOM     25  C   UNL     1       0.112   9.344  22.887  0.00  0.00    +0.000 A 
ATOM     26  C   UNL     1      -0.614  10.484  22.536  0.00  0.00    +0.000 A 
ATOM     27  C   UNL     1      -0.606  10.901  21.197  0.00  0.00    +0.000 A 
ATOM     28  C   UNL     1       0.180  10.214  20.247  0.00  0.00    +0.000 A 
BRANCH  26  29
ATOM     29  O   UNL     1      -1.327  11.208  23.468  0.00  0.00    +0.000 OA
BRANCH  29  30
ATOM     30  C   UNL     1      -1.755  12.504  22.987  0.00  0.00    +0.000 C 
BRANCH  30  31
ATOM     31  C   UNL     1      -3.253  12.645  23.088  0.00  0.00    +0.000 A 
ATOM     32  C   UNL     1      -3.882  12.532  24.334  0.00  0.00    +0.000 A 
ATOM     33  C   UNL     1      -5.270  12.623  24.430  0.00  0.00    +0.000 A 
ATOM     34  C   UNL     1      -6.027  12.842  23.286  0.00  0.00    +0.000 A 
ATOM     35  F   UNL     1      -7.362  12.908  23.381  0.00  0.00    +0.000 F 
ATOM     36  C   UNL     1      -5.420  12.987  22.046  0.00  0.00    +0.000 A 
ATOM     37  C   UNL     1      -4.030  12.894  21.944  0.00  0.00    +0.000 A 
ENDBRANCH  30  31
ENDBRANCH  29  30
ENDBRANCH  26  29
ENDBRANCH  22  23
ENDBRANCH   3  21
TORSDOF 8
ENDMDL
MODEL 9
REMARK VINA RESULT:      -8.1      7.431      9.354
REMARK  Name = 
REMARK  9 active torsions:
REMARK  status: ('A' for Active; 'I' for Inactive)
REMARK    1  A    between atoms: C_1  and  C_2
REMARK    2  A    between atoms: C_2  and  C_3
REMARK    3  A    between atoms: C_3  and  C_4
REMARK    4  A    between atoms: C_5  and  C_6
REMARK    5  A    between atoms: N_8  and  N_9
REMARK    6  A    between atoms: C_10  and  C_11
REMARK    7  A    between atoms: C_14  and  O_15
REMARK    8  A    between atoms: O_15  and  C_16
REMARK    9  A    between atoms: C_16  and  C_17
REMARK                            x       y       z     vdW  Elec       q    Type
REMARK                         _______ _______ _______ _____ _____    ______ ____
ROOT
ATOM      1  C   UNL     1       3.632   6.215  18.638  0.00  0.00    +0.000 C 
ATOM      2  O   UNL     1       3.728   5.500  19.608  0.00  0.00    +0.000 OA
ATOM      3  N   UNL     1       2.797   7.364  18.566  0.00  0.00    +0.000 N 
ATOM      4  H   UNL     1       2.629   7.791  17.665  0.00  0.00    +0.000 HD
ENDROOT
BRANCH   1   6
ATOM      5  C   UNL     1       4.730   4.832  16.635  0.00  0.00    +0.000 A 
ATOM      6  C   UNL     1       4.426   5.984  17.390  0.00  0.00    +0.000 A 
ATOM      7  N   UNL     1       5.108   7.047  16.842  0.00  0.00    +0.000 NA
ATOM      8  N   UNL     1       5.839   6.616  15.830  0.00  0.00    +0.000 NA
ATOM      9  N   UNL     1       5.520   5.321  15.579  0.00  0.00    +0.000 N 
ATOM     10  C   UNL     1       5.960   4.649  14.402  0.00  0.00    +0.000 A 
ATOM     11  N   UNL     1       5.199   3.703  13.844  0.00  0.00    +0.000 NA
ATOM     12  O   UNL     1       5.890   3.338  12.693  0.00  0.00    +0.000 OA
ATOM     13  N   UNL     1       7.075   4.048  12.571  0.00  0.00    +0.000 NA
ATOM     14  C   UNL     1       7.129   4.841  13.642  0.00  0.00    +0.000 A 
ATOM     15  N   UNL     1       8.205   5.591  13.951  0.00  0.00    +0.000 N 
ATOM     16  H   UNL     1       9.049   5.406  13.414  0.00  0.00    +0.000 HD
ATOM     17  H   UNL     1       8.408   5.812  14.923  0.00  0.00    +0.000 HD
BRANCH   5  18
ATOM     18  C   UNL     1       4.474   3.342  16.758  0.00  0.00    +0.000 C 
BRANCH  18  20
ATOM     19  C   UNL     1       3.030   1.828  18.250  0.00  0.00    +0.000 C 
ATOM     20  C   UNL     1       3.087   3.003  17.280  0.00  0.00    +0.000 C 
ENDBRANCH  18  20
ENDBRANCH   5  18
ENDBRANCH   1   6
BRANCH   3  21
ATOM     21  N   UNL     1       2.000   7.760  19.629  0.00  0.00    +0.000 NA
ATOM     22  C   UNL     1       1.570   8.994  19.590  0.00  0.00    +0.000 C 
BRANCH  22  23
ATOM     23  C   UNL     1       0.651   9.581  20.599  0.00  0.00    +0.000 A 
ATOM     24  C   UNL     1       0.387   8.920  21.793  0.00  0.00    +0.000 A 
ATOM     25  C   UNL     1      -0.478   9.473  22.728  0.00  0.00    +0.000 A 
ATOM     26  C   UNL     1      -1.083  10.713  22.512  0.00  0.00    +0.000 A 
ATOM     27  C   UNL     1      -0.857  11.369  21.293  0.00  0.00    +0.000 A 
ATOM     28  C   UNL     1       0.022  10.809  20.341  0.00  0.00    +0.000 A 
BRANCH  26  29
ATOM     29  O   UNL     1      -1.885  11.307  23.464  0.00  0.00    +0.000 OA
BRANCH  29  30
ATOM     30  C   UNL     1      -2.678  12.402  22.948  0.00  0.00    +0.000 C 
BRANCH  30  31
ATOM     31  C   UNL     1      -2.415  13.667  23.726  0.00  0.00    +0.000 A 
ATOM     32  C   UNL     1      -1.224  14.376  23.524  0.00  0.00    +0.000 A 
ATOM     33  C   UNL     1      -0.957  15.524  24.267  0.00  0.00    +0.000 A 
ATOM     34  C   UNL     1      -1.884  15.974  25.198  0.00  0.00    +0.000 A 
ATOM     35  F   UNL     1      -1.614  17.068  25.924  0.00  0.00    +0.000 F 
ATOM     36  C   UNL     1      -3.085  15.304  25.391  0.00  0.00    +0.000 A 
ATOM     37  C   UNL     1      -3.356  14.151  24.651  0.00  0.00    +0.000 A 
ENDBRANCH  30  31
ENDBRANCH  29  30
ENDBRANCH  26  29
ENDBRANCH  22  23
ENDBRANCH   3  21
TORSDOF 8
ENDMDL
