MODEL 1
REMARK VINA RESULT:      -9.2      0.000      0.000
REMARK  Name = 
REMARK  7 active torsions:
REMARK  status: ('A' for Active; 'I' for Inactive)
REMARK    1  A    between atoms: S_2  and  N_4
REMARK    2  A    between atoms: S_2  and  C_24
REMARK    3  A    between atoms: N_4  and  C_5
REMARK    4  A    between atoms: C_5  and  C_6
REMARK    5  A    between atoms: C_6  and  C_7
REMARK    6  A    between atoms: C_7  and  C_8
REMARK    7  A    between atoms: C_8  and  N_9
REMARK                            x       y       z     vdW  Elec       q    Type
REMARK                         _______ _______ _______ _____ _____    ______ ____
ROOT
ATOM      1  C   UNL     1       2.240   6.876  20.614  0.00  0.00    +0.000 C 
ENDROOT
BRANCH   1   2
ATOM      2  C   UNL     1       1.196   7.821  21.196  0.00  0.00    +0.000 C 
BRANCH   2   3
ATOM      3  N   UNL     1       1.155   9.083  20.457  0.00  0.00    +0.000 NA
ATOM      4  H   UNL     1       2.012   9.375  19.990  0.00  0.00    +0.000 HD
BRANCH   3   6
ATOM      5  O   UNL     1      -0.246   9.822  22.431  0.00  0.00    +0.000 OA
ATOM      6  S   UNL     1       0.378  10.367  21.245  0.00  0.00    +0.000 S 
ATOM      7  O   UNL     1       1.284  11.488  21.290  0.00  0.00    +0.000 OA
BRANCH   6   8
ATOM      8  C   UNL     1      -0.927  10.746  20.104  0.00  0.00    +0.000 A 
ATOM      9  C   UNL     1      -1.837  11.769  20.371  0.00  0.00    +0.000 A 
ATOM     10  C   UNL     1      -2.813  12.073  19.419  0.00  0.00    +0.000 A 
ATOM     11  C   UNL     1      -2.874  11.374  18.201  0.00  0.00    +0.000 A 
ATOM     12  C   UNL     1      -3.824  11.688  17.215  0.00  0.00    +0.000 A 
ATOM     13  C   UNL     1      -3.857  10.991  16.006  0.00  0.00    +0.000 A 
ATOM     14  C   UNL     1      -2.950   9.963  15.767  0.00  0.00    +0.000 A 
ATOM     15  C   UNL     1      -2.006   9.629  16.735  0.00  0.00    +0.000 A 
ATOM     16  C   UNL     1      -1.953  10.327  17.951  0.00  0.00    +0.000 A 
ATOM     17  C   UNL     1      -0.994  10.012  18.915  0.00  0.00    +0.000 A 
ENDBRANCH   6   8
ENDBRANCH   3   6
ENDBRANCH   2   3
ENDBRANCH   1   2
BRANCH   1  18
ATOM     18  C   UNL     1       1.596   5.526  20.271  0.00  0.00    +0.000 C 
BRANCH  18  19
ATOM     19  C   UNL     1       2.469   4.646  19.361  0.00  0.00    +0.000 C 
BRANCH  19  20
ATOM     20  N   UNL     1       2.351   5.020  17.944  0.00  0.00    +0.000 NA
ATOM     21  C   UNL     1       3.154   6.226  17.614  0.00  0.00    +0.000 C 
ATOM     22  C   UNL     1       4.682   6.013  17.709  0.00  0.00    +0.000 C 
ATOM     23  N   UNL     1       5.051   4.892  16.844  0.00  0.00    +0.000 N 
ATOM     24  C   UNL     1       6.032   5.047  15.918  0.00  0.00    +0.000 A 
ATOM     25  N   UNL     1       7.122   5.808  16.093  0.00  0.00    +0.000 NA
ATOM     26  O   UNL     1       7.850   5.723  14.924  0.00  0.00    +0.000 OA
ATOM     27  C   UNL     1       7.180   4.956  14.029  0.00  0.00    +0.000 A 
ATOM     28  C   UNL     1       7.586   4.676  12.727  0.00  0.00    +0.000 A 
ATOM     29  C   UNL     1       6.719   3.890  11.961  0.00  0.00    +0.000 A 
ATOM     30  C   UNL     1       5.511   3.429  12.485  0.00  0.00    +0.000 A 
ATOM     31  C   UNL     1       5.135   3.732  13.799  0.00  0.00    +0.000 A 
ATOM     32  C   UNL     1       6.005   4.501  14.600  0.00  0.00    +0.000 A 
ATOM     33  C   UNL     1       4.318   3.647  17.068  0.00  0.00    +0.000 C 
ATOM     34  C   UNL     1       2.794   3.914  17.055  0.00  0.00    +0.000 C 
ENDBRANCH  19  20
ENDBRANCH  18  19
ENDBRANCH   1  18
TORSDOF 7
ENDMDL
MODEL 2
REMARK VINA RESULT:      -9.1      1.675      2.617
REMARK  Name = 
REMARK  7 active torsions:
REMARK  status: ('A' for Active; 'I' for Inactive)
REMARK    1  A    between atoms: S_2  and  N_4
REMARK    2  A    between atoms: S_2  and  C_24
REMARK    3  A    between atoms: N_4  and  C_5
REMARK    4  A    between atoms: C_5  and  C_6
REMARK    5  A    between atoms: C_6  and  C_7
REMARK    6  A    between atoms: C_7  and  C_8
REMARK    7  A    between atoms: C_8  and  N_9
REMARK                            x       y       z     vdW  Elec       q    Type
REMARK                         _______ _______ _______ _____ _____    ______ ____
ROOT
ATOM      1  C   UNL     1       1.871   5.879  21.197  0.00  0.00    +0.000 C 
ENDROOT
BRANCH   1   2
ATOM      2  C   UNL     1       1.551   7.252  20.620  0.00  0.00    +0.000 C 
BRANCH   2   3
ATOM      3  N   UNL     1       1.728   8.303  21.624  0.00  0.00    +0.000 NA
ATOM      4  H   UNL     1       2.378   8.111  22.384  0.00  0.00    +0.000 HD
BRANCH   3   6
ATOM      5  O   UNL     1      -0.778   8.118  21.924  0.00  0.00    +0.000 OA
ATOM      6  S   UNL     1       0.303   9.048  22.160  0.00  0.00    +0.000 S 
ATOM      7  O   UNL     1       0.556   9.633  23.454  0.00  0.00    +0.000 OA
BRANCH   6   8
ATOM      8  C   UNL     1       0.123  10.360  20.977  0.00  0.00    +0.000 A 
ATOM      9  C   UNL     1      -0.610  10.171  19.806  0.00  0.00    +0.000 A 
ATOM     10  C   UNL     1      -0.776  11.247  18.930  0.00  0.00    +0.000 A 
ATOM     11  C   UNL     1      -0.230  12.508  19.226  0.00  0.00    +0.000 A 
ATOM     12  C   UNL     1      -0.416  13.612  18.378  0.00  0.00    +0.000 A 
ATOM     13  C   UNL     1       0.123  14.859  18.700  0.00  0.00    +0.000 A 
ATOM     14  C   UNL     1       0.864  15.021  19.866  0.00  0.00    +0.000 A 
ATOM     15  C   UNL     1       1.069  13.936  20.716  0.00  0.00    +0.000 A 
ATOM     16  C   UNL     1       0.525  12.679  20.412  0.00  0.00    +0.000 A 
ATOM     17  C   UNL     1       0.707  11.595  21.273  0.00  0.00    +0.000 A 
ENDBRANCH   6   8
ENDBRANCH   3   6
ENDBRANCH   2   3
ENDBRANCH   1   2
BRANCH   1  18
ATOM     18  C   UNL     1       1.352   4.780  20.261  0.00  0.00    +0.000 C 
BRANCH  18  19
ATOM     19  C   UNL     1       2.448   4.164  19.376  0.00  0.00    +0.000 C 
BRANCH  19  20
ATOM     20  N   UNL     1       2.331   4.582  17.971  0.00  0.00    +0.000 NA
ATOM     21  C   UNL     1       3.050   5.855  17.704  0.00  0.00    +0.000 C 
ATOM     22  C   UNL     1       4.588   5.750  17.825  0.00  0.00    +0.000 C 
ATOM     23  N   UNL     1       5.054   4.692  16.928  0.00  0.00    +0.000 N 
ATOM     24  C   UNL     1       6.039   4.953  16.030  0.00  0.00    +0.000 A 
ATOM     25  N   UNL     1       7.067   5.783  16.258  0.00  0.00    +0.000 NA
ATOM     26  O   UNL     1       7.822   5.797  15.103  0.00  0.00    +0.000 OA
ATOM     27  C   UNL     1       7.228   5.019  14.165  0.00  0.00    +0.000 A 
ATOM     28  C   UNL     1       7.679   4.819  12.863  0.00  0.00    +0.000 A 
ATOM     29  C   UNL     1       6.886   4.004  12.050  0.00  0.00    +0.000 A 
ATOM     30  C   UNL     1       5.705   3.437  12.529  0.00  0.00    +0.000 A 
ATOM     31  C   UNL     1       5.282   3.660  13.845  0.00  0.00    +0.000 A 
ATOM     32  C   UNL     1       6.078   4.458  14.692  0.00  0.00    +0.000 A 
ATOM     33  C   UNL     1       4.409   3.390  17.089  0.00  0.00    +0.000 C 
ATOM     34  C   UNL     1       2.870   3.547  17.052  0.00  0.00    +0.000 C 
ENDBRANCH  19  20
ENDBRANCH  18  19
ENDBRANCH   1  18
TORSDOF 7
ENDMDL
MODEL 3
REMARK VINA RESULT:      -9.0      7.715     10.626
REMARK  Name = 
REMARK  7 active torsions:
REMARK  status: ('A' for Active; 'I' for Inactive)
REMARK    1  A    between atoms: S_2  and  N_4
REMARK    2  A    between atoms: S_2  and  C_24
REMARK    3  A    between atoms: N_4  and  C_5
REMARK    4  A    between atoms: C_5  and  C_6
REMARK    5  A    between atoms: C_6  and  C_7
REMARK    6  A    between atoms: C_7  and  C_8
REMARK    7  A    between atoms: C_8  and  N_9
REMARK                            x       y       z     vdW  Elec       q    Type
REMARK                         _______ _______ _______ _____ _____    ______ ____
ROOT
ATOM      1  C   UNL     1       8.350   8.874  17.498  0.00  0.00    +0.000 C 
ENDROOT
BRANCH   1   2
ATOM      2  C   UNL     1       7.119   7.977  17.500  0.00  0.00    +0.000 C 
BRANCH   2   3
ATOM      3  N   UNL     1       7.371   6.736  18.235  0.00  0.00    +0.000 NA
ATOM      4  H   UNL     1       8.159   6.732  18.881  0.00  0.00    +0.000 HD
BRANCH   3   6
ATOM      5  O   UNL     1       7.381   5.692  15.930  0.00  0.00    +0.000 OA
ATOM      6  S   UNL     1       7.274   5.312  17.321  0.00  0.00    +0.000 S 
ATOM      7  O   UNL     1       8.136   4.326  17.925  0.00  0.00    +0.000 OA
BRANCH   6   8
ATOM      8  C   UNL     1       5.588   4.828  17.596  0.00  0.00    +0.000 A 
ATOM      9  C   UNL     1       4.924   4.003  16.689  0.00  0.00    +0.000 A 
ATOM     10  C   UNL     1       3.617   3.599  16.973  0.00  0.00    +0.000 A 
ATOM     11  C   UNL     1       2.980   4.001  18.160  0.00  0.00    +0.000 A 
ATOM     12  C   UNL     1       1.680   3.576  18.482  0.00  0.00    +0.000 A 
ATOM     13  C   UNL     1       1.073   3.975  19.673  0.00  0.00    +0.000 A 
ATOM     14  C   UNL     1       1.748   4.813  20.556  0.00  0.00    +0.000 A 
ATOM     15  C   UNL     1       3.034   5.253  20.252  0.00  0.00    +0.000 A 
ATOM     16  C   UNL     1       3.662   4.852  19.063  0.00  0.00    +0.000 A 
ATOM     17  C   UNL     1       4.960   5.272  18.764  0.00  0.00    +0.000 A 
ENDBRANCH   6   8
ENDBRANCH   3   6
ENDBRANCH   2   3
ENDBRANCH   1   2
BRANCH   1  18
ATOM     18  C   UNL     1       8.585   9.453  18.899  0.00  0.00    +0.000 C 
BRANCH  18  19
ATOM     19  C   UNL     1       9.947  10.149  19.053  0.00  0.00    +0.000 C 
BRANCH  19  20
ATOM     20  N   UNL     1       9.852  11.393  19.830  0.00  0.00    +0.000 NA
ATOM     21  C   UNL     1      11.169  12.066  19.974  0.00  0.00    +0.000 C 
ATOM     22  C   UNL     1      11.744  12.620  18.650  0.00  0.00    +0.000 C 
ATOM     23  N   UNL     1      10.759  13.527  18.058  0.00  0.00    +0.000 N 
ATOM     24  C   UNL     1      11.127  14.785  17.703  0.00  0.00    +0.000 A 
ATOM     25  N   UNL     1      12.332  15.109  17.213  0.00  0.00    +0.000 NA
ATOM     26  O   UNL     1      12.317  16.474  17.007  0.00  0.00    +0.000 OA
ATOM     27  C   UNL     1      11.128  16.979  17.417  0.00  0.00    +0.000 A 
ATOM     28  C   UNL     1      10.761  18.322  17.399  0.00  0.00    +0.000 A 
ATOM     29  C   UNL     1       9.494  18.626  17.907  0.00  0.00    +0.000 A 
ATOM     30  C   UNL     1       8.660  17.628  18.410  0.00  0.00    +0.000 A 
ATOM     31  C   UNL     1       9.062  16.287  18.413  0.00  0.00    +0.000 A 
ATOM     32  C   UNL     1      10.326  15.952  17.882  0.00  0.00    +0.000 A 
ATOM     33  C   UNL     1       9.416  12.978  17.877  0.00  0.00    +0.000 C 
ATOM     34  C   UNL     1       8.910  12.354  19.199  0.00  0.00    +0.000 C 
ENDBRANCH  19  20
ENDBRANCH  18  19
ENDBRANCH   1  18
TORSDOF 7
ENDMDL
MODEL 4
REMARK VINA RESULT:      -8.9      7.930     10.942
REMARK  Name = 
REMARK  7 active torsions:
REMARK  status: ('A' for Active; 'I' for Inactive)
REMARK    1  A    between atoms: S_2  and  N_4
REMARK    2  A    between atoms: S_2  and  C_24
REMARK    3  A    between atoms: N_4  and  C_5
REMARK    4  A    between atoms: C_5  and  C_6
REMARK    5  A    between atoms: C_6  and  C_7
REMARK    6  A    between atoms: C_7  and  C_8
REMARK    7  A    between atoms: C_8  and  N_9
REMARK                            x       y       z     vdW  Elec       q    Type
REMARK                         _______ _______ _______ _____ _____    ______ ____
ROOT
ATOM      1  C   UNL     1       7.536   9.085  17.772  0.00  0.00    +0.000 C 
ENDROOT
BRANCH   1   2
ATOM      2  C   UNL     1       7.627   7.673  17.205  0.00  0.00    +0.000 C 
BRANCH   2   3
ATOM      3  N   UNL     1       6.992   6.703  18.098  0.00  0.00    +0.000 NA
ATOM      4  H   UNL     1       7.174   6.804  19.095  0.00  0.00    +0.000 HD
BRANCH   3   6
ATOM      5  O   UNL     1       7.320   5.102  16.166  0.00  0.00    +0.000 OA
ATOM      6  S   UNL     1       7.056   5.088  17.587  0.00  0.00    +0.000 S 
ATOM      7  O   UNL     1       7.871   4.349  18.520  0.00  0.00    +0.000 OA
BRANCH   6   8
ATOM      8  C   UNL     1       5.368   4.583  17.794  0.00  0.00    +0.000 A 
ATOM      9  C   UNL     1       4.721   3.829  16.815  0.00  0.00    +0.000 A 
ATOM     10  C   UNL     1       3.411   3.403  17.044  0.00  0.00    +0.000 A 
ATOM     11  C   UNL     1       2.752   3.712  18.247  0.00  0.00    +0.000 A 
ATOM     12  C   UNL     1       1.448   3.262  18.513  0.00  0.00    +0.000 A 
ATOM     13  C   UNL     1       0.819   3.568  19.721  0.00  0.00    +0.000 A 
ATOM     14  C   UNL     1       1.477   4.336  20.677  0.00  0.00    +0.000 A 
ATOM     15  C   UNL     1       2.767   4.800  20.430  0.00  0.00    +0.000 A 
ATOM     16  C   UNL     1       3.417   4.492  19.225  0.00  0.00    +0.000 A 
ATOM     17  C   UNL     1       4.718   4.934  18.982  0.00  0.00    +0.000 A 
ENDBRANCH   6   8
ENDBRANCH   3   6
ENDBRANCH   2   3
ENDBRANCH   1   2
BRANCH   1  18
ATOM     18  C   UNL     1       8.801   9.412  18.577  0.00  0.00    +0.000 C 
BRANCH  18  19
ATOM     19  C   UNL     1       9.716  10.438  17.887  0.00  0.00    +0.000 C 
BRANCH  19  20
ATOM     20  N   UNL     1      10.466  11.253  18.853  0.00  0.00    +0.000 NA
ATOM     21  C   UNL     1      11.621  11.945  18.225  0.00  0.00    +0.000 C 
ATOM     22  C   UNL     1      11.224  13.037  17.204  0.00  0.00    +0.000 C 
ATOM     23  N   UNL     1      10.342  13.997  17.868  0.00  0.00    +0.000 N 
ATOM     24  C   UNL     1      10.631  15.323  17.823  0.00  0.00    +0.000 A 
ATOM     25  N   UNL     1      11.192  15.938  16.772  0.00  0.00    +0.000 NA
ATOM     26  O   UNL     1      11.345  17.263  17.130  0.00  0.00    +0.000 OA
ATOM     27  C   UNL     1      10.924  17.437  18.407  0.00  0.00    +0.000 A 
ATOM     28  C   UNL     1      10.961  18.631  19.123  0.00  0.00    +0.000 A 
ATOM     29  C   UNL     1      10.509  18.575  20.445  0.00  0.00    +0.000 A 
ATOM     30  C   UNL     1      10.060  17.379  21.004  0.00  0.00    +0.000 A 
ATOM     31  C   UNL     1      10.038  16.197  20.254  0.00  0.00    +0.000 A 
ATOM     32  C   UNL     1      10.465  16.233  18.910  0.00  0.00    +0.000 A 
ATOM     33  C   UNL     1       9.171  13.430  18.535  0.00  0.00    +0.000 C 
ATOM     34  C   UNL     1       9.598  12.282  19.481  0.00  0.00    +0.000 C 
ENDBRANCH  19  20
ENDBRANCH  18  19
ENDBRANCH   1  18
TORSDOF 7
ENDMDL
MODEL 5
REMARK VINA RESULT:      -8.9      3.835     10.015
REMARK  Name = 
REMARK  7 active torsions:
REMARK  status: ('A' for Active; 'I' for Inactive)
REMARK    1  A    between atoms: S_2  and  N_4
REMARK    2  A    between atoms: S_2  and  C_24
REMARK    3  A    between atoms: N_4  and  C_5
REMARK    4  A    between atoms: C_5  and  C_6
REMARK    5  A    between atoms: C_6  and  C_7
REMARK    6  A    between atoms: C_7  and  C_8
REMARK    7  A    between atoms: C_8  and  N_9
REMARK                            x       y       z     vdW  Elec       q    Type
REMARK                         _______ _______ _______ _____ _____    ______ ____
ROOT
ATOM      1  C   UNL     1       0.981   4.417  20.411  0.00  0.00    +0.000 C 
ENDROOT
BRANCH   1   2
ATOM      2  C   UNL     1       1.593   3.168  21.032  0.00  0.00    +0.000 C 
BRANCH   2   3
ATOM      3  N   UNL     1       3.055   3.229  21.012  0.00  0.00    +0.000 NA
ATOM      4  H   UNL     1       3.483   4.130  21.218  0.00  0.00    +0.000 HD
BRANCH   3   6
ATOM      5  O   UNL     1       4.900   1.669  20.259  0.00  0.00    +0.000 OA
ATOM      6  S   UNL     1       3.803   2.437  19.713  0.00  0.00    +0.000 S 
ATOM      7  O   UNL     1       2.777   1.847  18.890  0.00  0.00    +0.000 OA
BRANCH   6   8
ATOM      8  C   UNL     1       4.516   3.801  18.830  0.00  0.00    +0.000 A 
ATOM      9  C   UNL     1       3.836   4.403  17.771  0.00  0.00    +0.000 A 
ATOM     10  C   UNL     1       4.408   5.510  17.141  0.00  0.00    +0.000 A 
ATOM     11  C   UNL     1       5.642   6.027  17.571  0.00  0.00    +0.000 A 
ATOM     12  C   UNL     1       6.217   7.162  16.975  0.00  0.00    +0.000 A 
ATOM     13  C   UNL     1       7.437   7.666  17.429  0.00  0.00    +0.000 A 
ATOM     14  C   UNL     1       8.107   7.040  18.476  0.00  0.00    +0.000 A 
ATOM     15  C   UNL     1       7.559   5.908  19.074  0.00  0.00    +0.000 A 
ATOM     16  C   UNL     1       6.328   5.395  18.637  0.00  0.00    +0.000 A 
ATOM     17  C   UNL     1       5.764   4.275  19.249  0.00  0.00    +0.000 A 
ENDBRANCH   6   8
ENDBRANCH   3   6
ENDBRANCH   2   3
ENDBRANCH   1   2
BRANCH   1  18
ATOM     18  C   UNL     1       1.880   5.632  20.675  0.00  0.00    +0.000 C 
BRANCH  18  19
ATOM     19  C   UNL     1       1.700   6.761  19.646  0.00  0.00    +0.000 C 
BRANCH  19  20
ATOM     20  N   UNL     1       2.058   8.077  20.195  0.00  0.00    +0.000 NA
ATOM     21  C   UNL     1       1.977   9.151  19.172  0.00  0.00    +0.000 C 
ATOM     22  C   UNL     1       0.542   9.448  18.679  0.00  0.00    +0.000 C 
ATOM     23  N   UNL     1      -0.291   9.771  19.839  0.00  0.00    +0.000 N 
ATOM     24  C   UNL     1      -1.018  10.917  19.850  0.00  0.00    +0.000 A 
ATOM     25  N   UNL     1      -1.595  11.456  18.765  0.00  0.00    +0.000 NA
ATOM     26  O   UNL     1      -2.210  12.618  19.186  0.00  0.00    +0.000 OA
ATOM     27  C   UNL     1      -1.965  12.807  20.506  0.00  0.00    +0.000 A 
ATOM     28  C   UNL     1      -2.390  13.891  21.269  0.00  0.00    +0.000 A 
ATOM     29  C   UNL     1      -1.990  13.902  22.609  0.00  0.00    +0.000 A 
ATOM     30  C   UNL     1      -1.198  12.881  23.134  0.00  0.00    +0.000 A 
ATOM     31  C   UNL     1      -0.787  11.807  22.335  0.00  0.00    +0.000 A 
ATOM     32  C   UNL     1      -1.200  11.760  20.988  0.00  0.00    +0.000 A 
ATOM     33  C   UNL     1      -0.283   8.788  20.921  0.00  0.00    +0.000 C 
ATOM     34  C   UNL     1       1.171   8.450  21.327  0.00  0.00    +0.000 C 
ENDBRANCH  19  20
ENDBRANCH  18  19
ENDBRANCH   1  18
TORSDOF 7
ENDMDL
MODEL 6
REMARK VINA RESULT:      -8.8      1.978      3.079
REMARK  Name = 
REMARK  7 active torsions:
REMARK  status: ('A' for Active; 'I' for Inactive)
REMARK    1  A    between atoms: S_2  and  N_4
REMARK    2  A    between atoms: S_2  and  C_24
REMARK    3  A    between atoms: N_4  and  C_5
REMARK    4  A    between atoms: C_5  and  C_6
REMARK    5  A    between atoms: C_6  and  C_7
REMARK    6  A    between atoms: C_7  and  C_8
REMARK    7  A    between atoms: C_8  and  N_9
REMARK                            x       y       z     vdW  Elec       q    Type
REMARK                         _______ _______ _______ _____ _____    ______ ____
ROOT
ATOM      1  C   UNL     1       1.769   7.376  21.052  0.00  0.00    +0.000 C 
ENDROOT
BRANCH   1   2
ATOM      2  C   UNL     1       0.333   7.781  21.359  0.00  0.00    +0.000 C 
BRANCH   2   3
ATOM      3  N   UNL     1       0.057   9.143  20.898  0.00  0.00    +0.000 NA
ATOM      4  H   UNL     1       0.362   9.382  19.956  0.00  0.00    +0.000 HD
BRANCH   3   6
ATOM      5  O   UNL     1       0.373   9.767  23.329  0.00  0.00    +0.000 OA
ATOM      6  S   UNL     1       0.380  10.374  22.017  0.00  0.00    +0.000 S 
ATOM      7  O   UNL     1       1.492  11.152  21.528  0.00  0.00    +0.000 OA
BRANCH   6   8
ATOM      8  C   UNL     1      -1.091  11.359  21.895  0.00  0.00    +0.000 A 
ATOM      9  C   UNL     1      -1.499  11.888  20.671  0.00  0.00    +0.000 A 
ATOM     10  C   UNL     1      -2.694  12.609  20.610  0.00  0.00    +0.000 A 
ATOM     11  C   UNL     1      -3.487  12.788  21.756  0.00  0.00    +0.000 A 
ATOM     12  C   UNL     1      -4.710  13.478  21.709  0.00  0.00    +0.000 A 
ATOM     13  C   UNL     1      -5.489  13.631  22.857  0.00  0.00    +0.000 A 
ATOM     14  C   UNL     1      -5.055  13.108  24.072  0.00  0.00    +0.000 A 
ATOM     15  C   UNL     1      -3.840  12.430  24.143  0.00  0.00    +0.000 A 
ATOM     16  C   UNL     1      -3.051  12.258  22.995  0.00  0.00    +0.000 A 
ATOM     17  C   UNL     1      -1.845  11.558  23.056  0.00  0.00    +0.000 A 
ENDBRANCH   6   8
ENDBRANCH   3   6
ENDBRANCH   2   3
ENDBRANCH   1   2
BRANCH   1  18
ATOM     18  C   UNL     1       1.803   5.958  20.468  0.00  0.00    +0.000 C 
BRANCH  18  19
ATOM     19  C   UNL     1       3.052   5.678  19.615  0.00  0.00    +0.000 C 
BRANCH  19  20
ATOM     20  N   UNL     1       2.804   5.883  18.180  0.00  0.00    +0.000 NA
ATOM     21  C   UNL     1       3.662   6.953  17.610  0.00  0.00    +0.000 C 
ATOM     22  C   UNL     1       5.168   6.604  17.574  0.00  0.00    +0.000 C 
ATOM     23  N   UNL     1       5.338   5.352  16.835  0.00  0.00    +0.000 N 
ATOM     24  C   UNL     1       6.215   5.293  15.800  0.00  0.00    +0.000 A 
ATOM     25  N   UNL     1       7.379   5.958  15.758  0.00  0.00    +0.000 NA
ATOM     26  O   UNL     1       7.958   5.657  14.542  0.00  0.00    +0.000 OA
ATOM     27  C   UNL     1       7.127   4.855  13.832  0.00  0.00    +0.000 A 
ATOM     28  C   UNL     1       7.355   4.377  12.544  0.00  0.00    +0.000 A 
ATOM     29  C   UNL     1       6.342   3.592  11.985  0.00  0.00    +0.000 A 
ATOM     30  C   UNL     1       5.168   3.322  12.688  0.00  0.00    +0.000 A 
ATOM     31  C   UNL     1       4.972   3.821  13.981  0.00  0.00    +0.000 A 
ATOM     32  C   UNL     1       5.991   4.593  14.577  0.00  0.00    +0.000 A 
ATOM     33  C   UNL     1       4.532   4.224  17.299  0.00  0.00    +0.000 C 
ATOM     34  C   UNL     1       3.045   4.637  17.407  0.00  0.00    +0.000 C 
ENDBRANCH  19  20
ENDBRANCH  18  19
ENDBRANCH   1  18
TORSDOF 7
ENDMDL
MODEL 7
REMARK VINA RESULT:      -8.7      0.895      1.630
REMARK  Name = 
REMARK  7 active torsions:
REMARK  status: ('A' for Active; 'I' for Inactive)
REMARK    1  A    between atoms: S_2  and  N_4
REMARK    2  A    between atoms: S_2  and  C_24
REMARK    3  A    between atoms: N_4  and  C_5
REMARK    4  A    between atoms: C_5  and  C_6
REMARK    5  A    between atoms: C_6  and  C_7
REMARK    6  A    between atoms: C_7  and  C_8
REMARK    7  A    between atoms: C_8  and  N_9
REMARK                            x       y       z     vdW  Elec       q    Type
REMARK                         _______ _______ _______ _____ _____    ______ ____
ROOT
ATOM      1  C   UNL     1       2.442   7.119  20.464  0.00  0.00    +0.000 C 
ENDROOT
BRANCH   1   2
ATOM      2  C   UNL     1       1.311   8.120  20.660  0.00  0.00    +0.000 C 
BRANCH   2   3
ATOM      3  N   UNL     1       1.115   8.938  19.463  0.00  0.00    +0.000 NA
ATOM      4  H   UNL     1       1.800   8.837  18.716  0.00  0.00    +0.000 HD
BRANCH   3   6
ATOM      5  O   UNL     1       0.354  10.669  21.144  0.00  0.00    +0.000 OA
ATOM      6  S   UNL     1       0.695  10.556  19.744  0.00  0.00    +0.000 S 
ATOM      7  O   UNL     1       1.683  11.397  19.115  0.00  0.00    +0.000 OA
BRANCH   6   8
ATOM      8  C   UNL     1      -0.821  10.693  18.831  0.00  0.00    +0.000 A 
ATOM      9  C   UNL     1      -0.996  10.011  17.627  0.00  0.00    +0.000 A 
ATOM     10  C   UNL     1      -2.226  10.099  16.971  0.00  0.00    +0.000 A 
ATOM     11  C   UNL     1      -3.282  10.850  17.517  0.00  0.00    +0.000 A 
ATOM     12  C   UNL     1      -4.538  10.923  16.892  0.00  0.00    +0.000 A 
ATOM     13  C   UNL     1      -5.577  11.662  17.460  0.00  0.00    +0.000 A 
ATOM     14  C   UNL     1      -5.375  12.348  18.654  0.00  0.00    +0.000 A 
ATOM     15  C   UNL     1      -4.135  12.297  19.285  0.00  0.00    +0.000 A 
ATOM     16  C   UNL     1      -3.084  11.550  18.732  0.00  0.00    +0.000 A 
ATOM     17  C   UNL     1      -1.846  11.476  19.372  0.00  0.00    +0.000 A 
ENDBRANCH   6   8
ENDBRANCH   3   6
ENDBRANCH   2   3
ENDBRANCH   1   2
BRANCH   1  18
ATOM     18  C   UNL     1       1.874   5.701  20.317  0.00  0.00    +0.000 C 
BRANCH  18  19
ATOM     19  C   UNL     1       2.713   4.798  19.398  0.00  0.00    +0.000 C 
BRANCH  19  20
ATOM     20  N   UNL     1       2.536   5.131  17.977  0.00  0.00    +0.000 NA
ATOM     21  C   UNL     1       3.343   6.312  17.574  0.00  0.00    +0.000 C 
ATOM     22  C   UNL     1       4.870   6.075  17.606  0.00  0.00    +0.000 C 
ATOM     23  N   UNL     1       5.180   4.921  16.761  0.00  0.00    +0.000 N 
ATOM     24  C   UNL     1       6.120   5.031  15.786  0.00  0.00    +0.000 A 
ATOM     25  N   UNL     1       7.230   5.777  15.888  0.00  0.00    +0.000 NA
ATOM     26  O   UNL     1       7.902   5.643  14.690  0.00  0.00    +0.000 OA
ATOM     27  C   UNL     1       7.179   4.862  13.851  0.00  0.00    +0.000 A 
ATOM     28  C   UNL     1       7.520   4.536  12.541  0.00  0.00    +0.000 A 
ATOM     29  C   UNL     1       6.605   3.743  11.840  0.00  0.00    +0.000 A 
ATOM     30  C   UNL     1       5.415   3.320  12.432  0.00  0.00    +0.000 A 
ATOM     31  C   UNL     1       5.105   3.669  13.752  0.00  0.00    +0.000 A 
ATOM     32  C   UNL     1       6.024   4.446  14.488  0.00  0.00    +0.000 A 
ATOM     33  C   UNL     1       4.437   3.698  17.056  0.00  0.00    +0.000 C 
ATOM     34  C   UNL     1       2.919   3.992  17.104  0.00  0.00    +0.000 C 
ENDBRANCH  19  20
ENDBRANCH  18  19
ENDBRANCH   1  18
TORSDOF 7
ENDMDL
MODEL 8
REMARK VINA RESULT:      -8.6      8.112     11.284
REMARK  Name = 
REMARK  7 active torsions:
REMARK  status: ('A' for Active; 'I' for Inactive)
REMARK    1  A    between atoms: S_2  and  N_4
REMARK    2  A    between atoms: S_2  and  C_24
REMARK    3  A    between atoms: N_4  and  C_5
REMARK    4  A    between atoms: C_5  and  C_6
REMARK    5  A    between atoms: C_6  and  C_7
REMARK    6  A    between atoms: C_7  and  C_8
REMARK    7  A    between atoms: C_8  and  N_9
REMARK                            x       y       z     vdW  Elec       q    Type
REMARK                         _______ _______ _______ _____ _____    ______ ____
ROOT
ATOM      1  C   UNL     1       7.823   9.361  18.009  0.00  0.00    +0.000 C 
ENDROOT
BRANCH   1   2
ATOM      2  C   UNL     1       8.081   7.989  17.397  0.00  0.00    +0.000 C 
BRANCH   2   3
ATOM      3  N   UNL     1       7.485   6.928  18.209  0.00  0.00    +0.000 NA
ATOM      4  H   UNL     1       7.845   6.811  19.155  0.00  0.00    +0.000 HD
BRANCH   3   6
ATOM      5  O   UNL     1       7.381   5.698  16.000  0.00  0.00    +0.000 OA
ATOM      6  S   UNL     1       7.248   5.448  17.418  0.00  0.00    +0.000 S 
ATOM      7  O   UNL     1       8.017   4.438  18.104  0.00  0.00    +0.000 OA
BRANCH   6   8
ATOM      8  C   UNL     1       5.526   5.150  17.730  0.00  0.00    +0.000 A 
ATOM      9  C   UNL     1       4.594   6.183  17.642  0.00  0.00    +0.000 A 
ATOM     10  C   UNL     1       3.242   5.893  17.838  0.00  0.00    +0.000 A 
ATOM     11  C   UNL     1       2.817   4.580  18.105  0.00  0.00    +0.000 A 
ATOM     12  C   UNL     1       1.459   4.261  18.270  0.00  0.00    +0.000 A 
ATOM     13  C   UNL     1       1.059   2.947  18.519  0.00  0.00    +0.000 A 
ATOM     14  C   UNL     1       2.008   1.934  18.620  0.00  0.00    +0.000 A 
ATOM     15  C   UNL     1       3.361   2.231  18.470  0.00  0.00    +0.000 A 
ATOM     16  C   UNL     1       3.778   3.545  18.208  0.00  0.00    +0.000 A 
ATOM     17  C   UNL     1       5.130   3.843  18.034  0.00  0.00    +0.000 A 
ENDBRANCH   6   8
ENDBRANCH   3   6
ENDBRANCH   2   3
ENDBRANCH   1   2
BRANCH   1  18
ATOM     18  C   UNL     1       9.032   9.801  18.844  0.00  0.00    +0.000 C 
BRANCH  18  19
ATOM     19  C   UNL     1       9.895  10.871  18.155  0.00  0.00    +0.000 C 
BRANCH  19  20
ATOM     20  N   UNL     1      10.866  11.481  19.074  0.00  0.00    +0.000 NA
ATOM     21  C   UNL     1      11.671  12.542  18.415  0.00  0.00    +0.000 C 
ATOM     22  C   UNL     1      10.859  13.795  18.015  0.00  0.00    +0.000 C 
ATOM     23  N   UNL     1      10.188  14.316  19.206  0.00  0.00    +0.000 N 
ATOM     24  C   UNL     1      10.336  15.622  19.548  0.00  0.00    +0.000 A 
ATOM     25  N   UNL     1      10.446  16.626  18.665  0.00  0.00    +0.000 NA
ATOM     26  O   UNL     1      10.607  17.780  19.404  0.00  0.00    +0.000 OA
ATOM     27  C   UNL     1      10.644  17.472  20.723  0.00  0.00    +0.000 A 
ATOM     28  C   UNL     1      10.831  18.372  21.769  0.00  0.00    +0.000 A 
ATOM     29  C   UNL     1      10.873  17.828  23.056  0.00  0.00    +0.000 A 
ATOM     30  C   UNL     1      10.744  16.455  23.264  0.00  0.00    +0.000 A 
ATOM     31  C   UNL     1      10.558  15.579  22.189  0.00  0.00    +0.000 A 
ATOM     32  C   UNL     1      10.486  16.106  20.882  0.00  0.00    +0.000 A 
ATOM     33  C   UNL     1       9.372  13.357  19.949  0.00  0.00    +0.000 C 
ATOM     34  C   UNL     1      10.191  12.081  20.254  0.00  0.00    +0.000 C 
ENDBRANCH  19  20
ENDBRANCH  18  19
ENDBRANCH   1  18
TORSDOF 7
ENDMDL
MODEL 9
REMARK VINA RESULT:      -8.6      8.088     10.912
REMARK  Name = 
REMARK  7 active torsions:
REMARK  status: ('A' for Active; 'I' for Inactive)
REMARK    1  A    between atoms: S_2  and  N_4
REMARK    2  A    between atoms: S_2  and  C_24
REMARK    3  A    between atoms: N_4  and  C_5
REMARK    4  A    between atoms: C_5  and  C_6
REMARK    5  A    between atoms: C_6  and  C_7
REMARK    6  A    between atoms: C_7  and  C_8
REMARK    7  A    between atoms: C_8  and  N_9
REMARK                            x       y       z     vdW  Elec       q    Type
REMARK                         _______ _______ _______ _____ _____    ______ ____
ROOT
ATOM      1  C   UNL     1       8.577   8.329  18.384  0.00  0.00    +0.000 C 
ENDROOT
BRANCH   1   2
ATOM      2  C   UNL     1       7.481   7.920  17.408  0.00  0.00    +0.000 C 
BRANCH   2   3
ATOM      3  N   UNL     1       6.979   6.578  17.706  0.00  0.00    +0.000 NA
ATOM      4  H   UNL     1       7.632   5.926  18.137  0.00  0.00    +0.000 HD
BRANCH   3   6
ATOM      5  O   UNL     1       5.647   6.909  15.580  0.00  0.00    +0.000 OA
ATOM      6  S   UNL     1       6.051   5.856  16.486  0.00  0.00    +0.000 S 
ATOM      7  O   UNL     1       6.736   4.668  16.038  0.00  0.00    +0.000 OA
BRANCH   6   8
ATOM      8  C   UNL     1       4.603   5.364  17.385  0.00  0.00    +0.000 A 
ATOM      9  C   UNL     1       3.673   6.310  17.817  0.00  0.00    +0.000 A 
ATOM     10  C   UNL     1       2.518   5.874  18.471  0.00  0.00    +0.000 A 
ATOM     11  C   UNL     1       2.281   4.505  18.680  0.00  0.00    +0.000 A 
ATOM     12  C   UNL     1       1.109   4.044  19.302  0.00  0.00    +0.000 A 
ATOM     13  C   UNL     1       0.888   2.678  19.486  0.00  0.00    +0.000 A 
ATOM     14  C   UNL     1       1.836   1.752  19.061  0.00  0.00    +0.000 A 
ATOM     15  C   UNL     1       3.010   2.189  18.451  0.00  0.00    +0.000 A 
ATOM     16  C   UNL     1       3.242   3.558  18.250  0.00  0.00    +0.000 A 
ATOM     17  C   UNL     1       4.405   3.999  17.617  0.00  0.00    +0.000 A 
ENDBRANCH   6   8
ENDBRANCH   3   6
ENDBRANCH   2   3
ENDBRANCH   1   2
BRANCH   1  18
ATOM     18  C   UNL     1       8.516   9.840  18.644  0.00  0.00    +0.000 C 
BRANCH  18  19
ATOM     19  C   UNL     1       9.563  10.639  17.851  0.00  0.00    +0.000 C 
BRANCH  19  20
ATOM     20  N   UNL     1      10.513  11.337  18.729  0.00  0.00    +0.000 NA
ATOM     21  C   UNL     1      11.608  11.988  17.965  0.00  0.00    +0.000 C 
ATOM     22  C   UNL     1      11.146  13.167  17.078  0.00  0.00    +0.000 C 
ATOM     23  N   UNL     1      10.452  14.141  17.922  0.00  0.00    +0.000 N 
ATOM     24  C   UNL     1      10.833  15.444  17.903  0.00  0.00    +0.000 A 
ATOM     25  N   UNL     1      11.273  16.086  16.811  0.00  0.00    +0.000 NA
ATOM     26  O   UNL     1      11.580  17.371  17.210  0.00  0.00    +0.000 OA
ATOM     27  C   UNL     1      11.375  17.491  18.545  0.00  0.00    +0.000 A 
ATOM     28  C   UNL     1      11.612  18.631  19.309  0.00  0.00    +0.000 A 
ATOM     29  C   UNL     1      11.365  18.521  20.681  0.00  0.00    +0.000 A 
ATOM     30  C   UNL     1      10.915  17.325  21.239  0.00  0.00    +0.000 A 
ATOM     31  C   UNL     1      10.689  16.198  20.440  0.00  0.00    +0.000 A 
ATOM     32  C   UNL     1      10.906  16.292  19.049  0.00  0.00    +0.000 A 
ATOM     33  C   UNL     1       9.357  13.613  18.734  0.00  0.00    +0.000 C 
ATOM     34  C   UNL     1       9.833  12.380  19.539  0.00  0.00    +0.000 C 
ENDBRANCH  19  20
ENDBRANCH  18  19
ENDBRANCH   1  18
TORSDOF 7
ENDMDL
