MODEL 1
REMARK VINA RESULT:      -7.6      0.000      0.000
REMARK  Name = 
REMARK  6 active torsions:
REMARK  status: ('A' for Active; 'I' for Inactive)
REMARK    1  A    between atoms: C_1  and  C_2
REMARK    2  A    between atoms: C_2  and  O_3
REMARK    3  A    between atoms: O_3  and  C_4
REMARK    4  A    between atoms: C_12  and  C_13
REMARK    5  A    between atoms: C_17  and  C_18
REMARK    6  A    between atoms: C_21  and  C_22
REMARK                            x       y       z     vdW  Elec       q    Type
REMARK                         _______ _______ _______ _____ _____    ______ ____
ROOT
ATOM      1  C   UNL     1       4.532   5.010  17.953  0.00  0.00    +0.000 A 
ATOM      2  N   UNL     1       5.375   5.590  17.075  0.00  0.00    +0.000 NA
ATOM      3  C   UNL     1       5.100   6.850  16.775  0.00  0.00    +0.000 A 
ATOM      4  N   UNL     1       4.097   7.572  17.273  0.00  0.00    +0.000 NA
ATOM      5  C   UNL     1       3.247   6.984  18.153  0.00  0.00    +0.000 A 
ATOM      6  N   UNL     1       2.186   7.776  18.608  0.00  0.00    +0.000 N 
ATOM      7  C   UNL     1       2.044   7.988  20.056  0.00  0.00    +0.000 C 
ATOM      8  C   UNL     1       0.579   8.342  20.344  0.00  0.00    +0.000 C 
ATOM      9  C   UNL     1       0.084   9.547  19.535  0.00  0.00    +0.000 C 
ATOM     10  C   UNL     1       0.428   9.380  18.046  0.00  0.00    +0.000 C 
ATOM     11  C   UNL     1       1.873   8.951  17.784  0.00  0.00    +0.000 C 
ATOM     12  C   UNL     1       3.420   5.625  18.533  0.00  0.00    +0.000 A 
ENDROOT
BRANCH   9  13
ATOM     13  C   UNL     1       0.540  10.844  20.138  0.00  0.00    +0.000 A 
ATOM     14  N   UNL     1       1.397  11.725  19.521  0.00  0.00    +0.000 N 
ATOM     15  C   UNL     1       1.717  12.705  20.408  0.00  0.00    +0.000 A 
ATOM     16  N   UNL     1       1.051  12.570  21.527  0.00  0.00    +0.000 NA
ATOM     17  C   UNL     1       0.306  11.421  21.375  0.00  0.00    +0.000 A 
ATOM     18  C   UNL     1      -0.556  10.954  22.486  0.00  0.00    +0.000 C 
ATOM     19  H   UNL     1       1.795  11.642  18.600  0.00  0.00    +0.000 HD
ENDBRANCH   9  13
BRANCH  12  20
ATOM     20  C   UNL     1       2.516   4.902  19.485  0.00  0.00    +0.000 A 
ATOM     21  C   UNL     1       2.885   4.677  20.822  0.00  0.00    +0.000 A 
ATOM     22  C   UNL     1       2.213   3.745  21.621  0.00  0.00    +0.000 A 
ATOM     23  C   UNL     1       1.065   3.121  21.150  0.00  0.00    +0.000 A 
ATOM     24  C   UNL     1       0.583   3.447  19.889  0.00  0.00    +0.000 A 
ATOM     25  C   UNL     1       1.313   4.305  19.058  0.00  0.00    +0.000 A 
ENDBRANCH  12  20
BRANCH   1  26
ATOM     26  O   UNL     1       4.759   3.672  18.219  0.00  0.00    +0.000 OA
BRANCH  26  28
ATOM     27  C   UNL     1       3.557   1.615  18.147  0.00  0.00    +0.000 C 
ATOM     28  C   UNL     1       4.048   2.801  17.336  0.00  0.00    +0.000 C 
ENDBRANCH  26  28
ENDBRANCH   1  26
TORSDOF 4
ENDMDL
MODEL 2
REMARK VINA RESULT:      -7.3      2.009      3.932
REMARK  Name = 
REMARK  6 active torsions:
REMARK  status: ('A' for Active; 'I' for Inactive)
REMARK    1  A    between atoms: C_1  and  C_2
REMARK    2  A    between atoms: C_2  and  O_3
REMARK    3  A    between atoms: O_3  and  C_4
REMARK    4  A    between atoms: C_12  and  C_13
REMARK    5  A    between atoms: C_17  and  C_18
REMARK    6  A    between atoms: C_21  and  C_22
REMARK                            x       y       z     vdW  Elec       q    Type
REMARK                         _______ _______ _______ _____ _____    ______ ____
ROOT
ATOM      1  C   UNL     1       3.525   3.573  19.895  0.00  0.00    +0.000 A 
ATOM      2  N   UNL     1       2.711   3.033  20.824  0.00  0.00    +0.000 NA
ATOM      3  C   UNL     1       1.778   3.844  21.298  0.00  0.00    +0.000 A 
ATOM      4  N   UNL     1       1.576   5.108  20.927  0.00  0.00    +0.000 NA
ATOM      5  C   UNL     1       2.400   5.650  19.994  0.00  0.00    +0.000 A 
ATOM      6  N   UNL     1       2.170   6.994  19.675  0.00  0.00    +0.000 N 
ATOM      7  C   UNL     1       1.897   7.341  18.273  0.00  0.00    +0.000 C 
ATOM      8  C   UNL     1       2.260   8.818  18.069  0.00  0.00    +0.000 C 
ATOM      9  C   UNL     1       1.536   9.753  19.046  0.00  0.00    +0.000 C 
ATOM     10  C   UNL     1       1.678   9.246  20.490  0.00  0.00    +0.000 C 
ATOM     11  C   UNL     1       1.387   7.753  20.658  0.00  0.00    +0.000 C 
ATOM     12  C   UNL     1       3.460   4.888  19.429  0.00  0.00    +0.000 A 
ENDROOT
BRANCH   9  13
ATOM     13  C   UNL     1       0.122  10.017  18.615  0.00  0.00    +0.000 A 
ATOM     14  N   UNL     1      -0.398   9.644  17.398  0.00  0.00    +0.000 N 
ATOM     15  C   UNL     1      -1.644  10.178  17.281  0.00  0.00    +0.000 A 
ATOM     16  N   UNL     1      -2.002  10.793  18.380  0.00  0.00    +0.000 NA
ATOM     17  C   UNL     1      -0.918  10.697  19.226  0.00  0.00    +0.000 A 
ATOM     18  C   UNL     1      -0.978  11.322  20.568  0.00  0.00    +0.000 C 
ATOM     19  H   UNL     1       0.069   9.130  16.669  0.00  0.00    +0.000 HD
ENDBRANCH   9  13
BRANCH  12  20
ATOM     20  C   UNL     1       4.419   5.420  18.409  0.00  0.00    +0.000 A 
ATOM     21  C   UNL     1       4.184   5.273  17.031  0.00  0.00    +0.000 A 
ATOM     22  C   UNL     1       5.200   5.471  16.089  0.00  0.00    +0.000 A 
ATOM     23  C   UNL     1       6.436   5.962  16.488  0.00  0.00    +0.000 A 
ATOM     24  C   UNL     1       6.645   6.272  17.826  0.00  0.00    +0.000 A 
ATOM     25  C   UNL     1       5.659   5.981  18.776  0.00  0.00    +0.000 A 
ENDBRANCH  12  20
BRANCH   1  26
ATOM     26  O   UNL     1       4.552   2.764  19.445  0.00  0.00    +0.000 OA
BRANCH  26  28
ATOM     27  C   UNL     1       3.244   1.849  17.675  0.00  0.00    +0.000 C 
ATOM     28  C   UNL     1       4.088   1.529  18.895  0.00  0.00    +0.000 C 
ENDBRANCH  26  28
ENDBRANCH   1  26
TORSDOF 4
ENDMDL
MODEL 3
REMARK VINA RESULT:      -6.6      0.950      1.096
REMARK  Name = 
REMARK  6 active torsions:
REMARK  status: ('A' for Active; 'I' for Inactive)
REMARK    1  A    between atoms: C_1  and  C_2
REMARK    2  A    between atoms: C_2  and  O_3
REMARK    3  A    between atoms: O_3  and  C_4
REMARK    4  A    between atoms: C_12  and  C_13
REMARK    5  A    between atoms: C_17  and  C_18
REMARK    6  A    between atoms: C_21  and  C_22
REMARK                            x       y       z     vdW  Elec       q    Type
REMARK                         _______ _______ _______ _____ _____    ______ ____
ROOT
ATOM      1  C   UNL     1       4.236   5.543  17.498  0.00  0.00    +0.000 A 
ATOM      2  N   UNL     1       4.968   6.206  16.580  0.00  0.00    +0.000 NA
ATOM      3  C   UNL     1       4.618   7.467  16.380  0.00  0.00    +0.000 A 
ATOM      4  N   UNL     1       3.639   8.117  17.010  0.00  0.00    +0.000 NA
ATOM      5  C   UNL     1       2.900   7.445  17.930  0.00  0.00    +0.000 A 
ATOM      6  N   UNL     1       1.857   8.164  18.527  0.00  0.00    +0.000 N 
ATOM      7  C   UNL     1       1.846   8.291  19.991  0.00  0.00    +0.000 C 
ATOM      8  C   UNL     1       0.403   8.564  20.434  0.00  0.00    +0.000 C 
ATOM      9  C   UNL     1      -0.213   9.788  19.745  0.00  0.00    +0.000 C 
ATOM     10  C   UNL     1      -0.007   9.716  18.224  0.00  0.00    +0.000 C 
ATOM     11  C   UNL     1       1.422   9.366  17.805  0.00  0.00    +0.000 C 
ATOM     12  C   UNL     1       3.161   6.076  18.213  0.00  0.00    +0.000 A 
ENDROOT
BRANCH   9  13
ATOM     13  C   UNL     1       0.247  11.069  20.377  0.00  0.00    +0.000 A 
ATOM     14  N   UNL     1       1.172  11.919  19.818  0.00  0.00    +0.000 N 
ATOM     15  C   UNL     1       1.468  12.889  20.725  0.00  0.00    +0.000 A 
ATOM     16  N   UNL     1       0.726  12.779  21.797  0.00  0.00    +0.000 NA
ATOM     17  C   UNL     1      -0.047  11.656  21.597  0.00  0.00    +0.000 A 
ATOM     18  C   UNL     1      -0.996  11.221  22.650  0.00  0.00    +0.000 C 
ATOM     19  H   UNL     1       1.626  11.821  18.925  0.00  0.00    +0.000 HD
ENDBRANCH   9  13
BRANCH  12  20
ATOM     20  C   UNL     1       2.381   5.264  19.201  0.00  0.00    +0.000 A 
ATOM     21  C   UNL     1       2.746   5.206  20.557  0.00  0.00    +0.000 A 
ATOM     22  C   UNL     1       2.237   4.221  21.412  0.00  0.00    +0.000 A 
ATOM     23  C   UNL     1       1.241   3.362  20.970  0.00  0.00    +0.000 A 
ATOM     24  C   UNL     1       0.743   3.502  19.681  0.00  0.00    +0.000 A 
ATOM     25  C   UNL     1       1.323   4.423  18.801  0.00  0.00    +0.000 A 
ENDBRANCH  12  20
BRANCH   1  26
ATOM     26  O   UNL     1       4.539   4.204  17.663  0.00  0.00    +0.000 OA
BRANCH  26  28
ATOM     27  C   UNL     1       6.209   4.936  19.199  0.00  0.00    +0.000 C 
ATOM     28  C   UNL     1       5.895   3.985  18.058  0.00  0.00    +0.000 C 
ENDBRANCH  26  28
ENDBRANCH   1  26
TORSDOF 4
ENDMDL
MODEL 4
REMARK VINA RESULT:      -6.5      0.701      1.222
REMARK  Name = 
REMARK  6 active torsions:
REMARK  status: ('A' for Active; 'I' for Inactive)
REMARK    1  A    between atoms: C_1  and  C_2
REMARK    2  A    between atoms: C_2  and  O_3
REMARK    3  A    between atoms: O_3  and  C_4
REMARK    4  A    between atoms: C_12  and  C_13
REMARK    5  A    between atoms: C_17  and  C_18
REMARK    6  A    between atoms: C_21  and  C_22
REMARK                            x       y       z     vdW  Elec       q    Type
REMARK                         _______ _______ _______ _____ _____    ______ ____
ROOT
ATOM      1  C   UNL     1       4.638   4.871  18.046  0.00  0.00    +0.000 A 
ATOM      2  N   UNL     1       5.530   5.421  17.198  0.00  0.00    +0.000 NA
ATOM      3  C   UNL     1       5.299   6.684  16.875  0.00  0.00    +0.000 A 
ATOM      4  N   UNL     1       4.295   7.436  17.325  0.00  0.00    +0.000 NA
ATOM      5  C   UNL     1       3.396   6.878  18.176  0.00  0.00    +0.000 A 
ATOM      6  N   UNL     1       2.337   7.700  18.581  0.00  0.00    +0.000 N 
ATOM      7  C   UNL     1       2.144   7.930  20.020  0.00  0.00    +0.000 C 
ATOM      8  C   UNL     1       0.677   8.323  20.245  0.00  0.00    +0.000 C 
ATOM      9  C   UNL     1       0.245   9.531  19.405  0.00  0.00    +0.000 C 
ATOM     10  C   UNL     1       0.644   9.340  17.933  0.00  0.00    +0.000 C 
ATOM     11  C   UNL     1       2.087   8.874  17.734  0.00  0.00    +0.000 C 
ATOM     12  C   UNL     1       3.520   5.519  18.575  0.00  0.00    +0.000 A 
ENDROOT
BRANCH   9  13
ATOM     13  C   UNL     1       0.708  10.823  20.014  0.00  0.00    +0.000 A 
ATOM     14  N   UNL     1       0.397  11.233  21.289  0.00  0.00    +0.000 N 
ATOM     15  C   UNL     1       0.843  12.508  21.451  0.00  0.00    +0.000 A 
ATOM     16  N   UNL     1       1.507  12.917  20.400  0.00  0.00    +0.000 NA
ATOM     17  C   UNL     1       1.441  11.878  19.496  0.00  0.00    +0.000 A 
ATOM     18  C   UNL     1       2.077  12.023  18.165  0.00  0.00    +0.000 C 
ATOM     19  H   UNL     1      -0.137  10.728  21.977  0.00  0.00    +0.000 HD
ENDBRANCH   9  13
BRANCH  12  20
ATOM     20  C   UNL     1       2.561   4.828  19.497  0.00  0.00    +0.000 A 
ATOM     21  C   UNL     1       2.876   4.596  20.846  0.00  0.00    +0.000 A 
ATOM     22  C   UNL     1       2.147   3.688  21.624  0.00  0.00    +0.000 A 
ATOM     23  C   UNL     1       0.998   3.100  21.115  0.00  0.00    +0.000 A 
ATOM     24  C   UNL     1       0.570   3.436  19.837  0.00  0.00    +0.000 A 
ATOM     25  C   UNL     1       1.355   4.269  19.030  0.00  0.00    +0.000 A 
ENDBRANCH  12  20
BRANCH   1  26
ATOM     26  O   UNL     1       4.821   3.531  18.334  0.00  0.00    +0.000 OA
BRANCH  26  28
ATOM     27  C   UNL     1       3.581   1.496  18.303  0.00  0.00    +0.000 C 
ATOM     28  C   UNL     1       4.071   2.670  17.474  0.00  0.00    +0.000 C 
ENDBRANCH  26  28
ENDBRANCH   1  26
TORSDOF 4
ENDMDL
MODEL 5
REMARK VINA RESULT:      -6.3      2.812      7.329
REMARK  Name = 
REMARK  6 active torsions:
REMARK  status: ('A' for Active; 'I' for Inactive)
REMARK    1  A    between atoms: C_1  and  C_2
REMARK    2  A    between atoms: C_2  and  O_3
REMARK    3  A    between atoms: O_3  and  C_4
REMARK    4  A    between atoms: C_12  and  C_13
REMARK    5  A    between atoms: C_17  and  C_18
REMARK    6  A    between atoms: C_21  and  C_22
REMARK                            x       y       z     vdW  Elec       q    Type
REMARK                         _______ _______ _______ _____ _____    ______ ____
ROOT
ATOM      1  C   UNL     1       2.112   7.243  19.279  0.00  0.00    +0.000 A 
ATOM      2  N   UNL     1       2.034   8.499  18.799  0.00  0.00    +0.000 NA
ATOM      3  C   UNL     1       2.846   8.771  17.789  0.00  0.00    +0.000 A 
ATOM      4  N   UNL     1       3.695   7.918  17.217  0.00  0.00    +0.000 NA
ATOM      5  C   UNL     1       3.775   6.654  17.706  0.00  0.00    +0.000 A 
ATOM      6  N   UNL     1       4.716   5.815  17.096  0.00  0.00    +0.000 N 
ATOM      7  C   UNL     1       4.246   4.553  16.507  0.00  0.00    +0.000 C 
ATOM      8  C   UNL     1       5.435   3.584  16.449  0.00  0.00    +0.000 C 
ATOM      9  C   UNL     1       6.639   4.159  15.694  0.00  0.00    +0.000 C 
ATOM     10  C   UNL     1       6.979   5.569  16.205  0.00  0.00    +0.000 C 
ATOM     11  C   UNL     1       5.767   6.495  16.329  0.00  0.00    +0.000 C 
ATOM     12  C   UNL     1       2.973   6.249  18.809  0.00  0.00    +0.000 A 
ENDROOT
BRANCH   9  13
ATOM     13  C   UNL     1       6.459   4.063  14.206  0.00  0.00    +0.000 A 
ATOM     14  N   UNL     1       5.517   3.272  13.592  0.00  0.00    +0.000 N 
ATOM     15  C   UNL     1       5.739   3.304  12.250  0.00  0.00    +0.000 A 
ATOM     16  N   UNL     1       6.700   4.139  11.947  0.00  0.00    +0.000 NA
ATOM     17  C   UNL     1       7.156   4.627  13.152  0.00  0.00    +0.000 A 
ATOM     18  C   UNL     1       8.282   5.592  13.174  0.00  0.00    +0.000 C 
ATOM     19  H   UNL     1       4.822   2.695  14.037  0.00  0.00    +0.000 HD
ENDBRANCH   9  13
BRANCH  12  20
ATOM     20  C   UNL     1       3.016   4.880  19.414  0.00  0.00    +0.000 A 
ATOM     21  C   UNL     1       4.215   4.322  19.888  0.00  0.00    +0.000 A 
ATOM     22  C   UNL     1       4.333   2.952  20.154  0.00  0.00    +0.000 A 
ATOM     23  C   UNL     1       3.215   2.131  20.092  0.00  0.00    +0.000 A 
ATOM     24  C   UNL     1       1.979   2.687  19.783  0.00  0.00    +0.000 A 
ATOM     25  C   UNL     1       1.886   4.036  19.424  0.00  0.00    +0.000 A 
ENDBRANCH  12  20
BRANCH   1  26
ATOM     26  O   UNL     1       1.326   6.965  20.382  0.00  0.00    +0.000 OA
BRANCH  26  28
ATOM     27  C   UNL     1      -0.240   8.337  21.543  0.00  0.00    +0.000 C 
ATOM     28  C   UNL     1       1.232   8.065  21.290  0.00  0.00    +0.000 C 
ENDBRANCH  26  28
ENDBRANCH   1  26
TORSDOF 4
ENDMDL
MODEL 6
REMARK VINA RESULT:      -6.3      6.866      9.016
REMARK  Name = 
REMARK  6 active torsions:
REMARK  status: ('A' for Active; 'I' for Inactive)
REMARK    1  A    between atoms: C_1  and  C_2
REMARK    2  A    between atoms: C_2  and  O_3
REMARK    3  A    between atoms: O_3  and  C_4
REMARK    4  A    between atoms: C_12  and  C_13
REMARK    5  A    between atoms: C_17  and  C_18
REMARK    6  A    between atoms: C_21  and  C_22
REMARK                            x       y       z     vdW  Elec       q    Type
REMARK                         _______ _______ _______ _____ _____    ______ ____
ROOT
ATOM      1  C   UNL     1      -3.450  11.682  17.901  0.00  0.00    +0.000 A 
ATOM      2  N   UNL     1      -4.764  11.583  17.618  0.00  0.00    +0.000 NA
ATOM      3  C   UNL     1      -5.581  11.906  18.608  0.00  0.00    +0.000 A 
ATOM      4  N   UNL     1      -5.216  12.326  19.819  0.00  0.00    +0.000 NA
ATOM      5  C   UNL     1      -3.892  12.420  20.102  0.00  0.00    +0.000 A 
ATOM      6  N   UNL     1      -3.566  12.823  21.403  0.00  0.00    +0.000 N 
ATOM      7  C   UNL     1      -2.729  14.019  21.574  0.00  0.00    +0.000 C 
ATOM      8  C   UNL     1      -2.040  13.926  22.942  0.00  0.00    +0.000 C 
ATOM      9  C   UNL     1      -3.029  13.745  24.100  0.00  0.00    +0.000 C 
ATOM     10  C   UNL     1      -4.019  12.609  23.796  0.00  0.00    +0.000 C 
ATOM     11  C   UNL     1      -4.637  12.677  22.398  0.00  0.00    +0.000 C 
ATOM     12  C   UNL     1      -2.914  12.073  19.129  0.00  0.00    +0.000 A 
ENDROOT
BRANCH   9  13
ATOM     13  C   UNL     1      -3.673  15.045  24.487  0.00  0.00    +0.000 A 
ATOM     14  N   UNL     1      -4.979  15.374  24.212  0.00  0.00    +0.000 N 
ATOM     15  C   UNL     1      -5.176  16.675  24.559  0.00  0.00    +0.000 A 
ATOM     16  N   UNL     1      -4.113  17.182  25.129  0.00  0.00    +0.000 NA
ATOM     17  C   UNL     1      -3.167  16.179  25.101  0.00  0.00    +0.000 A 
ATOM     18  C   UNL     1      -1.814  16.432  25.650  0.00  0.00    +0.000 C 
ATOM     19  H   UNL     1      -5.669  14.797  23.760  0.00  0.00    +0.000 HD
ENDBRANCH   9  13
BRANCH  12  20
ATOM     20  C   UNL     1      -1.437  12.136  19.371  0.00  0.00    +0.000 A 
ATOM     21  C   UNL     1      -0.779  11.175  20.158  0.00  0.00    +0.000 A 
ATOM     22  C   UNL     1       0.514  11.391  20.650  0.00  0.00    +0.000 A 
ATOM     23  C   UNL     1       1.236  12.507  20.249  0.00  0.00    +0.000 A 
ATOM     24  C   UNL     1       0.670  13.393  19.340  0.00  0.00    +0.000 A 
ATOM     25  C   UNL     1      -0.657  13.223  18.928  0.00  0.00    +0.000 A 
ENDBRANCH  12  20
BRANCH   1  26
ATOM     26  O   UNL     1      -2.583  11.276  16.903  0.00  0.00    +0.000 OA
BRANCH  26  28
ATOM     27  C   UNL     1      -2.930  10.145  14.834  0.00  0.00    +0.000 C 
ATOM     28  C   UNL     1      -2.931  10.007  16.346  0.00  0.00    +0.000 C 
ENDBRANCH  26  28
ENDBRANCH   1  26
TORSDOF 4
ENDMDL
MODEL 7
REMARK VINA RESULT:      -6.3      2.018      3.812
REMARK  Name = 
REMARK  6 active torsions:
REMARK  status: ('A' for Active; 'I' for Inactive)
REMARK    1  A    between atoms: C_1  and  C_2
REMARK    2  A    between atoms: C_2  and  O_3
REMARK    3  A    between atoms: O_3  and  C_4
REMARK    4  A    between atoms: C_12  and  C_13
REMARK    5  A    between atoms: C_17  and  C_18
REMARK    6  A    between atoms: C_21  and  C_22
REMARK                            x       y       z     vdW  Elec       q    Type
REMARK                         _______ _______ _______ _____ _____    ______ ____
ROOT
ATOM      1  C   UNL     1       2.811   2.718  18.899  0.00  0.00    +0.000 A 
ATOM      2  N   UNL     1       1.814   2.101  19.564  0.00  0.00    +0.000 NA
ATOM      3  C   UNL     1       0.946   2.905  20.156  0.00  0.00    +0.000 A 
ATOM      4  N   UNL     1       0.969   4.238  20.129  0.00  0.00    +0.000 NA
ATOM      5  C   UNL     1       1.977   4.857  19.463  0.00  0.00    +0.000 A 
ATOM      6  N   UNL     1       1.977   6.256  19.507  0.00  0.00    +0.000 N 
ATOM      7  C   UNL     1       1.943   6.994  18.236  0.00  0.00    +0.000 C 
ATOM      8  C   UNL     1       2.528   8.391  18.481  0.00  0.00    +0.000 C 
ATOM      9  C   UNL     1       1.814   9.150  19.606  0.00  0.00    +0.000 C 
ATOM     10  C   UNL     1       1.692   8.271  20.862  0.00  0.00    +0.000 C 
ATOM     11  C   UNL     1       1.180   6.856  20.584  0.00  0.00    +0.000 C 
ATOM     12  C   UNL     1       2.989   4.100  18.810  0.00  0.00    +0.000 A 
ENDROOT
BRANCH   9  13
ATOM     13  C   UNL     1       0.520   9.749  19.136  0.00  0.00    +0.000 A 
ATOM     14  N   UNL     1       0.103   9.758  17.826  0.00  0.00    +0.000 N 
ATOM     15  C   UNL     1      -1.024  10.515  17.740  0.00  0.00    +0.000 A 
ATOM     16  N   UNL     1      -1.418  10.918  18.921  0.00  0.00    +0.000 NA
ATOM     17  C   UNL     1      -0.473  10.444  19.805  0.00  0.00    +0.000 A 
ATOM     18  C   UNL     1      -0.602  10.750  21.250  0.00  0.00    +0.000 C 
ATOM     19  H   UNL     1       0.573   9.349  17.035  0.00  0.00    +0.000 HD
ENDBRANCH   9  13
BRANCH  12  20
ATOM     20  C   UNL     1       4.140   4.709  18.069  0.00  0.00    +0.000 A 
ATOM     21  C   UNL     1       5.212   5.316  18.745  0.00  0.00    +0.000 A 
ATOM     22  C   UNL     1       6.115   6.156  18.083  0.00  0.00    +0.000 A 
ATOM     23  C   UNL     1       6.056   6.295  16.703  0.00  0.00    +0.000 A 
ATOM     24  C   UNL     1       5.105   5.577  15.987  0.00  0.00    +0.000 A 
ATOM     25  C   UNL     1       4.145   4.816  16.664  0.00  0.00    +0.000 A 
ENDBRANCH  12  20
BRANCH   1  26
ATOM     26  O   UNL     1       3.770   1.893  18.340  0.00  0.00    +0.000 OA
BRANCH  26  28
ATOM     27  C   UNL     1       4.886   1.824  20.445  0.00  0.00    +0.000 C 
ATOM     28  C   UNL     1       4.355   0.997  19.288  0.00  0.00    +0.000 C 
ENDBRANCH  26  28
ENDBRANCH   1  26
TORSDOF 4
ENDMDL
MODEL 8
REMARK VINA RESULT:      -6.3      2.904      7.658
REMARK  Name = 
REMARK  6 active torsions:
REMARK  status: ('A' for Active; 'I' for Inactive)
REMARK    1  A    between atoms: C_1  and  C_2
REMARK    2  A    between atoms: C_2  and  O_3
REMARK    3  A    between atoms: O_3  and  C_4
REMARK    4  A    between atoms: C_12  and  C_13
REMARK    5  A    between atoms: C_17  and  C_18
REMARK    6  A    between atoms: C_21  and  C_22
REMARK                            x       y       z     vdW  Elec       q    Type
REMARK                         _______ _______ _______ _____ _____    ______ ____
ROOT
ATOM      1  C   UNL     1      -0.481  10.711  21.991  0.00  0.00    +0.000 A 
ATOM      2  N   UNL     1      -0.064  10.387  23.232  0.00  0.00    +0.000 NA
ATOM      3  C   UNL     1       0.790   9.378  23.296  0.00  0.00    +0.000 A 
ATOM      4  N   UNL     1       1.268   8.690  22.259  0.00  0.00    +0.000 NA
ATOM      5  C   UNL     1       0.843   9.016  21.012  0.00  0.00    +0.000 A 
ATOM      6  N   UNL     1       1.343   8.231  19.965  0.00  0.00    +0.000 N 
ATOM      7  C   UNL     1       2.066   8.901  18.876  0.00  0.00    +0.000 C 
ATOM      8  C   UNL     1       1.991   8.004  17.633  0.00  0.00    +0.000 C 
ATOM      9  C   UNL     1       2.516   6.586  17.886  0.00  0.00    +0.000 C 
ATOM     10  C   UNL     1       1.882   5.989  19.152  0.00  0.00    +0.000 C 
ATOM     11  C   UNL     1       1.898   6.929  20.359  0.00  0.00    +0.000 C 
ATOM     12  C   UNL     1      -0.098  10.064  20.815  0.00  0.00    +0.000 A 
ENDROOT
BRANCH   9  13
ATOM     13  C   UNL     1       4.017   6.537  17.858  0.00  0.00    +0.000 A 
ATOM     14  N   UNL     1       4.805   7.403  17.138  0.00  0.00    +0.000 N 
ATOM     15  C   UNL     1       6.094   6.975  17.214  0.00  0.00    +0.000 A 
ATOM     16  N   UNL     1       6.206   5.944  18.013  0.00  0.00    +0.000 NA
ATOM     17  C   UNL     1       4.923   5.661  18.430  0.00  0.00    +0.000 A 
ATOM     18  C   UNL     1       4.684   4.514  19.339  0.00  0.00    +0.000 C 
ATOM     19  H   UNL     1       4.500   8.182  16.578  0.00  0.00    +0.000 HD
ENDBRANCH   9  13
BRANCH  12  20
ATOM     20  C   UNL     1      -0.626  10.471  19.473  0.00  0.00    +0.000 A 
ATOM     21  C   UNL     1      -0.346  11.734  18.924  0.00  0.00    +0.000 A 
ATOM     22  C   UNL     1      -1.078  12.243  17.845  0.00  0.00    +0.000 A 
ATOM     23  C   UNL     1      -2.009  11.445  17.195  0.00  0.00    +0.000 A 
ATOM     24  C   UNL     1      -2.191  10.133  17.615  0.00  0.00    +0.000 A 
ATOM     25  C   UNL     1      -1.528   9.662  18.754  0.00  0.00    +0.000 A 
ENDBRANCH  12  20
BRANCH   1  26
ATOM     26  O   UNL     1      -1.431  11.713  21.913  0.00  0.00    +0.000 OA
BRANCH  26  28
ATOM     27  C   UNL     1      -0.393  13.848  22.122  0.00  0.00    +0.000 C 
ATOM     28  C   UNL     1      -1.196  12.777  22.838  0.00  0.00    +0.000 C 
ENDBRANCH  26  28
ENDBRANCH   1  26
TORSDOF 4
ENDMDL
MODEL 9
REMARK VINA RESULT:      -6.1      2.726      7.323
REMARK  Name = 
REMARK  6 active torsions:
REMARK  status: ('A' for Active; 'I' for Inactive)
REMARK    1  A    between atoms: C_1  and  C_2
REMARK    2  A    between atoms: C_2  and  O_3
REMARK    3  A    between atoms: O_3  and  C_4
REMARK    4  A    between atoms: C_12  and  C_13
REMARK    5  A    between atoms: C_17  and  C_18
REMARK    6  A    between atoms: C_21  and  C_22
REMARK                            x       y       z     vdW  Elec       q    Type
REMARK                         _______ _______ _______ _____ _____    ______ ____
ROOT
ATOM      1  C   UNL     1       1.961   7.315  19.222  0.00  0.00    +0.000 A 
ATOM      2  N   UNL     1       2.013   8.591  18.790  0.00  0.00    +0.000 NA
ATOM      3  C   UNL     1       2.904   8.831  17.841  0.00  0.00    +0.000 A 
ATOM      4  N   UNL     1       3.716   7.932  17.284  0.00  0.00    +0.000 NA
ATOM      5  C   UNL     1       3.664   6.649  17.724  0.00  0.00    +0.000 A 
ATOM      6  N   UNL     1       4.570   5.758  17.135  0.00  0.00    +0.000 N 
ATOM      7  C   UNL     1       4.038   4.562  16.468  0.00  0.00    +0.000 C 
ATOM      8  C   UNL     1       5.146   3.501  16.439  0.00  0.00    +0.000 C 
ATOM      9  C   UNL     1       6.437   4.002  15.778  0.00  0.00    +0.000 C 
ATOM     10  C   UNL     1       6.856   5.359  16.366  0.00  0.00    +0.000 C 
ATOM     11  C   UNL     1       5.717   6.377  16.459  0.00  0.00    +0.000 C 
ATOM     12  C   UNL     1       2.767   6.272  18.761  0.00  0.00    +0.000 A 
ENDROOT
BRANCH   9  13
ATOM     13  C   UNL     1       6.339   3.975  14.280  0.00  0.00    +0.000 A 
ATOM     14  N   UNL     1       5.449   3.199  13.577  0.00  0.00    +0.000 N 
ATOM     15  C   UNL     1       5.743   3.301  12.253  0.00  0.00    +0.000 A 
ATOM     16  N   UNL     1       6.703   4.166  12.044  0.00  0.00    +0.000 NA
ATOM     17  C   UNL     1       7.082   4.603  13.295  0.00  0.00    +0.000 A 
ATOM     18  C   UNL     1       8.185   5.585  13.425  0.00  0.00    +0.000 C 
ATOM     19  H   UNL     1       4.742   2.589  13.955  0.00  0.00    +0.000 HD
ENDBRANCH   9  13
BRANCH  12  20
ATOM     20  C   UNL     1       2.663   4.882  19.310  0.00  0.00    +0.000 A 
ATOM     21  C   UNL     1       1.517   4.095  19.107  0.00  0.00    +0.000 A 
ATOM     22  C   UNL     1       1.273   2.944  19.867  0.00  0.00    +0.000 A 
ATOM     23  C   UNL     1       2.238   2.472  20.746  0.00  0.00    +0.000 A 
ATOM     24  C   UNL     1       3.452   3.141  20.848  0.00  0.00    +0.000 A 
ATOM     25  C   UNL     1       3.650   4.343  20.160  0.00  0.00    +0.000 A 
ENDBRANCH  12  20
BRANCH   1  26
ATOM     26  O   UNL     1       1.090   7.063  20.265  0.00  0.00    +0.000 OA
BRANCH  26  28
ATOM     27  C   UNL     1      -0.253   8.535  21.573  0.00  0.00    +0.000 C 
ATOM     28  C   UNL     1       1.159   8.048  21.299  0.00  0.00    +0.000 C 
ENDBRANCH  26  28
ENDBRANCH   1  26
TORSDOF 4
ENDMDL
