MODEL 1
REMARK VINA RESULT:      -9.9      0.000      0.000
REMARK  Name = 
REMARK  6 active torsions:
REMARK  status: ('A' for Active; 'I' for Inactive)
REMARK    1  A    between atoms: C_1  and  S_2
REMARK    2  A    between atoms: S_2  and  C_5
REMARK    3  A    between atoms: C_9  and  C_10
REMARK    4  A    between atoms: C_16  and  C_17
REMARK    5  A    between atoms: C_21  and  O_22
REMARK    6  A    between atoms: O_22  and  C_23
REMARK                            x       y       z     vdW  Elec       q    Type
REMARK                         _______ _______ _______ _____ _____    ______ ____
ROOT
ATOM      1  C   UNL     1       2.170   5.810  19.598  0.00  0.00    +0.000 A 
ATOM      2  C   UNL     1       1.568   4.774  20.448  0.00  0.00    +0.000 A 
ATOM      3  C   UNL     1       1.851   3.470  20.286  0.00  0.00    +0.000 A 
ATOM      4  C   UNL     1       2.748   3.069  19.268  0.00  0.00    +0.000 A 
ATOM      5  N   UNL     1       3.153   1.884  18.863  0.00  0.00    +0.000 NA
ATOM      6  N   UNL     1       4.017   2.080  17.814  0.00  0.00    +0.000 NA
ATOM      7  C   UNL     1       4.158   3.378  17.611  0.00  0.00    +0.000 A 
ATOM      8  N   UNL     1       3.330   4.058  18.490  0.00  0.00    +0.000 N 
ATOM      9  C   UNL     1       3.030   5.420  18.655  0.00  0.00    +0.000 A 
ENDROOT
BRANCH   1  14
ATOM     10  C   UNL     1       0.842   9.037  21.044  0.00  0.00    +0.000 A 
ATOM     11  C   UNL     1       0.999   9.921  19.974  0.00  0.00    +0.000 A 
ATOM     12  C   UNL     1       1.558   9.461  18.787  0.00  0.00    +0.000 A 
ATOM     13  C   UNL     1       1.961   8.122  18.670  0.00  0.00    +0.000 A 
ATOM     14  C   UNL     1       1.824   7.243  19.753  0.00  0.00    +0.000 A 
ATOM     15  C   UNL     1       1.277   7.707  20.950  0.00  0.00    +0.000 A 
BRANCH  10  17
ATOM     16  C   UNL     1      -0.476  11.231  22.125  0.00  0.00    +0.000 C 
ATOM     17  S   UNL     1       0.063   9.591  22.540  0.00  0.00    +0.000 S 
ATOM     18  O   UNL     1       1.088   9.695  23.559  0.00  0.00    +0.000 OA
ATOM     19  O   UNL     1      -1.115   8.765  22.747  0.00  0.00    +0.000 OA
ENDBRANCH  10  17
ENDBRANCH   1  14
BRANCH   7  20
ATOM     20  C   UNL     1       5.072   3.973  16.640  0.00  0.00    +0.000 A 
ATOM     21  C   UNL     1       5.147   3.461  15.339  0.00  0.00    +0.000 A 
ATOM     22  C   UNL     1       6.078   3.978  14.436  0.00  0.00    +0.000 A 
ATOM     23  C   UNL     1       6.940   5.002  14.826  0.00  0.00    +0.000 A 
ATOM     24  C   UNL     1       6.872   5.530  16.116  0.00  0.00    +0.000 A 
ATOM     25  C   UNL     1       5.956   4.992  17.010  0.00  0.00    +0.000 A 
BRANCH  24  26
ATOM     26  O   UNL     1       7.784   6.500  16.405  0.00  0.00    +0.000 OA
BRANCH  26  27
ATOM     27  C   UNL     1       7.501   7.362  17.504  0.00  0.00    +0.000 C 
ATOM     28  F   UNL     1       8.167   8.536  17.469  0.00  0.00    +0.000 F 
ATOM     29  F   UNL     1       6.177   7.624  17.545  0.00  0.00    +0.000 F 
ATOM     30  F   UNL     1       7.850   6.734  18.653  0.00  0.00    +0.000 F 
ENDBRANCH  26  27
ENDBRANCH  24  26
ENDBRANCH   7  20
TORSDOF 5
ENDMDL
MODEL 2
REMARK VINA RESULT:      -9.8      1.165      1.401
REMARK  Name = 
REMARK  6 active torsions:
REMARK  status: ('A' for Active; 'I' for Inactive)
REMARK    1  A    between atoms: C_1  and  S_2
REMARK    2  A    between atoms: S_2  and  C_5
REMARK    3  A    between atoms: C_9  and  C_10
REMARK    4  A    between atoms: C_16  and  C_17
REMARK    5  A    between atoms: C_21  and  O_22
REMARK    6  A    between atoms: O_22  and  C_23
REMARK                            x       y       z     vdW  Elec       q    Type
REMARK                         _______ _______ _______ _____ _____    ______ ____
ROOT
ATOM      1  C   UNL     1       2.175   6.751  19.658  0.00  0.00    +0.000 A 
ATOM      2  C   UNL     1       1.581   5.942  20.730  0.00  0.00    +0.000 A 
ATOM      3  C   UNL     1       1.887   4.643  20.892  0.00  0.00    +0.000 A 
ATOM      4  C   UNL     1       2.802   4.024  20.009  0.00  0.00    +0.000 A 
ATOM      5  N   UNL     1       3.231   2.783  19.907  0.00  0.00    +0.000 NA
ATOM      6  N   UNL     1       4.103   2.734  18.847  0.00  0.00    +0.000 NA
ATOM      7  C   UNL     1       4.225   3.947  18.335  0.00  0.00    +0.000 A 
ATOM      8  N   UNL     1       3.376   4.804  19.017  0.00  0.00    +0.000 N 
ATOM      9  C   UNL     1       3.052   6.159  18.843  0.00  0.00    +0.000 A 
ENDROOT
BRANCH   1  14
ATOM     10  C   UNL     1       0.695  10.180  20.225  0.00  0.00    +0.000 A 
ATOM     11  C   UNL     1       0.937  10.806  19.000  0.00  0.00    +0.000 A 
ATOM     12  C   UNL     1       1.603  10.109  17.998  0.00  0.00    +0.000 A 
ATOM     13  C   UNL     1       2.026   8.790  18.219  0.00  0.00    +0.000 A 
ATOM     14  C   UNL     1       1.803   8.172  19.457  0.00  0.00    +0.000 A 
ATOM     15  C   UNL     1       1.149   8.875  20.469  0.00  0.00    +0.000 A 
BRANCH  10  17
ATOM     16  C   UNL     1      -0.353   9.814  22.771  0.00  0.00    +0.000 C 
ATOM     17  S   UNL     1      -0.217  11.032  21.487  0.00  0.00    +0.000 S 
ATOM     18  O   UNL     1      -1.544  11.297  20.971  0.00  0.00    +0.000 OA
ATOM     19  O   UNL     1       0.625  12.113  21.975  0.00  0.00    +0.000 OA
ENDBRANCH  10  17
ENDBRANCH   1  14
BRANCH   7  20
ATOM     20  C   UNL     1       5.139   4.304  17.254  0.00  0.00    +0.000 A 
ATOM     21  C   UNL     1       5.225   3.502  16.110  0.00  0.00    +0.000 A 
ATOM     22  C   UNL     1       6.157   3.800  15.115  0.00  0.00    +0.000 A 
ATOM     23  C   UNL     1       7.008   4.894  15.256  0.00  0.00    +0.000 A 
ATOM     24  C   UNL     1       6.929   5.711  16.384  0.00  0.00    +0.000 A 
ATOM     25  C   UNL     1       6.012   5.390  17.377  0.00  0.00    +0.000 A 
BRANCH  24  26
ATOM     26  O   UNL     1       7.831   6.730  16.440  0.00  0.00    +0.000 OA
BRANCH  26  27
ATOM     27  C   UNL     1       7.707   7.662  17.511  0.00  0.00    +0.000 C 
ATOM     28  F   UNL     1       8.434   8.787  17.350  0.00  0.00    +0.000 F 
ATOM     29  F   UNL     1       6.410   8.008  17.660  0.00  0.00    +0.000 F 
ATOM     30  F   UNL     1       8.127   7.070  18.655  0.00  0.00    +0.000 F 
ENDBRANCH  26  27
ENDBRANCH  24  26
ENDBRANCH   7  20
TORSDOF 5
ENDMDL
MODEL 3
REMARK VINA RESULT:      -9.8      2.600      3.094
REMARK  Name = 
REMARK  6 active torsions:
REMARK  status: ('A' for Active; 'I' for Inactive)
REMARK    1  A    between atoms: C_1  and  S_2
REMARK    2  A    between atoms: S_2  and  C_5
REMARK    3  A    between atoms: C_9  and  C_10
REMARK    4  A    between atoms: C_16  and  C_17
REMARK    5  A    between atoms: C_21  and  O_22
REMARK    6  A    between atoms: O_22  and  C_23
REMARK                            x       y       z     vdW  Elec       q    Type
REMARK                         _______ _______ _______ _____ _____    ______ ____
ROOT
ATOM      1  C   UNL     1       2.280   6.618  19.658  0.00  0.00    +0.000 A 
ATOM      2  C   UNL     1       1.650   5.845  20.737  0.00  0.00    +0.000 A 
ATOM      3  C   UNL     1       1.947   4.552  20.950  0.00  0.00    +0.000 A 
ATOM      4  C   UNL     1       2.887   3.902  20.116  0.00  0.00    +0.000 A 
ATOM      5  N   UNL     1       3.315   2.657  20.069  0.00  0.00    +0.000 NA
ATOM      6  N   UNL     1       4.219   2.572  19.039  0.00  0.00    +0.000 NA
ATOM      7  C   UNL     1       4.361   3.767  18.492  0.00  0.00    +0.000 A 
ATOM      8  N   UNL     1       3.494   4.648  19.119  0.00  0.00    +0.000 N 
ATOM      9  C   UNL     1       3.180   5.998  18.891  0.00  0.00    +0.000 A 
ENDROOT
BRANCH   1  14
ATOM     10  C   UNL     1       0.832  10.080  20.087  0.00  0.00    +0.000 A 
ATOM     11  C   UNL     1       1.074  10.652  18.837  0.00  0.00    +0.000 A 
ATOM     12  C   UNL     1       1.728   9.908  17.861  0.00  0.00    +0.000 A 
ATOM     13  C   UNL     1       2.142   8.596  18.135  0.00  0.00    +0.000 A 
ATOM     14  C   UNL     1       1.920   8.032  19.399  0.00  0.00    +0.000 A 
ATOM     15  C   UNL     1       1.277   8.783  20.384  0.00  0.00    +0.000 A 
BRANCH  10  17
ATOM     16  C   UNL     1      -0.218   9.825  22.646  0.00  0.00    +0.000 C 
ATOM     17  S   UNL     1      -0.066  10.992  21.317  0.00  0.00    +0.000 S 
ATOM     18  O   UNL     1      -1.389  11.257  20.793  0.00  0.00    +0.000 OA
ATOM     19  O   UNL     1       0.792  12.078  21.764  0.00  0.00    +0.000 OA
ENDBRANCH  10  17
ENDBRANCH   1  14
BRANCH   7  20
ATOM     20  C   UNL     1       5.310   4.087  17.429  0.00  0.00    +0.000 A 
ATOM     21  C   UNL     1       6.641   4.387  17.740  0.00  0.00    +0.000 A 
ATOM     22  C   UNL     1       7.526   4.771  16.731  0.00  0.00    +0.000 A 
ATOM     23  C   UNL     1       7.088   4.861  15.410  0.00  0.00    +0.000 A 
ATOM     24  C   UNL     1       5.767   4.556  15.081  0.00  0.00    +0.000 A 
ATOM     25  C   UNL     1       4.892   4.196  16.098  0.00  0.00    +0.000 A 
BRANCH  24  26
ATOM     26  O   UNL     1       5.434   4.713  13.770  0.00  0.00    +0.000 OA
BRANCH  26  27
ATOM     27  C   UNL     1       5.932   3.749  12.845  0.00  0.00    +0.000 C 
ATOM     28  F   UNL     1       6.982   4.178  12.114  0.00  0.00    +0.000 F 
ATOM     29  F   UNL     1       6.300   2.634  13.509  0.00  0.00    +0.000 F 
ATOM     30  F   UNL     1       4.942   3.425  11.977  0.00  0.00    +0.000 F 
ENDBRANCH  26  27
ENDBRANCH  24  26
ENDBRANCH   7  20
TORSDOF 5
ENDMDL
MODEL 4
REMARK VINA RESULT:      -9.8      1.071      1.344
REMARK  Name = 
REMARK  6 active torsions:
REMARK  status: ('A' for Active; 'I' for Inactive)
REMARK    1  A    between atoms: C_1  and  S_2
REMARK    2  A    between atoms: S_2  and  C_5
REMARK    3  A    between atoms: C_9  and  C_10
REMARK    4  A    between atoms: C_16  and  C_17
REMARK    5  A    between atoms: C_21  and  O_22
REMARK    6  A    between atoms: O_22  and  C_23
REMARK                            x       y       z     vdW  Elec       q    Type
REMARK                         _______ _______ _______ _____ _____    ______ ____
ROOT
ATOM      1  C   UNL     1       2.173   6.742  19.640  0.00  0.00    +0.000 A 
ATOM      2  C   UNL     1       1.568   5.930  20.705  0.00  0.00    +0.000 A 
ATOM      3  C   UNL     1       1.866   4.630  20.863  0.00  0.00    +0.000 A 
ATOM      4  C   UNL     1       2.783   4.009  19.983  0.00  0.00    +0.000 A 
ATOM      5  N   UNL     1       3.205   2.766  19.879  0.00  0.00    +0.000 NA
ATOM      6  N   UNL     1       4.084   2.717  18.825  0.00  0.00    +0.000 NA
ATOM      7  C   UNL     1       4.216   3.931  18.319  0.00  0.00    +0.000 A 
ATOM      8  N   UNL     1       3.368   4.791  18.999  0.00  0.00    +0.000 N 
ATOM      9  C   UNL     1       3.052   6.148  18.829  0.00  0.00    +0.000 A 
ENDROOT
BRANCH   1  14
ATOM     10  C   UNL     1       0.710  10.176  20.213  0.00  0.00    +0.000 A 
ATOM     11  C   UNL     1       0.962  10.806  18.993  0.00  0.00    +0.000 A 
ATOM     12  C   UNL     1       1.629  10.109  17.991  0.00  0.00    +0.000 A 
ATOM     13  C   UNL     1       2.044   8.787  18.209  0.00  0.00    +0.000 A 
ATOM     14  C   UNL     1       1.811   8.165  19.443  0.00  0.00    +0.000 A 
ATOM     15  C   UNL     1       1.155   8.868  20.454  0.00  0.00    +0.000 A 
BRANCH  10  17
ATOM     16  C   UNL     1      -1.601  11.671  20.588  0.00  0.00    +0.000 C 
ATOM     17  S   UNL     1      -0.204  11.028  21.474  0.00  0.00    +0.000 S 
ATOM     18  O   UNL     1       0.600  12.145  21.925  0.00  0.00    +0.000 OA
ATOM     19  O   UNL     1      -0.685  10.026  22.413  0.00  0.00    +0.000 OA
ENDBRANCH  10  17
ENDBRANCH   1  14
BRANCH   7  20
ATOM     20  C   UNL     1       5.139   4.288  17.245  0.00  0.00    +0.000 A 
ATOM     21  C   UNL     1       5.230   3.488  16.100  0.00  0.00    +0.000 A 
ATOM     22  C   UNL     1       6.171   3.786  15.112  0.00  0.00    +0.000 A 
ATOM     23  C   UNL     1       7.025   4.877  15.262  0.00  0.00    +0.000 A 
ATOM     24  C   UNL     1       6.941   5.690  16.392  0.00  0.00    +0.000 A 
ATOM     25  C   UNL     1       6.016   5.370  17.378  0.00  0.00    +0.000 A 
BRANCH  24  26
ATOM     26  O   UNL     1       7.847   6.706  16.457  0.00  0.00    +0.000 OA
BRANCH  26  27
ATOM     27  C   UNL     1       7.702   7.650  17.515  0.00  0.00    +0.000 C 
ATOM     28  F   UNL     1       6.433   8.064  17.714  0.00  0.00    +0.000 F 
ATOM     29  F   UNL     1       8.161   7.113  18.665  0.00  0.00    +0.000 F 
ATOM     30  F   UNL     1       8.445   8.746  17.226  0.00  0.00    +0.000 F 
ENDBRANCH  26  27
ENDBRANCH  24  26
ENDBRANCH   7  20
TORSDOF 5
ENDMDL
MODEL 5
REMARK VINA RESULT:      -9.7      2.542      3.002
REMARK  Name = 
REMARK  6 active torsions:
REMARK  status: ('A' for Active; 'I' for Inactive)
REMARK    1  A    between atoms: C_1  and  S_2
REMARK    2  A    between atoms: S_2  and  C_5
REMARK    3  A    between atoms: C_9  and  C_10
REMARK    4  A    between atoms: C_16  and  C_17
REMARK    5  A    between atoms: C_21  and  O_22
REMARK    6  A    between atoms: O_22  and  C_23
REMARK                            x       y       z     vdW  Elec       q    Type
REMARK                         _______ _______ _______ _____ _____    ______ ____
ROOT
ATOM      1  C   UNL     1       2.275   6.645  19.662  0.00  0.00    +0.000 A 
ATOM      2  C   UNL     1       1.638   5.875  20.740  0.00  0.00    +0.000 A 
ATOM      3  C   UNL     1       1.926   4.580  20.953  0.00  0.00    +0.000 A 
ATOM      4  C   UNL     1       2.863   3.924  20.120  0.00  0.00    +0.000 A 
ATOM      5  N   UNL     1       3.282   2.677  20.072  0.00  0.00    +0.000 NA
ATOM      6  N   UNL     1       4.188   2.586  19.044  0.00  0.00    +0.000 NA
ATOM      7  C   UNL     1       4.339   3.781  18.498  0.00  0.00    +0.000 A 
ATOM      8  N   UNL     1       3.477   4.667  19.124  0.00  0.00    +0.000 N 
ATOM      9  C   UNL     1       3.172   6.019  18.896  0.00  0.00    +0.000 A 
ENDROOT
BRANCH   1  14
ATOM     10  C   UNL     1       0.823  10.106  20.077  0.00  0.00    +0.000 A 
ATOM     11  C   UNL     1       1.099  10.687  18.837  0.00  0.00    +0.000 A 
ATOM     12  C   UNL     1       1.779   9.949  17.874  0.00  0.00    +0.000 A 
ATOM     13  C   UNL     1       2.182   8.633  18.151  0.00  0.00    +0.000 A 
ATOM     14  C   UNL     1       1.925   8.061  19.404  0.00  0.00    +0.000 A 
ATOM     15  C   UNL     1       1.256   8.806  20.376  0.00  0.00    +0.000 A 
BRANCH  10  17
ATOM     16  C   UNL     1      -1.477  11.640  20.352  0.00  0.00    +0.000 C 
ATOM     17  S   UNL     1      -0.107  11.012  21.288  0.00  0.00    +0.000 S 
ATOM     18  O   UNL     1       0.702  12.134  21.718  0.00  0.00    +0.000 OA
ATOM     19  O   UNL     1      -0.619  10.049  22.251  0.00  0.00    +0.000 OA
ENDBRANCH  10  17
ENDBRANCH   1  14
BRANCH   7  20
ATOM     20  C   UNL     1       5.291   4.095  17.437  0.00  0.00    +0.000 A 
ATOM     21  C   UNL     1       6.626   4.379  17.750  0.00  0.00    +0.000 A 
ATOM     22  C   UNL     1       7.515   4.758  16.743  0.00  0.00    +0.000 A 
ATOM     23  C   UNL     1       7.079   4.859  15.423  0.00  0.00    +0.000 A 
ATOM     24  C   UNL     1       5.755   4.569  15.092  0.00  0.00    +0.000 A 
ATOM     25  C   UNL     1       4.875   4.214  16.106  0.00  0.00    +0.000 A 
BRANCH  24  26
ATOM     26  O   UNL     1       5.425   4.735  13.781  0.00  0.00    +0.000 OA
BRANCH  26  27
ATOM     27  C   UNL     1       5.848   3.730  12.863  0.00  0.00    +0.000 C 
ATOM     28  F   UNL     1       6.241   2.580  13.449  0.00  0.00    +0.000 F 
ATOM     29  F   UNL     1       4.845   3.452  12.004  0.00  0.00    +0.000 F 
ATOM     30  F   UNL     1       6.902   4.203  12.154  0.00  0.00    +0.000 F 
ENDBRANCH  26  27
ENDBRANCH  24  26
ENDBRANCH   7  20
TORSDOF 5
ENDMDL
MODEL 6
REMARK VINA RESULT:      -9.3      2.271      2.891
REMARK  Name = 
REMARK  6 active torsions:
REMARK  status: ('A' for Active; 'I' for Inactive)
REMARK    1  A    between atoms: C_1  and  S_2
REMARK    2  A    between atoms: S_2  and  C_5
REMARK    3  A    between atoms: C_9  and  C_10
REMARK    4  A    between atoms: C_16  and  C_17
REMARK    5  A    between atoms: C_21  and  O_22
REMARK    6  A    between atoms: O_22  and  C_23
REMARK                            x       y       z     vdW  Elec       q    Type
REMARK                         _______ _______ _______ _____ _____    ______ ____
ROOT
ATOM      1  C   UNL     1       2.129   6.685  19.877  0.00  0.00    +0.000 A 
ATOM      2  C   UNL     1       1.333   5.931  20.856  0.00  0.00    +0.000 A 
ATOM      3  C   UNL     1       1.591   4.644  21.140  0.00  0.00    +0.000 A 
ATOM      4  C   UNL     1       2.653   3.980  20.481  0.00  0.00    +0.000 A 
ATOM      5  N   UNL     1       3.082   2.736  20.528  0.00  0.00    +0.000 NA
ATOM      6  N   UNL     1       4.140   2.633  19.659  0.00  0.00    +0.000 NA
ATOM      7  C   UNL     1       4.369   3.817  19.119  0.00  0.00    +0.000 A 
ATOM      8  N   UNL     1       3.413   4.708  19.580  0.00  0.00    +0.000 N 
ATOM      9  C   UNL     1       3.141   6.052  19.278  0.00  0.00    +0.000 A 
ENDROOT
BRANCH   1  14
ATOM     10  C   UNL     1       0.772  10.203  20.088  0.00  0.00    +0.000 A 
ATOM     11  C   UNL     1       1.059  10.702  18.816  0.00  0.00    +0.000 A 
ATOM     12  C   UNL     1       1.716   9.889  17.897  0.00  0.00    +0.000 A 
ATOM     13  C   UNL     1       2.084   8.582  18.250  0.00  0.00    +0.000 A 
ATOM     14  C   UNL     1       1.816   8.092  19.536  0.00  0.00    +0.000 A 
ATOM     15  C   UNL     1       1.171   8.912  20.463  0.00  0.00    +0.000 A 
BRANCH  10  17
ATOM     16  C   UNL     1      -0.374  10.103  22.617  0.00  0.00    +0.000 C 
ATOM     17  S   UNL     1      -0.129  11.203  21.246  0.00  0.00    +0.000 S 
ATOM     18  O   UNL     1      -1.422  11.498  20.663  0.00  0.00    +0.000 OA
ATOM     19  O   UNL     1       0.758  12.273  21.676  0.00  0.00    +0.000 OA
ENDBRANCH  10  17
ENDBRANCH   1  14
BRANCH   7  20
ATOM     20  C   UNL     1       5.477   4.118  18.216  0.00  0.00    +0.000 A 
ATOM     21  C   UNL     1       6.507   4.972  18.627  0.00  0.00    +0.000 A 
ATOM     22  C   UNL     1       7.522   5.323  17.735  0.00  0.00    +0.000 A 
ATOM     23  C   UNL     1       7.514   4.828  16.432  0.00  0.00    +0.000 A 
ATOM     24  C   UNL     1       6.500   3.968  16.009  0.00  0.00    +0.000 A 
ATOM     25  C   UNL     1       5.484   3.644  16.900  0.00  0.00    +0.000 A 
BRANCH  24  26
ATOM     26  O   UNL     1       6.565   3.573  14.707  0.00  0.00    +0.000 OA
BRANCH  26  27
ATOM     27  C   UNL     1       6.038   4.459  13.723  0.00  0.00    +0.000 C 
ATOM     28  F   UNL     1       5.373   5.516  14.235  0.00  0.00    +0.000 F 
ATOM     29  F   UNL     1       7.042   4.921  12.948  0.00  0.00    +0.000 F 
ATOM     30  F   UNL     1       5.169   3.775  12.940  0.00  0.00    +0.000 F 
ENDBRANCH  26  27
ENDBRANCH  24  26
ENDBRANCH   7  20
TORSDOF 5
ENDMDL
MODEL 7
REMARK VINA RESULT:      -9.1      2.245      2.790
REMARK  Name = 
REMARK  6 active torsions:
REMARK  status: ('A' for Active; 'I' for Inactive)
REMARK    1  A    between atoms: C_1  and  S_2
REMARK    2  A    between atoms: S_2  and  C_5
REMARK    3  A    between atoms: C_9  and  C_10
REMARK    4  A    between atoms: C_16  and  C_17
REMARK    5  A    between atoms: C_21  and  O_22
REMARK    6  A    between atoms: O_22  and  C_23
REMARK                            x       y       z     vdW  Elec       q    Type
REMARK                         _______ _______ _______ _____ _____    ______ ____
ROOT
ATOM      1  C   UNL     1       2.131   6.722  19.879  0.00  0.00    +0.000 A 
ATOM      2  C   UNL     1       1.346   5.977  20.872  0.00  0.00    +0.000 A 
ATOM      3  C   UNL     1       1.603   4.689  21.159  0.00  0.00    +0.000 A 
ATOM      4  C   UNL     1       2.652   4.018  20.489  0.00  0.00    +0.000 A 
ATOM      5  N   UNL     1       3.077   2.772  20.535  0.00  0.00    +0.000 NA
ATOM      6  N   UNL     1       4.123   2.661  19.652  0.00  0.00    +0.000 NA
ATOM      7  C   UNL     1       4.349   3.842  19.103  0.00  0.00    +0.000 A 
ATOM      8  N   UNL     1       3.403   4.739  19.573  0.00  0.00    +0.000 N 
ATOM      9  C   UNL     1       3.132   6.082  19.268  0.00  0.00    +0.000 A 
ENDROOT
BRANCH   1  14
ATOM     10  C   UNL     1       0.812  10.254  20.103  0.00  0.00    +0.000 A 
ATOM     11  C   UNL     1       1.061  10.739  18.817  0.00  0.00    +0.000 A 
ATOM     12  C   UNL     1       1.680   9.913  17.885  0.00  0.00    +0.000 A 
ATOM     13  C   UNL     1       2.049   8.605  18.237  0.00  0.00    +0.000 A 
ATOM     14  C   UNL     1       1.819   8.129  19.535  0.00  0.00    +0.000 A 
ATOM     15  C   UNL     1       1.213   8.963  20.476  0.00  0.00    +0.000 A 
BRANCH  10  17
ATOM     16  C   UNL     1       0.741  12.853  21.080  0.00  0.00    +0.000 C 
ATOM     17  S   UNL     1      -0.041  11.273  21.280  0.00  0.00    +0.000 S 
ATOM     18  O   UNL     1       0.273  10.775  22.604  0.00  0.00    +0.000 OA
ATOM     19  O   UNL     1      -1.420  11.390  20.833  0.00  0.00    +0.000 OA
ENDBRANCH  10  17
ENDBRANCH   1  14
BRANCH   7  20
ATOM     20  C   UNL     1       5.445   4.134  18.184  0.00  0.00    +0.000 A 
ATOM     21  C   UNL     1       6.465   5.015  18.561  0.00  0.00    +0.000 A 
ATOM     22  C   UNL     1       7.468   5.356  17.652  0.00  0.00    +0.000 A 
ATOM     23  C   UNL     1       7.457   4.824  16.363  0.00  0.00    +0.000 A 
ATOM     24  C   UNL     1       6.454   3.936  15.974  0.00  0.00    +0.000 A 
ATOM     25  C   UNL     1       5.450   3.623  16.881  0.00  0.00    +0.000 A 
BRANCH  24  26
ATOM     26  O   UNL     1       6.516   3.505  14.683  0.00  0.00    +0.000 OA
BRANCH  26  27
ATOM     27  C   UNL     1       6.062   4.398  13.669  0.00  0.00    +0.000 C 
ATOM     28  F   UNL     1       5.369   3.798  12.678  0.00  0.00    +0.000 F 
ATOM     29  F   UNL     1       5.280   5.349  14.221  0.00  0.00    +0.000 F 
ATOM     30  F   UNL     1       7.136   5.000  13.103  0.00  0.00    +0.000 F 
ENDBRANCH  26  27
ENDBRANCH  24  26
ENDBRANCH   7  20
TORSDOF 5
ENDMDL
MODEL 8
REMARK VINA RESULT:      -9.0      2.052      2.649
REMARK  Name = 
REMARK  6 active torsions:
REMARK  status: ('A' for Active; 'I' for Inactive)
REMARK    1  A    between atoms: C_1  and  S_2
REMARK    2  A    between atoms: S_2  and  C_5
REMARK    3  A    between atoms: C_9  and  C_10
REMARK    4  A    between atoms: C_16  and  C_17
REMARK    5  A    between atoms: C_21  and  O_22
REMARK    6  A    between atoms: O_22  and  C_23
REMARK                            x       y       z     vdW  Elec       q    Type
REMARK                         _______ _______ _______ _____ _____    ______ ____
ROOT
ATOM      1  C   UNL     1       1.943   6.775  19.898  0.00  0.00    +0.000 A 
ATOM      2  C   UNL     1       1.028   5.876  20.614  0.00  0.00    +0.000 A 
ATOM      3  C   UNL     1       1.314   4.577  20.807  0.00  0.00    +0.000 A 
ATOM      4  C   UNL     1       2.526   4.045  20.307  0.00  0.00    +0.000 A 
ATOM      5  N   UNL     1       3.023   2.826  20.307  0.00  0.00    +0.000 NA
ATOM      6  N   UNL     1       4.233   2.874  19.661  0.00  0.00    +0.000 NA
ATOM      7  C   UNL     1       4.480   4.123  19.304  0.00  0.00    +0.000 A 
ATOM      8  N   UNL     1       3.394   4.909  19.657  0.00  0.00    +0.000 N 
ATOM      9  C   UNL     1       3.093   6.264  19.449  0.00  0.00    +0.000 A 
ENDROOT
BRANCH   1  14
ATOM     10  C   UNL     1       0.566  10.261  20.364  0.00  0.00    +0.000 A 
ATOM     11  C   UNL     1       0.800  10.835  19.113  0.00  0.00    +0.000 A 
ATOM     12  C   UNL     1       1.426  10.083  18.124  0.00  0.00    +0.000 A 
ATOM     13  C   UNL     1       1.820   8.762  18.386  0.00  0.00    +0.000 A 
ATOM     14  C   UNL     1       1.606   8.196  19.651  0.00  0.00    +0.000 A 
ATOM     15  C   UNL     1       0.991   8.954  20.648  0.00  0.00    +0.000 A 
BRANCH  10  17
ATOM     16  C   UNL     1      -1.711  11.807  20.739  0.00  0.00    +0.000 C 
ATOM     17  S   UNL     1      -0.297  11.183  21.611  0.00  0.00    +0.000 S 
ATOM     18  O   UNL     1       0.537  12.307  21.986  0.00  0.00    +0.000 OA
ATOM     19  O   UNL     1      -0.762  10.233  22.609  0.00  0.00    +0.000 OA
ENDBRANCH  10  17
ENDBRANCH   1  14
BRANCH   7  20
ATOM     20  C   UNL     1       5.718   4.579  18.678  0.00  0.00    +0.000 A 
ATOM     21  C   UNL     1       6.575   5.449  19.362  0.00  0.00    +0.000 A 
ATOM     22  C   UNL     1       7.716   5.948  18.731  0.00  0.00    +0.000 A 
ATOM     23  C   UNL     1       8.005   5.585  17.416  0.00  0.00    +0.000 A 
ATOM     24  C   UNL     1       7.168   4.711  16.723  0.00  0.00    +0.000 A 
ATOM     25  C   UNL     1       6.024   4.240  17.355  0.00  0.00    +0.000 A 
BRANCH  24  26
ATOM     26  O   UNL     1       7.522   4.452  15.434  0.00  0.00    +0.000 OA
BRANCH  26  27
ATOM     27  C   UNL     1       6.556   4.716  14.420  0.00  0.00    +0.000 C 
ATOM     28  F   UNL     1       7.088   4.977  13.207  0.00  0.00    +0.000 F 
ATOM     29  F   UNL     1       5.724   3.659  14.303  0.00  0.00    +0.000 F 
ATOM     30  F   UNL     1       5.826   5.798  14.783  0.00  0.00    +0.000 F 
ENDBRANCH  26  27
ENDBRANCH  24  26
ENDBRANCH   7  20
TORSDOF 5
ENDMDL
MODEL 9
REMARK VINA RESULT:      -9.0      0.690      1.135
REMARK  Name = 
REMARK  6 active torsions:
REMARK  status: ('A' for Active; 'I' for Inactive)
REMARK    1  A    between atoms: C_1  and  S_2
REMARK    2  A    between atoms: S_2  and  C_5
REMARK    3  A    between atoms: C_9  and  C_10
REMARK    4  A    between atoms: C_16  and  C_17
REMARK    5  A    between atoms: C_21  and  O_22
REMARK    6  A    between atoms: O_22  and  C_23
REMARK                            x       y       z     vdW  Elec       q    Type
REMARK                         _______ _______ _______ _____ _____    ______ ____
ROOT
ATOM      1  C   UNL     1       2.185   5.897  19.396  0.00  0.00    +0.000 A 
ATOM      2  C   UNL     1       1.543   4.886  20.248  0.00  0.00    +0.000 A 
ATOM      3  C   UNL     1       1.811   3.576  20.119  0.00  0.00    +0.000 A 
ATOM      4  C   UNL     1       2.730   3.141  19.136  0.00  0.00    +0.000 A 
ATOM      5  N   UNL     1       3.128   1.942  18.765  0.00  0.00    +0.000 NA
ATOM      6  N   UNL     1       4.024   2.105  17.738  0.00  0.00    +0.000 NA
ATOM      7  C   UNL     1       4.191   3.397  17.514  0.00  0.00    +0.000 A 
ATOM      8  N   UNL     1       3.349   4.106  18.356  0.00  0.00    +0.000 N 
ATOM      9  C   UNL     1       3.066   5.475  18.485  0.00  0.00    +0.000 A 
ENDROOT
BRANCH   1  14
ATOM     10  C   UNL     1       0.952   9.187  20.783  0.00  0.00    +0.000 A 
ATOM     11  C   UNL     1       1.061  10.028  19.673  0.00  0.00    +0.000 A 
ATOM     12  C   UNL     1       1.557   9.519  18.478  0.00  0.00    +0.000 A 
ATOM     13  C   UNL     1       1.945   8.173  18.392  0.00  0.00    +0.000 A 
ATOM     14  C   UNL     1       1.857   7.337  19.513  0.00  0.00    +0.000 A 
ATOM     15  C   UNL     1       1.374   7.850  20.717  0.00  0.00    +0.000 A 
BRANCH  10  17
ATOM     16  C   UNL     1       1.461   9.339  23.509  0.00  0.00    +0.000 C 
ATOM     17  S   UNL     1       0.254   9.804  22.293  0.00  0.00    +0.000 S 
ATOM     18  O   UNL     1      -0.962   9.061  22.554  0.00  0.00    +0.000 OA
ATOM     19  O   UNL     1       0.238  11.255  22.203  0.00  0.00    +0.000 OA
ENDBRANCH  10  17
ENDBRANCH   1  14
BRANCH   7  20
ATOM     20  C   UNL     1       5.141   3.958  16.558  0.00  0.00    +0.000 A 
ATOM     21  C   UNL     1       5.287   3.384  15.290  0.00  0.00    +0.000 A 
ATOM     22  C   UNL     1       6.252   3.871  14.407  0.00  0.00    +0.000 A 
ATOM     23  C   UNL     1       7.077   4.929  14.784  0.00  0.00    +0.000 A 
ATOM     24  C   UNL     1       6.939   5.521  16.041  0.00  0.00    +0.000 A 
ATOM     25  C   UNL     1       5.989   5.011  16.917  0.00  0.00    +0.000 A 
BRANCH  24  26
ATOM     26  O   UNL     1       7.819   6.521  16.322  0.00  0.00    +0.000 OA
BRANCH  26  27
ATOM     27  C   UNL     1       7.527   7.360  17.436  0.00  0.00    +0.000 C 
ATOM     28  F   UNL     1       6.225   7.699  17.545  0.00  0.00    +0.000 F 
ATOM     29  F   UNL     1       7.905   6.745  18.577  0.00  0.00    +0.000 F 
ATOM     30  F   UNL     1       8.235   8.510  17.314  0.00  0.00    +0.000 F 
ENDBRANCH  26  27
ENDBRANCH  24  26
ENDBRANCH   7  20
TORSDOF 5
ENDMDL
