MODEL 1
REMARK VINA RESULT:      -8.6      0.000      0.000
REMARK  Name = 
REMARK  8 active torsions:
REMARK  status: ('A' for Active; 'I' for Inactive)
REMARK    1  A    between atoms: C_1  and  C_2
REMARK    2  A    between atoms: C_5  and  C_6
REMARK    3  A    between atoms: C_6  and  N_7
REMARK    4  A    between atoms: C_8  and  C_10
REMARK    5  A    between atoms: C_10  and  N_11
REMARK    6  A    between atoms: C_15  and  C_16
REMARK    7  A    between atoms: C_21  and  C_22
REMARK    8  A    between atoms: N_24  and  C_25
REMARK                            x       y       z     vdW  Elec       q    Type
REMARK                         _______ _______ _______ _____ _____    ______ ____
ROOT
ATOM      1  N   UNL     1       4.183   6.235  17.241  0.00  0.00    +0.000 N 
ATOM      2  C   UNL     1       3.413   7.170  17.933  0.00  0.00    +0.000 A 
ATOM      3  O   UNL     1       3.427   8.378  17.699  0.00  0.00    +0.000 OA
ATOM      4  C   UNL     1       2.546   6.683  19.033  0.00  0.00    +0.000 A 
ATOM      5  C   UNL     1       2.385   5.374  19.312  0.00  0.00    +0.000 A 
ATOM      6  C   UNL     1       3.087   4.399  18.530  0.00  0.00    +0.000 A 
ATOM      7  C   UNL     1       3.160   2.979  18.438  0.00  0.00    +0.000 A 
ATOM      8  C   UNL     1       2.488   1.829  19.097  0.00  0.00    +0.000 C 
ATOM      9  N   UNL     1       4.051   2.617  17.509  0.00  0.00    +0.000 NA
ATOM     10  N   UNL     1       4.517   3.755  16.977  0.00  0.00    +0.000 N 
ATOM     11  C   UNL     1       5.446   3.600  15.887  0.00  0.00    +0.000 C 
ATOM     12  C   UNL     1       3.962   4.876  17.548  0.00  0.00    +0.000 A 
ENDROOT
BRANCH   5  13
ATOM     13  C   UNL     1       1.501   5.039  20.470  0.00  0.00    +0.000 C 
ATOM     14  F   UNL     1       0.462   4.219  20.232  0.00  0.00    +0.000 F 
ATOM     15  F   UNL     1       2.214   4.453  21.472  0.00  0.00    +0.000 F 
ATOM     16  F   UNL     1       0.969   6.172  21.010  0.00  0.00    +0.000 F 
ENDBRANCH   5  13
BRANCH   1  17
ATOM     17  C   UNL     1       5.165   6.799  16.315  0.00  0.00    +0.000 C 
BRANCH  17  19
ATOM     18  N   UNL     1       6.910   8.127  17.482  0.00  0.00    +0.000 N 
ATOM     19  C   UNL     1       6.585   6.939  16.865  0.00  0.00    +0.000 C 
ATOM     20  O   UNL     1       7.398   6.021  16.756  0.00  0.00    +0.000 OA
ATOM     21  H   UNL     1       6.296   8.928  17.366  0.00  0.00    +0.000 HD
BRANCH  18  22
ATOM     22  C   UNL     1       8.287   8.358  17.884  0.00  0.00    +0.000 C 
BRANCH  22  27
ATOM     23  C   UNL     1       9.774  13.799  19.351  0.00  0.00    +0.000 C 
ATOM     24  C   UNL     1       9.355  12.399  19.012  0.00  0.00    +0.000 A 
ATOM     25  C   UNL     1       9.672  11.323  19.849  0.00  0.00    +0.000 A 
ATOM     26  C   UNL     1       9.290  10.021  19.509  0.00  0.00    +0.000 A 
ATOM     27  C   UNL     1       8.581   9.768  18.326  0.00  0.00    +0.000 A 
ATOM     28  C   UNL     1       8.269  10.849  17.489  0.00  0.00    +0.000 A 
ATOM     29  C   UNL     1       8.650  12.151  17.829  0.00  0.00    +0.000 A 
ENDBRANCH  22  27
ENDBRANCH  18  22
ENDBRANCH  17  19
ENDBRANCH   1  17
TORSDOF 5
ENDMDL
MODEL 2
REMARK VINA RESULT:      -8.3      0.220      1.172
REMARK  Name = 
REMARK  8 active torsions:
REMARK  status: ('A' for Active; 'I' for Inactive)
REMARK    1  A    between atoms: C_1  and  C_2
REMARK    2  A    between atoms: C_5  and  C_6
REMARK    3  A    between atoms: C_6  and  N_7
REMARK    4  A    between atoms: C_8  and  C_10
REMARK    5  A    between atoms: C_10  and  N_11
REMARK    6  A    between atoms: C_15  and  C_16
REMARK    7  A    between atoms: C_21  and  C_22
REMARK    8  A    between atoms: N_24  and  C_25
REMARK                            x       y       z     vdW  Elec       q    Type
REMARK                         _______ _______ _______ _____ _____    ______ ____
ROOT
ATOM      1  N   UNL     1       4.270   6.225  17.342  0.00  0.00    +0.000 N 
ATOM      2  C   UNL     1       3.465   7.124  18.043  0.00  0.00    +0.000 A 
ATOM      3  O   UNL     1       3.473   8.341  17.855  0.00  0.00    +0.000 OA
ATOM      4  C   UNL     1       2.568   6.587  19.093  0.00  0.00    +0.000 A 
ATOM      5  C   UNL     1       2.413   5.267  19.317  0.00  0.00    +0.000 A 
ATOM      6  C   UNL     1       3.152   4.329  18.523  0.00  0.00    +0.000 A 
ATOM      7  C   UNL     1       3.245   2.915  18.380  0.00  0.00    +0.000 A 
ATOM      8  C   UNL     1       2.565   1.734  18.972  0.00  0.00    +0.000 C 
ATOM      9  N   UNL     1       4.171   2.598  17.469  0.00  0.00    +0.000 NA
ATOM     10  N   UNL     1       4.642   3.761  16.997  0.00  0.00    +0.000 N 
ATOM     11  C   UNL     1       5.608   3.656  15.934  0.00  0.00    +0.000 C 
ATOM     12  C   UNL     1       4.055   4.853  17.591  0.00  0.00    +0.000 A 
ENDROOT
BRANCH   5  13
ATOM     13  C   UNL     1       1.493   4.879  20.430  0.00  0.00    +0.000 C 
ATOM     14  F   UNL     1       2.037   4.236  21.479  0.00  0.00    +0.000 F 
ATOM     15  F   UNL     1       0.871   5.974  20.950  0.00  0.00    +0.000 F 
ATOM     16  F   UNL     1       0.497   4.071  19.970  0.00  0.00    +0.000 F 
ENDBRANCH   5  13
BRANCH   1  17
ATOM     17  C   UNL     1       5.275   6.834  16.473  0.00  0.00    +0.000 C 
BRANCH  17  19
ATOM     18  N   UNL     1       7.031   8.239  17.529  0.00  0.00    +0.000 N 
ATOM     19  C   UNL     1       6.669   6.987  17.083  0.00  0.00    +0.000 C 
ATOM     20  O   UNL     1       7.430   6.023  17.170  0.00  0.00    +0.000 OA
ATOM     21  H   UNL     1       6.474   9.042  17.251  0.00  0.00    +0.000 HD
BRANCH  18  22
ATOM     22  C   UNL     1       8.395   8.460  17.977  0.00  0.00    +0.000 C 
BRANCH  22  27
ATOM     23  C   UNL     1       9.321  14.019  19.462  0.00  0.00    +0.000 C 
ATOM     24  C   UNL     1       9.120  12.593  19.042  0.00  0.00    +0.000 A 
ATOM     25  C   UNL     1       8.477  12.274  17.840  0.00  0.00    +0.000 A 
ATOM     26  C   UNL     1       8.281  10.938  17.472  0.00  0.00    +0.000 A 
ATOM     27  C   UNL     1       8.724   9.895  18.297  0.00  0.00    +0.000 A 
ATOM     28  C   UNL     1       9.364  10.220  19.501  0.00  0.00    +0.000 A 
ATOM     29  C   UNL     1       9.561  11.555  19.869  0.00  0.00    +0.000 A 
ENDBRANCH  22  27
ENDBRANCH  18  22
ENDBRANCH  17  19
ENDBRANCH   1  17
TORSDOF 5
ENDMDL
MODEL 3
REMARK VINA RESULT:      -7.8      6.762      9.721
REMARK  Name = 
REMARK  8 active torsions:
REMARK  status: ('A' for Active; 'I' for Inactive)
REMARK    1  A    between atoms: C_1  and  C_2
REMARK    2  A    between atoms: C_5  and  C_6
REMARK    3  A    between atoms: C_6  and  N_7
REMARK    4  A    between atoms: C_8  and  C_10
REMARK    5  A    between atoms: C_10  and  N_11
REMARK    6  A    between atoms: C_15  and  C_16
REMARK    7  A    between atoms: C_21  and  C_22
REMARK    8  A    between atoms: N_24  and  C_25
REMARK                            x       y       z     vdW  Elec       q    Type
REMARK                         _______ _______ _______ _____ _____    ______ ____
ROOT
ATOM      1  N   UNL     1      -1.046  11.488  19.484  0.00  0.00    +0.000 N 
ATOM      2  C   UNL     1      -1.185  10.722  18.326  0.00  0.00    +0.000 A 
ATOM      3  O   UNL     1      -0.288  10.022  17.856  0.00  0.00    +0.000 OA
ATOM      4  C   UNL     1      -2.478  10.777  17.604  0.00  0.00    +0.000 A 
ATOM      5  C   UNL     1      -3.553  11.437  18.079  0.00  0.00    +0.000 A 
ATOM      6  C   UNL     1      -3.453  12.133  19.328  0.00  0.00    +0.000 A 
ATOM      7  C   UNL     1      -4.312  12.870  20.193  0.00  0.00    +0.000 A 
ATOM      8  C   UNL     1      -5.755  13.223  20.219  0.00  0.00    +0.000 C 
ATOM      9  N   UNL     1      -3.628  13.336  21.243  0.00  0.00    +0.000 NA
ATOM     10  N   UNL     1      -2.374  12.888  21.099  0.00  0.00    +0.000 N 
ATOM     11  C   UNL     1      -1.469  13.210  22.172  0.00  0.00    +0.000 C 
ATOM     12  C   UNL     1      -2.204  12.140  19.958  0.00  0.00    +0.000 A 
ENDROOT
BRANCH   5  13
ATOM     13  C   UNL     1      -4.779  11.425  17.223  0.00  0.00    +0.000 C 
ATOM     14  F   UNL     1      -5.317  12.616  16.904  0.00  0.00    +0.000 F 
ATOM     15  F   UNL     1      -4.537  10.799  16.037  0.00  0.00    +0.000 F 
ATOM     16  F   UNL     1      -5.774  10.711  17.820  0.00  0.00    +0.000 F 
ENDBRANCH   5  13
BRANCH   1  17
ATOM     17  C   UNL     1       0.310  11.554  20.029  0.00  0.00    +0.000 C 
BRANCH  17  19
ATOM     18  N   UNL     1       1.212   9.248  20.228  0.00  0.00    +0.000 N 
ATOM     19  C   UNL     1       0.734  10.360  20.885  0.00  0.00    +0.000 C 
ATOM     20  O   UNL     1       0.651  10.401  22.113  0.00  0.00    +0.000 OA
ATOM     21  H   UNL     1       1.068   9.167  19.225  0.00  0.00    +0.000 HD
BRANCH  18  22
ATOM     22  C   UNL     1       1.485   8.042  20.990  0.00  0.00    +0.000 C 
BRANCH  22  27
ATOM     23  C   UNL     1       2.696   3.491  17.555  0.00  0.00    +0.000 C 
ATOM     24  C   UNL     1       2.425   4.648  18.471  0.00  0.00    +0.000 A 
ATOM     25  C   UNL     1       1.872   4.455  19.741  0.00  0.00    +0.000 A 
ATOM     26  C   UNL     1       1.608   5.547  20.576  0.00  0.00    +0.000 A 
ATOM     27  C   UNL     1       1.892   6.854  20.157  0.00  0.00    +0.000 A 
ATOM     28  C   UNL     1       2.443   7.042  18.881  0.00  0.00    +0.000 A 
ATOM     29  C   UNL     1       2.708   5.951  18.048  0.00  0.00    +0.000 A 
ENDBRANCH  22  27
ENDBRANCH  18  22
ENDBRANCH  17  19
ENDBRANCH   1  17
TORSDOF 5
ENDMDL
MODEL 4
REMARK VINA RESULT:      -7.6      6.542      9.625
REMARK  Name = 
REMARK  8 active torsions:
REMARK  status: ('A' for Active; 'I' for Inactive)
REMARK    1  A    between atoms: C_1  and  C_2
REMARK    2  A    between atoms: C_5  and  C_6
REMARK    3  A    between atoms: C_6  and  N_7
REMARK    4  A    between atoms: C_8  and  C_10
REMARK    5  A    between atoms: C_10  and  N_11
REMARK    6  A    between atoms: C_15  and  C_16
REMARK    7  A    between atoms: C_21  and  C_22
REMARK    8  A    between atoms: N_24  and  C_25
REMARK                            x       y       z     vdW  Elec       q    Type
REMARK                         _______ _______ _______ _____ _____    ______ ____
ROOT
ATOM      1  N   UNL     1      -0.852  11.269  19.305  0.00  0.00    +0.000 N 
ATOM      2  C   UNL     1      -1.023  10.500  18.153  0.00  0.00    +0.000 A 
ATOM      3  O   UNL     1      -0.144   9.788  17.669  0.00  0.00    +0.000 OA
ATOM      4  C   UNL     1      -2.330  10.566  17.458  0.00  0.00    +0.000 A 
ATOM      5  C   UNL     1      -3.388  11.240  17.950  0.00  0.00    +0.000 A 
ATOM      6  C   UNL     1      -3.256  11.941  19.194  0.00  0.00    +0.000 A 
ATOM      7  C   UNL     1      -4.088  12.692  20.072  0.00  0.00    +0.000 A 
ATOM      8  C   UNL     1      -5.527  13.061  20.126  0.00  0.00    +0.000 C 
ATOM      9  N   UNL     1      -3.379  13.155  21.106  0.00  0.00    +0.000 NA
ATOM     10  N   UNL     1      -2.132  12.692  20.939  0.00  0.00    +0.000 N 
ATOM     11  C   UNL     1      -1.203  13.009  21.993  0.00  0.00    +0.000 C 
ATOM     12  C   UNL     1      -1.993  11.937  19.799  0.00  0.00    +0.000 A 
ENDROOT
BRANCH   5  13
ATOM     13  C   UNL     1      -4.631  11.238  17.119  0.00  0.00    +0.000 C 
ATOM     14  F   UNL     1      -5.728  10.675  17.657  0.00  0.00    +0.000 F 
ATOM     15  F   UNL     1      -4.994  12.507  16.785  0.00  0.00    +0.000 F 
ATOM     16  F   UNL     1      -4.418  10.592  15.939  0.00  0.00    +0.000 F 
ENDBRANCH   5  13
BRANCH   1  17
ATOM     17  C   UNL     1       0.514  11.323  19.822  0.00  0.00    +0.000 C 
BRANCH  17  19
ATOM     18  N   UNL     1       1.365   9.000  20.052  0.00  0.00    +0.000 N 
ATOM     19  C   UNL     1       0.935  10.140  20.695  0.00  0.00    +0.000 C 
ATOM     20  O   UNL     1       0.890  10.213  21.923  0.00  0.00    +0.000 OA
ATOM     21  H   UNL     1       1.188   8.899  19.057  0.00  0.00    +0.000 HD
BRANCH  18  22
ATOM     22  C   UNL     1       1.631   7.806  20.836  0.00  0.00    +0.000 C 
BRANCH  22  27
ATOM     23  C   UNL     1       2.794   2.916  17.886  0.00  0.00    +0.000 C 
ATOM     24  C   UNL     1       2.455   4.185  18.612  0.00  0.00    +0.000 A 
ATOM     25  C   UNL     1       2.728   5.437  18.052  0.00  0.00    +0.000 A 
ATOM     26  C   UNL     1       2.423   6.611  18.750  0.00  0.00    +0.000 A 
ATOM     27  C   UNL     1       1.836   6.555  20.021  0.00  0.00    +0.000 A 
ATOM     28  C   UNL     1       1.567   5.298  20.580  0.00  0.00    +0.000 A 
ATOM     29  C   UNL     1       1.871   4.125  19.882  0.00  0.00    +0.000 A 
ENDBRANCH  22  27
ENDBRANCH  18  22
ENDBRANCH  17  19
ENDBRANCH   1  17
TORSDOF 5
ENDMDL
MODEL 5
REMARK VINA RESULT:      -7.5      6.246      8.975
REMARK  Name = 
REMARK  8 active torsions:
REMARK  status: ('A' for Active; 'I' for Inactive)
REMARK    1  A    between atoms: C_1  and  C_2
REMARK    2  A    between atoms: C_5  and  C_6
REMARK    3  A    between atoms: C_6  and  N_7
REMARK    4  A    between atoms: C_8  and  C_10
REMARK    5  A    between atoms: C_10  and  N_11
REMARK    6  A    between atoms: C_15  and  C_16
REMARK    7  A    between atoms: C_21  and  C_22
REMARK    8  A    between atoms: N_24  and  C_25
REMARK                            x       y       z     vdW  Elec       q    Type
REMARK                         _______ _______ _______ _____ _____    ______ ____
ROOT
ATOM      1  N   UNL     1      -0.686  10.872  18.839  0.00  0.00    +0.000 N 
ATOM      2  C   UNL     1      -1.159  10.162  17.736  0.00  0.00    +0.000 A 
ATOM      3  O   UNL     1      -0.482   9.354  17.100  0.00  0.00    +0.000 OA
ATOM      4  C   UNL     1      -2.549  10.414  17.286  0.00  0.00    +0.000 A 
ATOM      5  C   UNL     1      -3.404  11.207  17.962  0.00  0.00    +0.000 A 
ATOM      6  C   UNL     1      -2.961  11.852  19.163  0.00  0.00    +0.000 A 
ATOM      7  C   UNL     1      -3.518  12.682  20.179  0.00  0.00    +0.000 A 
ATOM      8  C   UNL     1      -4.862  13.233  20.491  0.00  0.00    +0.000 C 
ATOM      9  N   UNL     1      -2.581  13.023  21.069  0.00  0.00    +0.000 NA
ATOM     10  N   UNL     1      -1.456  12.406  20.680  0.00  0.00    +0.000 N 
ATOM     11  C   UNL     1      -0.320  12.573  21.550  0.00  0.00    +0.000 C 
ATOM     12  C   UNL     1      -1.623  11.669  19.531  0.00  0.00    +0.000 A 
ENDROOT
BRANCH   5  13
ATOM     13  C   UNL     1      -4.764  11.387  17.368  0.00  0.00    +0.000 C 
ATOM     14  F   UNL     1      -5.237  12.643  17.286  0.00  0.00    +0.000 F 
ATOM     15  F   UNL     1      -4.810  10.891  16.101  0.00  0.00    +0.000 F 
ATOM     16  F   UNL     1      -5.693  10.681  18.074  0.00  0.00    +0.000 F 
ENDBRANCH   5  13
BRANCH   1  17
ATOM     17  C   UNL     1       0.745  10.735  19.103  0.00  0.00    +0.000 C 
BRANCH  17  19
ATOM     18  N   UNL     1       1.942   8.578  18.808  0.00  0.00    +0.000 N 
ATOM     19  C   UNL     1       1.188   9.374  19.642  0.00  0.00    +0.000 C 
ATOM     20  O   UNL     1       0.881   9.014  20.779  0.00  0.00    +0.000 OA
ATOM     21  H   UNL     1       1.994   8.809  17.820  0.00  0.00    +0.000 HD
BRANCH  18  22
ATOM     22  C   UNL     1       2.256   7.222  19.223  0.00  0.00    +0.000 C 
BRANCH  22  27
ATOM     23  C   UNL     1       5.638   4.071  15.673  0.00  0.00    +0.000 C 
ATOM     24  C   UNL     1       4.742   4.901  16.544  0.00  0.00    +0.000 A 
ATOM     25  C   UNL     1       4.879   6.292  16.610  0.00  0.00    +0.000 A 
ATOM     26  C   UNL     1       4.048   7.050  17.442  0.00  0.00    +0.000 A 
ATOM     27  C   UNL     1       3.061   6.432  18.224  0.00  0.00    +0.000 A 
ATOM     28  C   UNL     1       2.930   5.038  18.157  0.00  0.00    +0.000 A 
ATOM     29  C   UNL     1       3.761   4.281  17.324  0.00  0.00    +0.000 A 
ENDBRANCH  22  27
ENDBRANCH  18  22
ENDBRANCH  17  19
ENDBRANCH   1  17
TORSDOF 5
ENDMDL
MODEL 6
REMARK VINA RESULT:      -7.4      4.254      6.655
REMARK  Name = 
REMARK  8 active torsions:
REMARK  status: ('A' for Active; 'I' for Inactive)
REMARK    1  A    between atoms: C_1  and  C_2
REMARK    2  A    between atoms: C_5  and  C_6
REMARK    3  A    between atoms: C_6  and  N_7
REMARK    4  A    between atoms: C_8  and  C_10
REMARK    5  A    between atoms: C_10  and  N_11
REMARK    6  A    between atoms: C_15  and  C_16
REMARK    7  A    between atoms: C_21  and  C_22
REMARK    8  A    between atoms: N_24  and  C_25
REMARK                            x       y       z     vdW  Elec       q    Type
REMARK                         _______ _______ _______ _____ _____    ______ ____
ROOT
ATOM      1  N   UNL     1       2.574   6.758  19.313  0.00  0.00    +0.000 N 
ATOM      2  C   UNL     1       1.734   6.520  20.401  0.00  0.00    +0.000 A 
ATOM      3  O   UNL     1       1.135   7.406  21.010  0.00  0.00    +0.000 OA
ATOM      4  C   UNL     1       1.574   5.122  20.867  0.00  0.00    +0.000 A 
ATOM      5  C   UNL     1       2.109   4.069  20.218  0.00  0.00    +0.000 A 
ATOM      6  C   UNL     1       2.881   4.295  19.031  0.00  0.00    +0.000 A 
ATOM      7  C   UNL     1       3.543   3.513  18.042  0.00  0.00    +0.000 A 
ATOM      8  C   UNL     1       3.701   2.063  17.754  0.00  0.00    +0.000 C 
ATOM      9  N   UNL     1       4.155   4.303  17.155  0.00  0.00    +0.000 NA
ATOM     10  N   UNL     1       3.871   5.562  17.519  0.00  0.00    +0.000 N 
ATOM     11  C   UNL     1       4.372   6.592  16.646  0.00  0.00    +0.000 C 
ATOM     12  C   UNL     1       3.090   5.625  18.649  0.00  0.00    +0.000 A 
ENDROOT
BRANCH   5  13
ATOM     13  C   UNL     1       1.884   2.721  20.826  0.00  0.00    +0.000 C 
ATOM     14  F   UNL     1       1.436   1.748  20.014  0.00  0.00    +0.000 F 
ATOM     15  F   UNL     1       3.033   2.242  21.379  0.00  0.00    +0.000 F 
ATOM     16  F   UNL     1       0.987   2.800  21.849  0.00  0.00    +0.000 F 
ENDBRANCH   5  13
BRANCH   1  17
ATOM     17  C   UNL     1       2.852   8.166  19.036  0.00  0.00    +0.000 C 
BRANCH  17  19
ATOM     18  N   UNL     1       1.100   9.869  19.488  0.00  0.00    +0.000 N 
ATOM     19  C   UNL     1       1.652   8.996  18.576  0.00  0.00    +0.000 C 
ATOM     20  O   UNL     1       1.206   8.884  17.435  0.00  0.00    +0.000 OA
ATOM     21  H   UNL     1       1.352   9.782  20.469  0.00  0.00    +0.000 HD
BRANCH  18  22
ATOM     22  C   UNL     1      -0.127  10.565  19.144  0.00  0.00    +0.000 C 
BRANCH  22  27
ATOM     23  C   UNL     1      -3.111  12.689  23.677  0.00  0.00    +0.000 C 
ATOM     24  C   UNL     1      -2.321  12.190  22.504  0.00  0.00    +0.000 A 
ATOM     25  C   UNL     1      -2.632  12.584  21.198  0.00  0.00    +0.000 A 
ATOM     26  C   UNL     1      -1.897  12.095  20.112  0.00  0.00    +0.000 A 
ATOM     27  C   UNL     1      -0.834  11.202  20.312  0.00  0.00    +0.000 A 
ATOM     28  C   UNL     1      -0.528  10.808  21.622  0.00  0.00    +0.000 A 
ATOM     29  C   UNL     1      -1.263  11.298  22.706  0.00  0.00    +0.000 A 
ENDBRANCH  22  27
ENDBRANCH  18  22
ENDBRANCH  17  19
ENDBRANCH   1  17
TORSDOF 5
ENDMDL
MODEL 7
REMARK VINA RESULT:      -7.3      4.221      6.697
REMARK  Name = 
REMARK  8 active torsions:
REMARK  status: ('A' for Active; 'I' for Inactive)
REMARK    1  A    between atoms: C_1  and  C_2
REMARK    2  A    between atoms: C_5  and  C_6
REMARK    3  A    between atoms: C_6  and  N_7
REMARK    4  A    between atoms: C_8  and  C_10
REMARK    5  A    between atoms: C_10  and  N_11
REMARK    6  A    between atoms: C_15  and  C_16
REMARK    7  A    between atoms: C_21  and  C_22
REMARK    8  A    between atoms: N_24  and  C_25
REMARK                            x       y       z     vdW  Elec       q    Type
REMARK                         _______ _______ _______ _____ _____    ______ ____
ROOT
ATOM      1  N   UNL     1       2.592   6.758  19.363  0.00  0.00    +0.000 N 
ATOM      2  C   UNL     1       1.718   6.521  20.424  0.00  0.00    +0.000 A 
ATOM      3  O   UNL     1       1.116   7.409  21.027  0.00  0.00    +0.000 OA
ATOM      4  C   UNL     1       1.525   5.120  20.869  0.00  0.00    +0.000 A 
ATOM      5  C   UNL     1       2.063   4.067  20.224  0.00  0.00    +0.000 A 
ATOM      6  C   UNL     1       2.871   4.294  19.062  0.00  0.00    +0.000 A 
ATOM      7  C   UNL     1       3.549   3.513  18.082  0.00  0.00    +0.000 A 
ATOM      8  C   UNL     1       3.693   2.065  17.783  0.00  0.00    +0.000 C 
ATOM      9  N   UNL     1       4.197   4.304  17.221  0.00  0.00    +0.000 NA
ATOM     10  N   UNL     1       3.921   5.563  17.592  0.00  0.00    +0.000 N 
ATOM     11  C   UNL     1       4.461   6.595  16.745  0.00  0.00    +0.000 C 
ATOM     12  C   UNL     1       3.110   5.625  18.700  0.00  0.00    +0.000 A 
ENDROOT
BRANCH   5  13
ATOM     13  C   UNL     1       1.802   2.716  20.810  0.00  0.00    +0.000 C 
ATOM     14  F   UNL     1       1.364   1.758  19.974  0.00  0.00    +0.000 F 
ATOM     15  F   UNL     1       2.927   2.214  21.392  0.00  0.00    +0.000 F 
ATOM     16  F   UNL     1       0.876   2.797  21.807  0.00  0.00    +0.000 F 
ENDBRANCH   5  13
BRANCH   1  17
ATOM     17  C   UNL     1       2.898   8.165  19.109  0.00  0.00    +0.000 C 
BRANCH  17  19
ATOM     18  N   UNL     1       0.736   9.359  18.836  0.00  0.00    +0.000 N 
ATOM     19  C   UNL     1       1.891   8.911  18.232  0.00  0.00    +0.000 C 
ATOM     20  O   UNL     1       2.112   9.100  17.036  0.00  0.00    +0.000 OA
ATOM     21  H   UNL     1       0.491   9.004  19.756  0.00  0.00    +0.000 HD
BRANCH  18  22
ATOM     22  C   UNL     1      -0.311   9.938  18.012  0.00  0.00    +0.000 C 
BRANCH  22  27
ATOM     23  C   UNL     1      -4.104  13.451  20.702  0.00  0.00    +0.000 C 
ATOM     24  C   UNL     1      -3.135  12.511  20.047  0.00  0.00    +0.000 A 
ATOM     25  C   UNL     1      -1.878  12.257  20.607  0.00  0.00    +0.000 A 
ATOM     26  C   UNL     1      -0.979  11.391  19.974  0.00  0.00    +0.000 A 
ATOM     27  C   UNL     1      -1.320  10.761  18.769  0.00  0.00    +0.000 A 
ATOM     28  C   UNL     1      -2.580  11.021  18.211  0.00  0.00    +0.000 A 
ATOM     29  C   UNL     1      -3.478  11.885  18.844  0.00  0.00    +0.000 A 
ENDBRANCH  22  27
ENDBRANCH  18  22
ENDBRANCH  17  19
ENDBRANCH   1  17
TORSDOF 5
ENDMDL
MODEL 8
REMARK VINA RESULT:      -7.3      6.230      8.914
REMARK  Name = 
REMARK  8 active torsions:
REMARK  status: ('A' for Active; 'I' for Inactive)
REMARK    1  A    between atoms: C_1  and  C_2
REMARK    2  A    between atoms: C_5  and  C_6
REMARK    3  A    between atoms: C_6  and  N_7
REMARK    4  A    between atoms: C_8  and  C_10
REMARK    5  A    between atoms: C_10  and  N_11
REMARK    6  A    between atoms: C_15  and  C_16
REMARK    7  A    between atoms: C_21  and  C_22
REMARK    8  A    between atoms: N_24  and  C_25
REMARK                            x       y       z     vdW  Elec       q    Type
REMARK                         _______ _______ _______ _____ _____    ______ ____
ROOT
ATOM      1  N   UNL     1      -0.692  10.895  18.672  0.00  0.00    +0.000 N 
ATOM      2  C   UNL     1      -1.375  10.198  17.675  0.00  0.00    +0.000 A 
ATOM      3  O   UNL     1      -0.848   9.366  16.937  0.00  0.00    +0.000 OA
ATOM      4  C   UNL     1      -2.813  10.498  17.474  0.00  0.00    +0.000 A 
ATOM      5  C   UNL     1      -3.508  11.321  18.283  0.00  0.00    +0.000 A 
ATOM      6  C   UNL     1      -2.840  11.955  19.381  0.00  0.00    +0.000 A 
ATOM      7  C   UNL     1      -3.181  12.806  20.471  0.00  0.00    +0.000 A 
ATOM      8  C   UNL     1      -4.430  13.405  21.009  0.00  0.00    +0.000 C 
ATOM      9  N   UNL     1      -2.091  13.117  21.180  0.00  0.00    +0.000 NA
ATOM     10  N   UNL     1      -1.073  12.460  20.605  0.00  0.00    +0.000 N 
ATOM     11  C   UNL     1       0.202  12.590  21.260  0.00  0.00    +0.000 C 
ATOM     12  C   UNL     1      -1.465  11.726  19.511  0.00  0.00    +0.000 A 
ENDROOT
BRANCH   5  13
ATOM     13  C   UNL     1      -4.945  11.547  17.935  0.00  0.00    +0.000 C 
ATOM     14  F   UNL     1      -5.866  11.048  18.778  0.00  0.00    +0.000 F 
ATOM     15  F   UNL     1      -5.217  12.878  17.836  0.00  0.00    +0.000 F 
ATOM     16  F   UNL     1      -5.231  11.020  16.712  0.00  0.00    +0.000 F 
ENDBRANCH   5  13
BRANCH   1  17
ATOM     17  C   UNL     1       0.758  10.708  18.682  0.00  0.00    +0.000 C 
BRANCH  17  19
ATOM     18  N   UNL     1       1.928   8.523  18.519  0.00  0.00    +0.000 N 
ATOM     19  C   UNL     1       1.252   9.412  19.325  0.00  0.00    +0.000 C 
ATOM     20  O   UNL     1       1.050   9.182  20.517  0.00  0.00    +0.000 OA
ATOM     21  H   UNL     1       1.889   8.643  17.511  0.00  0.00    +0.000 HD
BRANCH  18  22
ATOM     22  C   UNL     1       2.281   7.218  19.051  0.00  0.00    +0.000 C 
BRANCH  22  27
ATOM     23  C   UNL     1       5.687   4.236  15.380  0.00  0.00    +0.000 C 
ATOM     24  C   UNL     1       4.837   4.983  16.365  0.00  0.00    +0.000 A 
ATOM     25  C   UNL     1       3.899   4.321  17.164  0.00  0.00    +0.000 A 
ATOM     26  C   UNL     1       3.102   5.035  18.066  0.00  0.00    +0.000 A 
ATOM     27  C   UNL     1       3.228   6.426  18.187  0.00  0.00    +0.000 A 
ATOM     28  C   UNL     1       4.167   7.085  17.381  0.00  0.00    +0.000 A 
ATOM     29  C   UNL     1       4.965   6.371  16.481  0.00  0.00    +0.000 A 
ENDBRANCH  22  27
ENDBRANCH  18  22
ENDBRANCH  17  19
ENDBRANCH   1  17
TORSDOF 5
ENDMDL
MODEL 9
REMARK VINA RESULT:      -7.2      5.679      8.777
REMARK  Name = 
REMARK  8 active torsions:
REMARK  status: ('A' for Active; 'I' for Inactive)
REMARK    1  A    between atoms: C_1  and  C_2
REMARK    2  A    between atoms: C_5  and  C_6
REMARK    3  A    between atoms: C_6  and  N_7
REMARK    4  A    between atoms: C_8  and  C_10
REMARK    5  A    between atoms: C_10  and  N_11
REMARK    6  A    between atoms: C_15  and  C_16
REMARK    7  A    between atoms: C_21  and  C_22
REMARK    8  A    between atoms: N_24  and  C_25
REMARK                            x       y       z     vdW  Elec       q    Type
REMARK                         _______ _______ _______ _____ _____    ______ ____
ROOT
ATOM      1  N   UNL     1       1.016  10.882  19.460  0.00  0.00    +0.000 N 
ATOM      2  C   UNL     1       1.803  11.077  18.324  0.00  0.00    +0.000 A 
ATOM      3  O   UNL     1       1.909  10.253  17.415  0.00  0.00    +0.000 OA
ATOM      4  C   UNL     1       2.577  12.336  18.218  0.00  0.00    +0.000 A 
ATOM      5  C   UNL     1       2.463  13.341  19.108  0.00  0.00    +0.000 A 
ATOM      6  C   UNL     1       1.569  13.196  20.220  0.00  0.00    +0.000 A 
ATOM      7  C   UNL     1       1.110  13.988  21.311  0.00  0.00    +0.000 A 
ATOM      8  C   UNL     1       1.318  15.383  21.782  0.00  0.00    +0.000 C 
ATOM      9  N   UNL     1       0.273  13.284  22.079  0.00  0.00    +0.000 NA
ATOM     10  N   UNL     1       0.150  12.085  21.493  0.00  0.00    +0.000 N 
ATOM     11  C   UNL     1      -0.779  11.179  22.117  0.00  0.00    +0.000 C 
ATOM     12  C   UNL     1       0.906  11.971  20.350  0.00  0.00    +0.000 A 
ENDROOT
BRANCH   5  13
ATOM     13  C   UNL     1       3.331  14.538  18.883  0.00  0.00    +0.000 C 
ATOM     14  F   UNL     1       4.100  14.941  19.911  0.00  0.00    +0.000 F 
ATOM     15  F   UNL     1       4.185  14.329  17.842  0.00  0.00    +0.000 F 
ATOM     16  F   UNL     1       2.578  15.618  18.531  0.00  0.00    +0.000 F 
ENDBRANCH   5  13
BRANCH   1  17
ATOM     17  C   UNL     1       0.446   9.543  19.602  0.00  0.00    +0.000 C 
BRANCH  17  19
ATOM     18  N   UNL     1       2.060   7.763  18.970  0.00  0.00    +0.000 N 
ATOM     19  C   UNL     1       1.435   8.444  19.992  0.00  0.00    +0.000 C 
ATOM     20  O   UNL     1       1.659   8.186  21.174  0.00  0.00    +0.000 OA
ATOM     21  H   UNL     1       1.698   7.852  18.025  0.00  0.00    +0.000 HD
BRANCH  18  22
ATOM     22  C   UNL     1       2.890   6.616  19.292  0.00  0.00    +0.000 C 
BRANCH  22  27
ATOM     23  C   UNL     1       5.917   4.126  14.979  0.00  0.00    +0.000 C 
ATOM     24  C   UNL     1       5.105   4.788  16.053  0.00  0.00    +0.000 A 
ATOM     25  C   UNL     1       5.149   6.172  16.248  0.00  0.00    +0.000 A 
ATOM     26  C   UNL     1       4.400   6.772  17.266  0.00  0.00    +0.000 A 
ATOM     27  C   UNL     1       3.590   5.999  18.109  0.00  0.00    +0.000 A 
ATOM     28  C   UNL     1       3.552   4.611  17.913  0.00  0.00    +0.000 A 
ATOM     29  C   UNL     1       4.300   4.012  16.894  0.00  0.00    +0.000 A 
ENDBRANCH  22  27
ENDBRANCH  18  22
ENDBRANCH  17  19
ENDBRANCH   1  17
TORSDOF 5
ENDMDL
