MODEL 1
REMARK VINA RESULT:      -7.6      0.000      0.000
REMARK  Name = 
REMARK  13 active torsions:
REMARK  status: ('A' for Active; 'I' for Inactive)
REMARK    1  A    between atoms: C_1  and  C_2
REMARK    2  A    between atoms: C_2  and  C_3
REMARK    3  A    between atoms: C_2  and  C_4
REMARK    4  A    between atoms: C_2  and  C_5
REMARK    5  A    between atoms: C_5  and  C_7
REMARK    6  A    between atoms: C_8  and  O_9
REMARK    7  A    between atoms: N_12  and  C_13
REMARK    8  A    between atoms: C_16  and  C_17
REMARK    9  A    between atoms: C_24  and  C_25
REMARK   10  A    between atoms: C_30  and  O_31
REMARK   11  A    between atoms: O_31  and  C_32
REMARK   12  A    between atoms: C_32  and  C_33
REMARK   13  A    between atoms: C_33  and  O_35
REMARK                            x       y       z     vdW  Elec       q    Type
REMARK                         _______ _______ _______ _____ _____    ______ ____
ROOT
ATOM      1  C   UNL     1       4.635   4.230  17.244  0.00  0.00    +0.000 C 
ATOM      2  C   UNL     1       5.544   4.076  16.261  0.00  0.00    +0.000 C 
ATOM      3  C   UNL     1       6.511   5.195  16.321  0.00  0.00    +0.000 C 
ATOM      4  O   UNL     1       7.493   5.273  15.603  0.00  0.00    +0.000 OA
ATOM      5  N   UNL     1       6.103   6.026  17.364  0.00  0.00    +0.000 N 
ATOM      6  C   UNL     1       4.933   5.468  18.048  0.00  0.00    +0.000 C 
ENDROOT
BRANCH   5   7
ATOM      7  C   UNL     1       6.868   7.154  17.786  0.00  0.00    +0.000 A 
ATOM      8  C   UNL     1       7.931   6.992  18.682  0.00  0.00    +0.000 A 
ATOM      9  C   UNL     1       8.784   8.056  19.011  0.00  0.00    +0.000 A 
ATOM     10  C   UNL     1       8.601   9.321  18.450  0.00  0.00    +0.000 A 
ATOM     11  C   UNL     1       7.500   9.511  17.611  0.00  0.00    +0.000 A 
ATOM     12  C   UNL     1       6.627   8.450  17.321  0.00  0.00    +0.000 A 
BRANCH  10  13
ATOM     13  C   UNL     1       9.550  10.400  18.736  0.00  0.00    +0.000 A 
ATOM     14  C   UNL     1      10.489  10.990  17.823  0.00  0.00    +0.000 A 
ATOM     15  C   UNL     1      11.244  11.987  18.401  0.00  0.00    +0.000 A 
ATOM     16  S   UNL     1      10.836  12.228  20.040  0.00  0.00    +0.000 S 
ATOM     17  C   UNL     1       9.654  10.991  19.983  0.00  0.00    +0.000 A 
ENDBRANCH  10  13
ENDBRANCH   5   7
BRANCH   6  18
ATOM     18  C   UNL     1       3.795   6.466  18.315  0.00  0.00    +0.000 A 
ATOM     19  C   UNL     1       3.703   7.533  17.385  0.00  0.00    +0.000 A 
ATOM     20  C   UNL     1       2.772   8.562  17.488  0.00  0.00    +0.000 A 
ATOM     21  C   UNL     1       1.940   8.605  18.583  0.00  0.00    +0.000 A 
ATOM     22  C   UNL     1       1.989   7.579  19.519  0.00  0.00    +0.000 A 
ATOM     23  C   UNL     1       2.852   6.473  19.372  0.00  0.00    +0.000 A 
BRANCH  23  24
ATOM     24  O   UNL     1       2.918   5.525  20.379  0.00  0.00    +0.000 OA
BRANCH  24  25
ATOM     25  C   UNL     1       1.720   4.742  20.555  0.00  0.00    +0.000 C 
BRANCH  25  26
ATOM     26  C   UNL     1       1.717   3.615  21.595  0.00  0.00    +0.000 C 
ATOM     27  O   UNL     1       2.572   3.486  22.469  0.00  0.00    +0.000 OA
BRANCH  26  28
ATOM     28  O   UNL     1       0.684   2.751  21.475  0.00  0.00    +0.000 OA
ATOM     29  H   UNL     1       0.698   2.068  22.176  0.00  0.00    +0.000 HD
ENDBRANCH  26  28
ENDBRANCH  25  26
ENDBRANCH  24  25
ENDBRANCH  23  24
ENDBRANCH   6  18
BRANCH   1  30
ATOM     30  C   UNL     1       3.597   3.165  17.395  0.00  0.00    +0.000 C 
ATOM     31  O   UNL     1       2.653   3.203  16.588  0.00  0.00    +0.000 OA
BRANCH  30  33
ATOM     32  C   UNL     1       4.256   0.777  17.929  0.00  0.00    +0.000 C 
ATOM     33  C   UNL     1       3.583   2.059  18.486  0.00  0.00    +0.000 C 
ATOM     34  C   UNL     1       2.129   1.657  18.753  0.00  0.00    +0.000 C 
ATOM     35  C   UNL     1       4.335   2.404  19.773  0.00  0.00    +0.000 C 
ENDBRANCH  30  33
ENDBRANCH   1  30
BRANCH   2  36
ATOM     36  O   UNL     1       5.663   3.066  15.343  0.00  0.00    +0.000 OA
ATOM     37  H   UNL     1       5.408   3.430  14.468  0.00  0.00    +0.000 HD
ENDBRANCH   2  36
TORSDOF 10
ENDMDL
MODEL 2
REMARK VINA RESULT:      -7.5      2.992      5.942
REMARK  Name = 
REMARK  13 active torsions:
REMARK  status: ('A' for Active; 'I' for Inactive)
REMARK    1  A    between atoms: C_1  and  C_2
REMARK    2  A    between atoms: C_2  and  C_3
REMARK    3  A    between atoms: C_2  and  C_4
REMARK    4  A    between atoms: C_2  and  C_5
REMARK    5  A    between atoms: C_5  and  C_7
REMARK    6  A    between atoms: C_8  and  O_9
REMARK    7  A    between atoms: N_12  and  C_13
REMARK    8  A    between atoms: C_16  and  C_17
REMARK    9  A    between atoms: C_24  and  C_25
REMARK   10  A    between atoms: C_30  and  O_31
REMARK   11  A    between atoms: O_31  and  C_32
REMARK   12  A    between atoms: C_32  and  C_33
REMARK   13  A    between atoms: C_33  and  O_35
REMARK                            x       y       z     vdW  Elec       q    Type
REMARK                         _______ _______ _______ _____ _____    ______ ____
ROOT
ATOM      1  C   UNL     1       4.333   4.312  16.411  0.00  0.00    +0.000 C 
ATOM      2  C   UNL     1       3.226   3.666  16.825  0.00  0.00    +0.000 C 
ATOM      3  C   UNL     1       2.440   4.569  17.697  0.00  0.00    +0.000 C 
ATOM      4  O   UNL     1       1.346   4.279  18.151  0.00  0.00    +0.000 OA
ATOM      5  N   UNL     1       3.159   5.760  17.797  0.00  0.00    +0.000 N 
ATOM      6  C   UNL     1       4.368   5.711  16.970  0.00  0.00    +0.000 C 
ENDROOT
BRANCH   5   7
ATOM      7  C   UNL     1       2.646   6.907  18.474  0.00  0.00    +0.000 A 
ATOM      8  C   UNL     1       2.422   8.099  17.775  0.00  0.00    +0.000 A 
ATOM      9  C   UNL     1       1.796   9.198  18.379  0.00  0.00    +0.000 A 
ATOM     10  C   UNL     1       1.369   9.141  19.707  0.00  0.00    +0.000 A 
ATOM     11  C   UNL     1       1.653   7.981  20.434  0.00  0.00    +0.000 A 
ATOM     12  C   UNL     1       2.319   6.901  19.832  0.00  0.00    +0.000 A 
BRANCH  10  13
ATOM     13  C   UNL     1       0.639  10.265  20.299  0.00  0.00    +0.000 A 
ATOM     14  C   UNL     1       0.073  11.388  19.607  0.00  0.00    +0.000 A 
ATOM     15  C   UNL     1      -0.552  12.279  20.451  0.00  0.00    +0.000 A 
ATOM     16  S   UNL     1      -0.469  11.779  22.080  0.00  0.00    +0.000 S 
ATOM     17  C   UNL     1       0.413  10.373  21.660  0.00  0.00    +0.000 A 
ENDBRANCH  10  13
ENDBRANCH   5   7
BRANCH   6  18
ATOM     18  C   UNL     1       5.652   6.197  17.660  0.00  0.00    +0.000 A 
ATOM     19  C   UNL     1       6.105   7.478  17.249  0.00  0.00    +0.000 A 
ATOM     20  C   UNL     1       7.274   8.065  17.721  0.00  0.00    +0.000 A 
ATOM     21  C   UNL     1       8.086   7.352  18.572  0.00  0.00    +0.000 A 
ATOM     22  C   UNL     1       7.683   6.096  19.008  0.00  0.00    +0.000 A 
ATOM     23  C   UNL     1       6.449   5.531  18.623  0.00  0.00    +0.000 A 
BRANCH  23  24
ATOM     24  O   UNL     1       6.139   4.241  19.020  0.00  0.00    +0.000 OA
BRANCH  24  25
ATOM     25  C   UNL     1       5.067   4.141  19.978  0.00  0.00    +0.000 C 
BRANCH  25  26
ATOM     26  C   UNL     1       4.358   2.793  20.160  0.00  0.00    +0.000 C 
ATOM     27  O   UNL     1       3.222   2.671  20.614  0.00  0.00    +0.000 OA
BRANCH  26  28
ATOM     28  O   UNL     1       5.092   1.724  19.781  0.00  0.00    +0.000 OA
ATOM     29  H   UNL     1       4.591   0.889  19.868  0.00  0.00    +0.000 HD
ENDBRANCH  26  28
ENDBRANCH  25  26
ENDBRANCH  24  25
ENDBRANCH  23  24
ENDBRANCH   6  18
BRANCH   1  30
ATOM     30  C   UNL     1       5.238   3.590  15.466  0.00  0.00    +0.000 C 
ATOM     31  O   UNL     1       5.444   2.390  15.715  0.00  0.00    +0.000 OA
BRANCH  30  33
ATOM     32  C   UNL     1       7.391   4.658  14.661  0.00  0.00    +0.000 C 
ATOM     33  C   UNL     1       5.963   4.218  14.244  0.00  0.00    +0.000 C 
ATOM     34  C   UNL     1       5.244   5.517  13.866  0.00  0.00    +0.000 C 
ATOM     35  C   UNL     1       6.143   3.285  13.044  0.00  0.00    +0.000 C 
ENDBRANCH  30  33
ENDBRANCH   1  30
BRANCH   2  36
ATOM     36  O   UNL     1       2.791   2.405  16.512  0.00  0.00    +0.000 OA
ATOM     37  H   UNL     1       2.910   1.844  17.308  0.00  0.00    +0.000 HD
ENDBRANCH   2  36
TORSDOF 10
ENDMDL
MODEL 3
REMARK VINA RESULT:      -7.3      0.497      1.432
REMARK  Name = 
REMARK  13 active torsions:
REMARK  status: ('A' for Active; 'I' for Inactive)
REMARK    1  A    between atoms: C_1  and  C_2
REMARK    2  A    between atoms: C_2  and  C_3
REMARK    3  A    between atoms: C_2  and  C_4
REMARK    4  A    between atoms: C_2  and  C_5
REMARK    5  A    between atoms: C_5  and  C_7
REMARK    6  A    between atoms: C_8  and  O_9
REMARK    7  A    between atoms: N_12  and  C_13
REMARK    8  A    between atoms: C_16  and  C_17
REMARK    9  A    between atoms: C_24  and  C_25
REMARK   10  A    between atoms: C_30  and  O_31
REMARK   11  A    between atoms: O_31  and  C_32
REMARK   12  A    between atoms: C_32  and  C_33
REMARK   13  A    between atoms: C_33  and  O_35
REMARK                            x       y       z     vdW  Elec       q    Type
REMARK                         _______ _______ _______ _____ _____    ______ ____
ROOT
ATOM      1  C   UNL     1       4.707   4.033  17.230  0.00  0.00    +0.000 C 
ATOM      2  C   UNL     1       5.592   3.805  16.240  0.00  0.00    +0.000 C 
ATOM      3  C   UNL     1       6.615   4.874  16.256  0.00  0.00    +0.000 C 
ATOM      4  O   UNL     1       7.590   4.881  15.523  0.00  0.00    +0.000 OA
ATOM      5  N   UNL     1       6.266   5.754  17.282  0.00  0.00    +0.000 N 
ATOM      6  C   UNL     1       5.079   5.275  17.996  0.00  0.00    +0.000 C 
ENDROOT
BRANCH   5   7
ATOM      7  C   UNL     1       7.095   6.851  17.662  0.00  0.00    +0.000 A 
ATOM      8  C   UNL     1       6.972   8.087  17.017  0.00  0.00    +0.000 A 
ATOM      9  C   UNL     1       7.674   9.218  17.456  0.00  0.00    +0.000 A 
ATOM     10  C   UNL     1       8.525   9.151  18.561  0.00  0.00    +0.000 A 
ATOM     11  C   UNL     1       8.709   7.905  19.167  0.00  0.00    +0.000 A 
ATOM     12  C   UNL     1       8.034   6.769  18.694  0.00  0.00    +0.000 A 
BRANCH  10  13
ATOM     13  C   UNL     1       9.185  10.359  19.061  0.00  0.00    +0.000 A 
ATOM     14  C   UNL     1       9.398  10.723  20.433  0.00  0.00    +0.000 A 
ATOM     15  C   UNL     1      10.051  11.928  20.573  0.00  0.00    +0.000 A 
ATOM     16  S   UNL     1      10.416  12.635  19.064  0.00  0.00    +0.000 S 
ATOM     17  C   UNL     1       9.692  11.333  18.219  0.00  0.00    +0.000 A 
ENDBRANCH  10  13
ENDBRANCH   5   7
BRANCH   6  18
ATOM     18  C   UNL     1       3.998   6.338  18.250  0.00  0.00    +0.000 A 
ATOM     19  C   UNL     1       3.958   7.391  17.301  0.00  0.00    +0.000 A 
ATOM     20  C   UNL     1       3.085   8.471  17.390  0.00  0.00    +0.000 A 
ATOM     21  C   UNL     1       2.263   8.579  18.488  0.00  0.00    +0.000 A 
ATOM     22  C   UNL     1       2.263   7.569  19.442  0.00  0.00    +0.000 A 
ATOM     23  C   UNL     1       3.064   6.416  19.312  0.00  0.00    +0.000 A 
BRANCH  23  24
ATOM     24  O   UNL     1       3.085   5.484  20.336  0.00  0.00    +0.000 OA
BRANCH  24  25
ATOM     25  C   UNL     1       1.793   5.157  20.886  0.00  0.00    +0.000 C 
BRANCH  25  26
ATOM     26  C   UNL     1       1.542   3.731  21.392  0.00  0.00    +0.000 C 
ATOM     27  O   UNL     1       0.682   2.981  20.933  0.00  0.00    +0.000 OA
BRANCH  26  28
ATOM     28  O   UNL     1       2.351   3.350  22.405  0.00  0.00    +0.000 OA
ATOM     29  H   UNL     1       2.978   2.653  22.128  0.00  0.00    +0.000 HD
ENDBRANCH  26  28
ENDBRANCH  25  26
ENDBRANCH  24  25
ENDBRANCH  23  24
ENDBRANCH   6  18
BRANCH   1  30
ATOM     30  C   UNL     1       3.617   3.028  17.424  0.00  0.00    +0.000 C 
ATOM     31  O   UNL     1       2.615   3.161  16.701  0.00  0.00    +0.000 OA
BRANCH  30  33
ATOM     32  C   UNL     1       2.156   1.457  18.772  0.00  0.00    +0.000 C 
ATOM     33  C   UNL     1       3.619   1.877  18.467  0.00  0.00    +0.000 C 
ATOM     34  C   UNL     1       4.159   2.420  19.793  0.00  0.00    +0.000 C 
ATOM     35  C   UNL     1       4.339   0.600  18.026  0.00  0.00    +0.000 C 
ENDBRANCH  30  33
ENDBRANCH   1  30
BRANCH   2  36
ATOM     36  O   UNL     1       5.645   2.767  15.348  0.00  0.00    +0.000 OA
ATOM     37  H   UNL     1       6.003   3.118  14.505  0.00  0.00    +0.000 HD
ENDBRANCH   2  36
TORSDOF 10
ENDMDL
MODEL 4
REMARK VINA RESULT:      -7.2      7.868     10.963
REMARK  Name = 
REMARK  13 active torsions:
REMARK  status: ('A' for Active; 'I' for Inactive)
REMARK    1  A    between atoms: C_1  and  C_2
REMARK    2  A    between atoms: C_2  and  C_3
REMARK    3  A    between atoms: C_2  and  C_4
REMARK    4  A    between atoms: C_2  and  C_5
REMARK    5  A    between atoms: C_5  and  C_7
REMARK    6  A    between atoms: C_8  and  O_9
REMARK    7  A    between atoms: N_12  and  C_13
REMARK    8  A    between atoms: C_16  and  C_17
REMARK    9  A    between atoms: C_24  and  C_25
REMARK   10  A    between atoms: C_30  and  O_31
REMARK   11  A    between atoms: O_31  and  C_32
REMARK   12  A    between atoms: C_32  and  C_33
REMARK   13  A    between atoms: C_33  and  O_35
REMARK                            x       y       z     vdW  Elec       q    Type
REMARK                         _______ _______ _______ _____ _____    ______ ____
ROOT
ATOM      1  C   UNL     1      -3.918  13.527  21.075  0.00  0.00    +0.000 C 
ATOM      2  C   UNL     1      -4.047  14.793  21.518  0.00  0.00    +0.000 C 
ATOM      3  C   UNL     1      -2.760  15.500  21.332  0.00  0.00    +0.000 C 
ATOM      4  O   UNL     1      -2.605  16.686  21.569  0.00  0.00    +0.000 OA
ATOM      5  N   UNL     1      -1.865  14.577  20.790  0.00  0.00    +0.000 N 
ATOM      6  C   UNL     1      -2.527  13.292  20.546  0.00  0.00    +0.000 C 
ENDROOT
BRANCH   5   7
ATOM      7  C   UNL     1      -0.550  14.941  20.373  0.00  0.00    +0.000 A 
ATOM      8  C   UNL     1       0.502  14.965  21.295  0.00  0.00    +0.000 A 
ATOM      9  C   UNL     1       1.827  15.188  20.894  0.00  0.00    +0.000 A 
ATOM     10  C   UNL     1       2.144  15.391  19.549  0.00  0.00    +0.000 A 
ATOM     11  C   UNL     1       1.092  15.440  18.631  0.00  0.00    +0.000 A 
ATOM     12  C   UNL     1      -0.236  15.258  19.049  0.00  0.00    +0.000 A 
BRANCH  10  13
ATOM     13  C   UNL     1       3.541  15.535  19.133  0.00  0.00    +0.000 A 
ATOM     14  C   UNL     1       4.264  14.693  18.222  0.00  0.00    +0.000 A 
ATOM     15  C   UNL     1       5.568  15.096  18.038  0.00  0.00    +0.000 A 
ATOM     16  S   UNL     1       5.940  16.488  18.951  0.00  0.00    +0.000 S 
ATOM     17  C   UNL     1       4.358  16.548  19.603  0.00  0.00    +0.000 A 
ENDBRANCH  10  13
ENDBRANCH   5   7
BRANCH   6  18
ATOM     18  C   UNL     1      -1.753  12.055  21.029  0.00  0.00    +0.000 A 
ATOM     19  C   UNL     1      -1.741  11.867  22.435  0.00  0.00    +0.000 A 
ATOM     20  C   UNL     1      -1.052  10.836  23.064  0.00  0.00    +0.000 A 
ATOM     21  C   UNL     1      -0.273   9.991  22.308  0.00  0.00    +0.000 A 
ATOM     22  C   UNL     1      -0.256  10.132  20.926  0.00  0.00    +0.000 A 
ATOM     23  C   UNL     1      -1.034  11.105  20.263  0.00  0.00    +0.000 A 
BRANCH  23  24
ATOM     24  O   UNL     1      -0.911  11.254  18.893  0.00  0.00    +0.000 OA
BRANCH  24  25
ATOM     25  C   UNL     1      -1.471  10.180  18.112  0.00  0.00    +0.000 C 
BRANCH  25  26
ATOM     26  C   UNL     1      -2.187  10.513  16.797  0.00  0.00    +0.000 C 
ATOM     27  O   UNL     1      -2.797   9.689  16.120  0.00  0.00    +0.000 OA
BRANCH  26  28
ATOM     28  O   UNL     1      -2.093  11.810  16.426  0.00  0.00    +0.000 OA
ATOM     29  H   UNL     1      -2.693  12.381  16.945  0.00  0.00    +0.000 HD
ENDBRANCH  26  28
ENDBRANCH  25  26
ENDBRANCH  24  25
ENDBRANCH  23  24
ENDBRANCH   6  18
BRANCH   1  30
ATOM     30  C   UNL     1      -5.131  12.655  21.119  0.00  0.00    +0.000 C 
ATOM     31  O   UNL     1      -5.468  12.242  22.242  0.00  0.00    +0.000 OA
BRANCH  30  33
ATOM     32  C   UNL     1      -6.826  13.386  19.382  0.00  0.00    +0.000 C 
ATOM     33  C   UNL     1      -5.967  12.198  19.892  0.00  0.00    +0.000 C 
ATOM     34  C   UNL     1      -6.980  11.148  20.356  0.00  0.00    +0.000 C 
ATOM     35  C   UNL     1      -5.149  11.724  18.688  0.00  0.00    +0.000 C 
ENDBRANCH  30  33
ENDBRANCH   1  30
BRANCH   2  36
ATOM     36  O   UNL     1      -5.151  15.423  22.029  0.00  0.00    +0.000 OA
ATOM     37  H   UNL     1      -5.750  15.624  21.278  0.00  0.00    +0.000 HD
ENDBRANCH   2  36
TORSDOF 10
ENDMDL
MODEL 5
REMARK VINA RESULT:      -7.1      6.938     10.054
REMARK  Name = 
REMARK  13 active torsions:
REMARK  status: ('A' for Active; 'I' for Inactive)
REMARK    1  A    between atoms: C_1  and  C_2
REMARK    2  A    between atoms: C_2  and  C_3
REMARK    3  A    between atoms: C_2  and  C_4
REMARK    4  A    between atoms: C_2  and  C_5
REMARK    5  A    between atoms: C_5  and  C_7
REMARK    6  A    between atoms: C_8  and  O_9
REMARK    7  A    between atoms: N_12  and  C_13
REMARK    8  A    between atoms: C_16  and  C_17
REMARK    9  A    between atoms: C_24  and  C_25
REMARK   10  A    between atoms: C_30  and  O_31
REMARK   11  A    between atoms: O_31  and  C_32
REMARK   12  A    between atoms: C_32  and  C_33
REMARK   13  A    between atoms: C_33  and  O_35
REMARK                            x       y       z     vdW  Elec       q    Type
REMARK                         _______ _______ _______ _____ _____    ______ ____
ROOT
ATOM      1  C   UNL     1      -3.112  13.327  20.641  0.00  0.00    +0.000 C 
ATOM      2  C   UNL     1      -3.065  14.661  20.828  0.00  0.00    +0.000 C 
ATOM      3  C   UNL     1      -1.663  15.116  20.695  0.00  0.00    +0.000 C 
ATOM      4  O   UNL     1      -1.331  16.289  20.733  0.00  0.00    +0.000 OA
ATOM      5  N   UNL     1      -0.890  13.979  20.454  0.00  0.00    +0.000 N 
ATOM      6  C   UNL     1      -1.736  12.786  20.356  0.00  0.00    +0.000 C 
ENDROOT
BRANCH   5   7
ATOM      7  C   UNL     1       0.504  14.052  20.161  0.00  0.00    +0.000 A 
ATOM      8  C   UNL     1       0.947  14.083  18.833  0.00  0.00    +0.000 A 
ATOM      9  C   UNL     1       2.296  14.288  18.513  0.00  0.00    +0.000 A 
ATOM     10  C   UNL     1       3.252  14.473  19.515  0.00  0.00    +0.000 A 
ATOM     11  C   UNL     1       2.831  14.372  20.844  0.00  0.00    +0.000 A 
ATOM     12  C   UNL     1       1.484  14.123  21.154  0.00  0.00    +0.000 A 
BRANCH  10  13
ATOM     13  C   UNL     1       4.642  14.772  19.164  0.00  0.00    +0.000 A 
ATOM     14  C   UNL     1       5.245  14.680  17.865  0.00  0.00    +0.000 A 
ATOM     15  C   UNL     1       6.577  15.031  17.865  0.00  0.00    +0.000 A 
ATOM     16  S   UNL     1       7.118  15.477  19.421  0.00  0.00    +0.000 S 
ATOM     17  C   UNL     1       5.573  15.191  20.099  0.00  0.00    +0.000 A 
ENDBRANCH  10  13
ENDBRANCH   5   7
BRANCH   6  18
ATOM     18  C   UNL     1      -1.241  11.569  21.154  0.00  0.00    +0.000 A 
ATOM     19  C   UNL     1      -1.593  11.570  22.529  0.00  0.00    +0.000 A 
ATOM     20  C   UNL     1      -1.194  10.582  23.423  0.00  0.00    +0.000 A 
ATOM     21  C   UNL     1      -0.352   9.585  22.988  0.00  0.00    +0.000 A 
ATOM     22  C   UNL     1       0.016   9.538  21.649  0.00  0.00    +0.000 A 
ATOM     23  C   UNL     1      -0.466  10.470  20.707  0.00  0.00    +0.000 A 
BRANCH  23  24
ATOM     24  O   UNL     1       0.002  10.425  19.405  0.00  0.00    +0.000 OA
BRANCH  24  25
ATOM     25  C   UNL     1       1.137   9.560  19.198  0.00  0.00    +0.000 C 
BRANCH  25  26
ATOM     26  C   UNL     1       1.911   9.656  17.878  0.00  0.00    +0.000 C 
ATOM     27  O   UNL     1       2.311   8.681  17.244  0.00  0.00    +0.000 OA
BRANCH  26  28
ATOM     28  O   UNL     1       2.131  10.920  17.453  0.00  0.00    +0.000 OA
ATOM     29  H   UNL     1       3.032  11.030  17.089  0.00  0.00    +0.000 HD
ENDBRANCH  26  28
ENDBRANCH  25  26
ENDBRANCH  24  25
ENDBRANCH  23  24
ENDBRANCH   6  18
BRANCH   1  30
ATOM     30  C   UNL     1      -4.456  12.674  20.676  0.00  0.00    +0.000 C 
ATOM     31  O   UNL     1      -4.879  12.353  21.800  0.00  0.00    +0.000 OA
BRANCH  30  33
ATOM     32  C   UNL     1      -6.429  11.314  19.852  0.00  0.00    +0.000 C 
ATOM     33  C   UNL     1      -5.332  12.331  19.440  0.00  0.00    +0.000 C 
ATOM     34  C   UNL     1      -4.466  11.587  18.420  0.00  0.00    +0.000 C 
ATOM     35  C   UNL     1      -6.072  13.518  18.818  0.00  0.00    +0.000 C 
ENDBRANCH  30  33
ENDBRANCH   1  30
BRANCH   2  36
ATOM     36  O   UNL     1      -4.091  15.538  21.063  0.00  0.00    +0.000 OA
ATOM     37  H   UNL     1      -4.283  16.002  20.219  0.00  0.00    +0.000 HD
ENDBRANCH   2  36
TORSDOF 10
ENDMDL
MODEL 6
REMARK VINA RESULT:      -7.1      6.581      8.970
REMARK  Name = 
REMARK  13 active torsions:
REMARK  status: ('A' for Active; 'I' for Inactive)
REMARK    1  A    between atoms: C_1  and  C_2
REMARK    2  A    between atoms: C_2  and  C_3
REMARK    3  A    between atoms: C_2  and  C_4
REMARK    4  A    between atoms: C_2  and  C_5
REMARK    5  A    between atoms: C_5  and  C_7
REMARK    6  A    between atoms: C_8  and  O_9
REMARK    7  A    between atoms: N_12  and  C_13
REMARK    8  A    between atoms: C_16  and  C_17
REMARK    9  A    between atoms: C_24  and  C_25
REMARK   10  A    between atoms: C_30  and  O_31
REMARK   11  A    between atoms: O_31  and  C_32
REMARK   12  A    between atoms: C_32  and  C_33
REMARK   13  A    between atoms: C_33  and  O_35
REMARK                            x       y       z     vdW  Elec       q    Type
REMARK                         _______ _______ _______ _____ _____    ______ ____
ROOT
ATOM      1  C   UNL     1      -1.489  12.781  19.400  0.00  0.00    +0.000 C 
ATOM      2  C   UNL     1      -1.621  14.010  19.936  0.00  0.00    +0.000 C 
ATOM      3  C   UNL     1      -0.280  14.619  20.078  0.00  0.00    +0.000 C 
ATOM      4  O   UNL     1      -0.099  15.763  20.460  0.00  0.00    +0.000 OA
ATOM      5  N   UNL     1       0.644  13.674  19.631  0.00  0.00    +0.000 N 
ATOM      6  C   UNL     1      -0.038  12.476  19.132  0.00  0.00    +0.000 C 
ENDROOT
BRANCH   5   7
ATOM      7  C   UNL     1       2.037  13.960  19.520  0.00  0.00    +0.000 A 
ATOM      8  C   UNL     1       2.632  14.098  18.260  0.00  0.00    +0.000 A 
ATOM      9  C   UNL     1       3.964  14.509  18.118  0.00  0.00    +0.000 A 
ATOM     10  C   UNL     1       4.749  14.800  19.236  0.00  0.00    +0.000 A 
ATOM     11  C   UNL     1       4.186  14.595  20.498  0.00  0.00    +0.000 A 
ATOM     12  C   UNL     1       2.864  14.142  20.631  0.00  0.00    +0.000 A 
BRANCH  10  13
ATOM     13  C   UNL     1       6.111  15.312  19.069  0.00  0.00    +0.000 A 
ATOM     14  C   UNL     1       6.984  15.099  17.950  0.00  0.00    +0.000 A 
ATOM     15  C   UNL     1       8.207  15.715  18.098  0.00  0.00    +0.000 A 
ATOM     16  S   UNL     1       8.322  16.557  19.578  0.00  0.00    +0.000 S 
ATOM     17  C   UNL     1       6.738  16.089  20.028  0.00  0.00    +0.000 A 
ENDBRANCH  10  13
ENDBRANCH   5   7
BRANCH   6  18
ATOM     18  C   UNL     1       0.539  11.141  19.630  0.00  0.00    +0.000 A 
ATOM     19  C   UNL     1       0.902  10.227  18.607  0.00  0.00    +0.000 A 
ATOM     20  C   UNL     1       1.394   8.950  18.860  0.00  0.00    +0.000 A 
ATOM     21  C   UNL     1       1.466   8.505  20.159  0.00  0.00    +0.000 A 
ATOM     22  C   UNL     1       1.126   9.366  21.196  0.00  0.00    +0.000 A 
ATOM     23  C   UNL     1       0.729  10.699  20.962  0.00  0.00    +0.000 A 
BRANCH  23  24
ATOM     24  O   UNL     1       0.321  11.483  22.028  0.00  0.00    +0.000 OA
BRANCH  24  25
ATOM     25  C   UNL     1      -0.967  11.138  22.576  0.00  0.00    +0.000 C 
BRANCH  25  26
ATOM     26  C   UNL     1      -1.891  12.262  23.062  0.00  0.00    +0.000 C 
ATOM     27  O   UNL     1      -1.490  13.339  23.500  0.00  0.00    +0.000 OA
BRANCH  26  28
ATOM     28  O   UNL     1      -3.209  11.975  22.976  0.00  0.00    +0.000 OA
ATOM     29  H   UNL     1      -3.583  12.240  22.112  0.00  0.00    +0.000 HD
ENDBRANCH  26  28
ENDBRANCH  25  26
ENDBRANCH  24  25
ENDBRANCH  23  24
ENDBRANCH   6  18
BRANCH   1  30
ATOM     30  C   UNL     1      -2.740  12.015  19.116  0.00  0.00    +0.000 C 
ATOM     31  O   UNL     1      -3.614  12.048  20.000  0.00  0.00    +0.000 OA
BRANCH  30  33
ATOM     32  C   UNL     1      -4.522  11.249  17.486  0.00  0.00    +0.000 C 
ATOM     33  C   UNL     1      -3.016  11.163  17.848  0.00  0.00    +0.000 C 
ATOM     34  C   UNL     1      -2.776   9.689  18.189  0.00  0.00    +0.000 C 
ATOM     35  C   UNL     1      -2.256  11.599  16.592  0.00  0.00    +0.000 C 
ENDBRANCH  30  33
ENDBRANCH   1  30
BRANCH   2  36
ATOM     36  O   UNL     1      -2.762  14.686  20.281  0.00  0.00    +0.000 OA
ATOM     37  H   UNL     1      -3.083  14.311  21.129  0.00  0.00    +0.000 HD
ENDBRANCH   2  36
TORSDOF 10
ENDMDL
MODEL 7
REMARK VINA RESULT:      -7.1      7.536     10.630
REMARK  Name = 
REMARK  13 active torsions:
REMARK  status: ('A' for Active; 'I' for Inactive)
REMARK    1  A    between atoms: C_1  and  C_2
REMARK    2  A    between atoms: C_2  and  C_3
REMARK    3  A    between atoms: C_2  and  C_4
REMARK    4  A    between atoms: C_2  and  C_5
REMARK    5  A    between atoms: C_5  and  C_7
REMARK    6  A    between atoms: C_8  and  O_9
REMARK    7  A    between atoms: N_12  and  C_13
REMARK    8  A    between atoms: C_16  and  C_17
REMARK    9  A    between atoms: C_24  and  C_25
REMARK   10  A    between atoms: C_30  and  O_31
REMARK   11  A    between atoms: O_31  and  C_32
REMARK   12  A    between atoms: C_32  and  C_33
REMARK   13  A    between atoms: C_33  and  O_35
REMARK                            x       y       z     vdW  Elec       q    Type
REMARK                         _______ _______ _______ _____ _____    ______ ____
ROOT
ATOM      1  C   UNL     1      -3.442  13.665  21.194  0.00  0.00    +0.000 C 
ATOM      2  C   UNL     1      -3.451  14.933  21.651  0.00  0.00    +0.000 C 
ATOM      3  C   UNL     1      -2.100  15.512  21.487  0.00  0.00    +0.000 C 
ATOM      4  O   UNL     1      -1.832  16.675  21.739  0.00  0.00    +0.000 OA
ATOM      5  N   UNL     1      -1.293  14.511  20.943  0.00  0.00    +0.000 N 
ATOM      6  C   UNL     1      -2.076  13.300  20.677  0.00  0.00    +0.000 C 
ENDROOT
BRANCH   5   7
ATOM      7  C   UNL     1       0.056  14.749  20.544  0.00  0.00    +0.000 A 
ATOM      8  C   UNL     1       1.106  14.552  21.448  0.00  0.00    +0.000 A 
ATOM      9  C   UNL     1       2.446  14.647  21.050  0.00  0.00    +0.000 A 
ATOM     10  C   UNL     1       2.783  14.941  19.726  0.00  0.00    +0.000 A 
ATOM     11  C   UNL     1       1.742  15.211  18.834  0.00  0.00    +0.000 A 
ATOM     12  C   UNL     1       0.403  15.155  19.253  0.00  0.00    +0.000 A 
BRANCH  10  13
ATOM     13  C   UNL     1       4.185  14.952  19.305  0.00  0.00    +0.000 A 
ATOM     14  C   UNL     1       4.686  14.848  17.964  0.00  0.00    +0.000 A 
ATOM     15  C   UNL     1       6.062  14.889  17.900  0.00  0.00    +0.000 A 
ATOM     16  S   UNL     1       6.767  15.055  19.444  0.00  0.00    +0.000 S 
ATOM     17  C   UNL     1       5.232  15.062  20.203  0.00  0.00    +0.000 A 
ENDBRANCH  10  13
ENDBRANCH   5   7
BRANCH   6  18
ATOM     18  C   UNL     1      -1.431  11.989  21.153  0.00  0.00    +0.000 A 
ATOM     19  C   UNL     1      -1.609  11.700  22.531  0.00  0.00    +0.000 A 
ATOM     20  C   UNL     1      -1.057  10.587  23.158  0.00  0.00    +0.000 A 
ATOM     21  C   UNL     1      -0.231   9.754  22.440  0.00  0.00    +0.000 A 
ATOM     22  C   UNL     1      -0.031   9.993  21.085  0.00  0.00    +0.000 A 
ATOM     23  C   UNL     1      -0.669  11.054  20.410  0.00  0.00    +0.000 A 
BRANCH  23  24
ATOM     24  O   UNL     1      -0.365  11.294  19.081  0.00  0.00    +0.000 OA
BRANCH  24  25
ATOM     25  C   UNL     1      -0.633  10.193  18.189  0.00  0.00    +0.000 C 
BRANCH  25  26
ATOM     26  C   UNL     1      -1.943  10.187  17.391  0.00  0.00    +0.000 C 
ATOM     27  O   UNL     1      -2.898   9.455  17.645  0.00  0.00    +0.000 OA
BRANCH  26  28
ATOM     28  O   UNL     1      -1.971  11.063  16.361  0.00  0.00    +0.000 OA
ATOM     29  H   UNL     1      -1.685  11.957  16.636  0.00  0.00    +0.000 HD
ENDBRANCH  26  28
ENDBRANCH  25  26
ENDBRANCH  24  25
ENDBRANCH  23  24
ENDBRANCH   6  18
BRANCH   1  30
ATOM     30  C   UNL     1      -4.736  12.916  21.216  0.00  0.00    +0.000 C 
ATOM     31  O   UNL     1      -5.089  12.466  22.319  0.00  0.00    +0.000 OA
BRANCH  30  33
ATOM     32  C   UNL     1      -4.762  12.084  18.823  0.00  0.00    +0.000 C 
ATOM     33  C   UNL     1      -5.637  12.624  19.985  0.00  0.00    +0.000 C 
ATOM     34  C   UNL     1      -6.203  13.951  19.470  0.00  0.00    +0.000 C 
ATOM     35  C   UNL     1      -6.729  11.576  20.211  0.00  0.00    +0.000 C 
ENDBRANCH  30  33
ENDBRANCH   1  30
BRANCH   2  36
ATOM     36  O   UNL     1      -4.494  15.663  22.158  0.00  0.00    +0.000 OA
ATOM     37  H   UNL     1      -5.314  15.142  22.021  0.00  0.00    +0.000 HD
ENDBRANCH   2  36
TORSDOF 10
ENDMDL
MODEL 8
REMARK VINA RESULT:      -7.0      7.275     10.400
REMARK  Name = 
REMARK  13 active torsions:
REMARK  status: ('A' for Active; 'I' for Inactive)
REMARK    1  A    between atoms: C_1  and  C_2
REMARK    2  A    between atoms: C_2  and  C_3
REMARK    3  A    between atoms: C_2  and  C_4
REMARK    4  A    between atoms: C_2  and  C_5
REMARK    5  A    between atoms: C_5  and  C_7
REMARK    6  A    between atoms: C_8  and  O_9
REMARK    7  A    between atoms: N_12  and  C_13
REMARK    8  A    between atoms: C_16  and  C_17
REMARK    9  A    between atoms: C_24  and  C_25
REMARK   10  A    between atoms: C_30  and  O_31
REMARK   11  A    between atoms: O_31  and  C_32
REMARK   12  A    between atoms: C_32  and  C_33
REMARK   13  A    between atoms: C_33  and  O_35
REMARK                            x       y       z     vdW  Elec       q    Type
REMARK                         _______ _______ _______ _____ _____    ______ ____
ROOT
ATOM      1  C   UNL     1      -3.531  13.510  20.812  0.00  0.00    +0.000 C 
ATOM      2  C   UNL     1      -3.626  14.818  21.122  0.00  0.00    +0.000 C 
ATOM      3  C   UNL     1      -2.289  15.440  20.992  0.00  0.00    +0.000 C 
ATOM      4  O   UNL     1      -2.088  16.635  21.130  0.00  0.00    +0.000 OA
ATOM      5  N   UNL     1      -1.404  14.426  20.623  0.00  0.00    +0.000 N 
ATOM      6  C   UNL     1      -2.115  13.157  20.439  0.00  0.00    +0.000 C 
ENDROOT
BRANCH   5   7
ATOM      7  C   UNL     1      -0.039  14.683  20.299  0.00  0.00    +0.000 A 
ATOM      8  C   UNL     1       0.939  14.675  21.299  0.00  0.00    +0.000 A 
ATOM      9  C   UNL     1       2.303  14.791  20.995  0.00  0.00    +0.000 A 
ATOM     10  C   UNL     1       2.735  14.915  19.673  0.00  0.00    +0.000 A 
ATOM     11  C   UNL     1       1.762  14.997  18.674  0.00  0.00    +0.000 A 
ATOM     12  C   UNL     1       0.396  14.923  18.993  0.00  0.00    +0.000 A 
BRANCH  10  13
ATOM     13  C   UNL     1       4.166  14.948  19.364  0.00  0.00    +0.000 A 
ATOM     14  C   UNL     1       5.247  15.140  20.290  0.00  0.00    +0.000 A 
ATOM     15  C   UNL     1       6.484  15.120  19.682  0.00  0.00    +0.000 A 
ATOM     16  S   UNL     1       6.363  14.870  17.999  0.00  0.00    +0.000 S 
ATOM     17  C   UNL     1       4.654  14.798  18.078  0.00  0.00    +0.000 A 
ENDBRANCH  10  13
ENDBRANCH   5   7
BRANCH   6  18
ATOM     18  C   UNL     1      -1.458  11.938  21.105  0.00  0.00    +0.000 A 
ATOM     19  C   UNL     1      -1.781  11.757  22.475  0.00  0.00    +0.000 A 
ATOM     20  C   UNL     1      -1.246  10.741  23.261  0.00  0.00    +0.000 A 
ATOM     21  C   UNL     1      -0.294   9.908  22.721  0.00  0.00    +0.000 A 
ATOM     22  C   UNL     1       0.051  10.042  21.382  0.00  0.00    +0.000 A 
ATOM     23  C   UNL     1      -0.562  10.996  20.543  0.00  0.00    +0.000 A 
BRANCH  23  24
ATOM     24  O   UNL     1      -0.116  11.141  19.241  0.00  0.00    +0.000 OA
BRANCH  24  25
ATOM     25  C   UNL     1       0.025   9.908  18.506  0.00  0.00    +0.000 C 
BRANCH  25  26
ATOM     26  C   UNL     1       1.431   9.419  18.140  0.00  0.00    +0.000 C 
ATOM     27  O   UNL     1       1.945   8.400  18.599  0.00  0.00    +0.000 OA
BRANCH  26  28
ATOM     28  O   UNL     1       2.083  10.210  17.259  0.00  0.00    +0.000 OA
ATOM     29  H   UNL     1       2.743   9.710  16.740  0.00  0.00    +0.000 HD
ENDBRANCH  26  28
ENDBRANCH  25  26
ENDBRANCH  24  25
ENDBRANCH  23  24
ENDBRANCH   6  18
BRANCH   1  30
ATOM     30  C   UNL     1      -4.792  12.707  20.824  0.00  0.00    +0.000 C 
ATOM     31  O   UNL     1      -5.231  12.395  21.944  0.00  0.00    +0.000 OA
BRANCH  30  33
ATOM     32  C   UNL     1      -6.261  13.405  18.881  0.00  0.00    +0.000 C 
ATOM     33  C   UNL     1      -5.561  12.205  19.572  0.00  0.00    +0.000 C 
ATOM     34  C   UNL     1      -6.702  11.294  20.033  0.00  0.00    +0.000 C 
ATOM     35  C   UNL     1      -4.694  11.548  18.495  0.00  0.00    +0.000 C 
ENDBRANCH  30  33
ENDBRANCH   1  30
BRANCH   2  36
ATOM     36  O   UNL     1      -4.732  15.548  21.466  0.00  0.00    +0.000 OA
ATOM     37  H   UNL     1      -4.420  16.383  21.877  0.00  0.00    +0.000 HD
ENDBRANCH   2  36
TORSDOF 10
ENDMDL
MODEL 9
REMARK VINA RESULT:      -7.0      1.050      1.695
REMARK  Name = 
REMARK  13 active torsions:
REMARK  status: ('A' for Active; 'I' for Inactive)
REMARK    1  A    between atoms: C_1  and  C_2
REMARK    2  A    between atoms: C_2  and  C_3
REMARK    3  A    between atoms: C_2  and  C_4
REMARK    4  A    between atoms: C_2  and  C_5
REMARK    5  A    between atoms: C_5  and  C_7
REMARK    6  A    between atoms: C_8  and  O_9
REMARK    7  A    between atoms: N_12  and  C_13
REMARK    8  A    between atoms: C_16  and  C_17
REMARK    9  A    between atoms: C_24  and  C_25
REMARK   10  A    between atoms: C_30  and  O_31
REMARK   11  A    between atoms: O_31  and  C_32
REMARK   12  A    between atoms: C_32  and  C_33
REMARK   13  A    between atoms: C_33  and  O_35
REMARK                            x       y       z     vdW  Elec       q    Type
REMARK                         _______ _______ _______ _____ _____    ______ ____
ROOT
ATOM      1  C   UNL     1       4.701   3.786  17.710  0.00  0.00    +0.000 C 
ATOM      2  C   UNL     1       5.535   3.513  16.688  0.00  0.00    +0.000 C 
ATOM      3  C   UNL     1       6.521   4.610  16.567  0.00  0.00    +0.000 C 
ATOM      4  O   UNL     1       7.452   4.594  15.779  0.00  0.00    +0.000 OA
ATOM      5  N   UNL     1       6.201   5.552  17.546  0.00  0.00    +0.000 N 
ATOM      6  C   UNL     1       5.073   5.091  18.362  0.00  0.00    +0.000 C 
ENDROOT
BRANCH   5   7
ATOM      7  C   UNL     1       7.012   6.699  17.798  0.00  0.00    +0.000 A 
ATOM      8  C   UNL     1       6.817   7.876  17.068  0.00  0.00    +0.000 A 
ATOM      9  C   UNL     1       7.503   9.058  17.381  0.00  0.00    +0.000 A 
ATOM     10  C   UNL     1       8.409   9.101  18.443  0.00  0.00    +0.000 A 
ATOM     11  C   UNL     1       8.664   7.912  19.132  0.00  0.00    +0.000 A 
ATOM     12  C   UNL     1       8.003   6.724  18.782  0.00  0.00    +0.000 A 
BRANCH  10  13
ATOM     13  C   UNL     1       9.054  10.363  18.813  0.00  0.00    +0.000 A 
ATOM     14  C   UNL     1       9.751  10.652  20.035  0.00  0.00    +0.000 A 
ATOM     15  C   UNL     1      10.246  11.937  20.079  0.00  0.00    +0.000 A 
ATOM     16  S   UNL     1       9.882  12.810  18.659  0.00  0.00    +0.000 S 
ATOM     17  C   UNL     1       9.053  11.472  17.985  0.00  0.00    +0.000 A 
ENDBRANCH  10  13
ENDBRANCH   5   7
BRANCH   6  18
ATOM     18  C   UNL     1       3.973   6.136  18.604  0.00  0.00    +0.000 A 
ATOM     19  C   UNL     1       3.869   7.139  17.606  0.00  0.00    +0.000 A 
ATOM     20  C   UNL     1       2.969   8.198  17.674  0.00  0.00    +0.000 A 
ATOM     21  C   UNL     1       2.185   8.340  18.795  0.00  0.00    +0.000 A 
ATOM     22  C   UNL     1       2.248   7.380  19.798  0.00  0.00    +0.000 A 
ATOM     23  C   UNL     1       3.076   6.243  19.695  0.00  0.00    +0.000 A 
BRANCH  23  24
ATOM     24  O   UNL     1       3.160   5.366  20.763  0.00  0.00    +0.000 OA
BRANCH  24  25
ATOM     25  C   UNL     1       1.981   4.567  20.987  0.00  0.00    +0.000 C 
BRANCH  25  26
ATOM     26  C   UNL     1       2.129   3.201  21.669  0.00  0.00    +0.000 C 
ATOM     27  O   UNL     1       1.246   2.669  22.339  0.00  0.00    +0.000 OA
BRANCH  26  28
ATOM     28  O   UNL     1       3.331   2.613  21.480  0.00  0.00    +0.000 OA
ATOM     29  H   UNL     1       3.489   2.402  20.538  0.00  0.00    +0.000 HD
ENDBRANCH  26  28
ENDBRANCH  25  26
ENDBRANCH  24  25
ENDBRANCH  23  24
ENDBRANCH   6  18
BRANCH   1  30
ATOM     30  C   UNL     1       3.660   2.765  18.040  0.00  0.00    +0.000 C 
ATOM     31  O   UNL     1       4.040   1.794  18.716  0.00  0.00    +0.000 OA
BRANCH  30  33
ATOM     32  C   UNL     1       1.327   1.897  18.514  0.00  0.00    +0.000 C 
ATOM     33  C   UNL     1       2.177   2.798  17.579  0.00  0.00    +0.000 C 
ATOM     34  C   UNL     1       2.080   2.139  16.200  0.00  0.00    +0.000 C 
ATOM     35  C   UNL     1       1.516   4.178  17.610  0.00  0.00    +0.000 C 
ENDBRANCH  30  33
ENDBRANCH   1  30
BRANCH   2  36
ATOM     36  O   UNL     1       5.574   2.414  15.871  0.00  0.00    +0.000 OA
ATOM     37  H   UNL     1       5.768   1.634  16.433  0.00  0.00    +0.000 HD
ENDBRANCH   2  36
TORSDOF 10
ENDMDL
