MODEL 1
REMARK VINA RESULT:      -7.7      0.000      0.000
REMARK  Name = 
REMARK  2 active torsions:
REMARK  status: ('A' for Active; 'I' for Inactive)
REMARK    1  A    between atoms: C_1  and  C_2
REMARK    2  A    between atoms: C_3  and  C_4
REMARK                            x       y       z     vdW  Elec       q    Type
REMARK                         _______ _______ _______ _____ _____    ______ ____
ROOT
ATOM      1  C   UNL     1       3.263   6.659  17.963  0.00  0.00    +0.000 C 
ATOM      2  C   UNL     1       3.888   5.359  17.586  0.00  0.00    +0.000 A 
ATOM      3  C   UNL     1       3.701   4.090  18.146  0.00  0.00    +0.000 A 
ATOM      4  N   UNL     1       4.491   3.211  17.421  0.00  0.00    +0.000 N 
ATOM      5  C   UNL     1       5.168   3.881  16.446  0.00  0.00    +0.000 A 
ATOM      6  C   UNL     1       6.092   3.396  15.470  0.00  0.00    +0.000 A 
ATOM      7  N   UNL     1       6.651   4.209  14.620  0.00  0.00    +0.000 NA
ATOM      8  N   UNL     1       6.315   5.560  14.697  0.00  0.00    +0.000 N 
ATOM      9  C   UNL     1       5.428   6.149  15.592  0.00  0.00    +0.000 A 
ATOM     10  O   UNL     1       5.193   7.353  15.589  0.00  0.00    +0.000 OA
ATOM     11  C   UNL     1       4.826   5.209  16.523  0.00  0.00    +0.000 A 
ATOM     12  H   UNL     1       4.565   2.222  17.612  0.00  0.00    +0.000 HD
ATOM     13  H   UNL     1       6.768   6.172  14.028  0.00  0.00    +0.000 HD
ENDROOT
BRANCH   3  14
ATOM     14  C   UNL     1       2.888   3.624  19.282  0.00  0.00    +0.000 A 
ATOM     15  C   UNL     1       3.481   3.002  20.392  0.00  0.00    +0.000 A 
ATOM     16  C   UNL     1       2.705   2.571  21.473  0.00  0.00    +0.000 A 
ATOM     17  C   UNL     1       1.323   2.738  21.453  0.00  0.00    +0.000 A 
ATOM     18  C   UNL     1       0.719   3.352  20.360  0.00  0.00    +0.000 A 
ATOM     19  C   UNL     1       1.499   3.806  19.293  0.00  0.00    +0.000 A 
ENDBRANCH   3  14
TORSDOF 1
ENDMDL
MODEL 2
REMARK VINA RESULT:      -7.6      1.338      1.814
REMARK  Name = 
REMARK  2 active torsions:
REMARK  status: ('A' for Active; 'I' for Inactive)
REMARK    1  A    between atoms: C_1  and  C_2
REMARK    2  A    between atoms: C_3  and  C_4
REMARK                            x       y       z     vdW  Elec       q    Type
REMARK                         _______ _______ _______ _____ _____    ______ ____
ROOT
ATOM      1  C   UNL     1       5.832   5.618  19.369  0.00  0.00    +0.000 C 
ATOM      2  C   UNL     1       5.280   4.903  18.183  0.00  0.00    +0.000 A 
ATOM      3  C   UNL     1       4.131   4.111  18.081  0.00  0.00    +0.000 A 
ATOM      4  N   UNL     1       4.044   3.699  16.761  0.00  0.00    +0.000 N 
ATOM      5  C   UNL     1       5.095   4.189  16.044  0.00  0.00    +0.000 A 
ATOM      6  C   UNL     1       5.421   4.024  14.663  0.00  0.00    +0.000 A 
ATOM      7  N   UNL     1       6.493   4.570  14.161  0.00  0.00    +0.000 NA
ATOM      8  N   UNL     1       7.301   5.317  15.017  0.00  0.00    +0.000 N 
ATOM      9  C   UNL     1       7.086   5.556  16.370  0.00  0.00    +0.000 A 
ATOM     10  O   UNL     1       7.855   6.228  17.050  0.00  0.00    +0.000 OA
ATOM     11  C   UNL     1       5.882   4.930  16.891  0.00  0.00    +0.000 A 
ATOM     12  H   UNL     1       3.315   3.101  16.398  0.00  0.00    +0.000 HD
ATOM     13  H   UNL     1       8.131   5.727  14.604  0.00  0.00    +0.000 HD
ENDROOT
BRANCH   3  14
ATOM     14  C   UNL     1       3.131   3.692  19.077  0.00  0.00    +0.000 A 
ATOM     15  C   UNL     1       1.767   3.969  18.897  0.00  0.00    +0.000 A 
ATOM     16  C   UNL     1       0.819   3.559  19.842  0.00  0.00    +0.000 A 
ATOM     17  C   UNL     1       1.224   2.880  20.988  0.00  0.00    +0.000 A 
ATOM     18  C   UNL     1       2.573   2.596  21.182  0.00  0.00    +0.000 A 
ATOM     19  C   UNL     1       3.514   2.985  20.225  0.00  0.00    +0.000 A 
ENDBRANCH   3  14
TORSDOF 1
ENDMDL
MODEL 3
REMARK VINA RESULT:      -7.6      1.351      1.410
REMARK  Name = 
REMARK  2 active torsions:
REMARK  status: ('A' for Active; 'I' for Inactive)
REMARK    1  A    between atoms: C_1  and  C_2
REMARK    2  A    between atoms: C_3  and  C_4
REMARK                            x       y       z     vdW  Elec       q    Type
REMARK                         _______ _______ _______ _____ _____    ______ ____
ROOT
ATOM      1  C   UNL     1       5.881   5.598  19.372  0.00  0.00    +0.000 C 
ATOM      2  C   UNL     1       5.308   4.896  18.188  0.00  0.00    +0.000 A 
ATOM      3  C   UNL     1       4.149   4.117  18.095  0.00  0.00    +0.000 A 
ATOM      4  N   UNL     1       4.042   3.713  16.773  0.00  0.00    +0.000 N 
ATOM      5  C   UNL     1       5.090   4.196  16.047  0.00  0.00    +0.000 A 
ATOM      6  C   UNL     1       5.398   4.035  14.662  0.00  0.00    +0.000 A 
ATOM      7  N   UNL     1       6.470   4.573  14.151  0.00  0.00    +0.000 NA
ATOM      8  N   UNL     1       7.296   5.306  15.001  0.00  0.00    +0.000 N 
ATOM      9  C   UNL     1       7.099   5.539  16.358  0.00  0.00    +0.000 A 
ATOM     10  O   UNL     1       7.884   6.199  17.033  0.00  0.00    +0.000 OA
ATOM     11  C   UNL     1       5.895   4.924  16.889  0.00  0.00    +0.000 A 
ATOM     12  H   UNL     1       3.302   3.126  16.415  0.00  0.00    +0.000 HD
ATOM     13  H   UNL     1       8.126   5.709  14.581  0.00  0.00    +0.000 HD
ENDROOT
BRANCH   3  14
ATOM     14  C   UNL     1       3.156   3.703  19.100  0.00  0.00    +0.000 A 
ATOM     15  C   UNL     1       3.528   2.936  20.216  0.00  0.00    +0.000 A 
ATOM     16  C   UNL     1       2.583   2.554  21.173  0.00  0.00    +0.000 A 
ATOM     17  C   UNL     1       1.248   2.918  21.021  0.00  0.00    +0.000 A 
ATOM     18  C   UNL     1       0.861   3.678  19.922  0.00  0.00    +0.000 A 
ATOM     19  C   UNL     1       1.812   4.080  18.980  0.00  0.00    +0.000 A 
ENDBRANCH   3  14
TORSDOF 1
ENDMDL
MODEL 4
REMARK VINA RESULT:      -7.6      0.152      1.173
REMARK  Name = 
REMARK  2 active torsions:
REMARK  status: ('A' for Active; 'I' for Inactive)
REMARK    1  A    between atoms: C_1  and  C_2
REMARK    2  A    between atoms: C_3  and  C_4
REMARK                            x       y       z     vdW  Elec       q    Type
REMARK                         _______ _______ _______ _____ _____    ______ ____
ROOT
ATOM      1  C   UNL     1       3.347   6.770  17.905  0.00  0.00    +0.000 C 
ATOM      2  C   UNL     1       3.922   5.450  17.517  0.00  0.00    +0.000 A 
ATOM      3  C   UNL     1       3.681   4.184  18.062  0.00  0.00    +0.000 A 
ATOM      4  N   UNL     1       4.439   3.282  17.331  0.00  0.00    +0.000 N 
ATOM      5  C   UNL     1       5.147   3.935  16.366  0.00  0.00    +0.000 A 
ATOM      6  C   UNL     1       6.055   3.424  15.389  0.00  0.00    +0.000 A 
ATOM      7  N   UNL     1       6.650   4.223  14.550  0.00  0.00    +0.000 NA
ATOM      8  N   UNL     1       6.368   5.586  14.641  0.00  0.00    +0.000 N 
ATOM      9  C   UNL     1       5.502   6.199  15.538  0.00  0.00    +0.000 A 
ATOM     10  O   UNL     1       5.315   7.412  15.548  0.00  0.00    +0.000 OA
ATOM     11  C   UNL     1       4.858   5.275  16.456  0.00  0.00    +0.000 A 
ATOM     12  H   UNL     1       4.472   2.288  17.511  0.00  0.00    +0.000 HD
ATOM     13  H   UNL     1       6.848   6.186  13.980  0.00  0.00    +0.000 HD
ENDROOT
BRANCH   3  14
ATOM     14  C   UNL     1       2.846   3.738  19.189  0.00  0.00    +0.000 A 
ATOM     15  C   UNL     1       1.444   3.786  19.117  0.00  0.00    +0.000 A 
ATOM     16  C   UNL     1       0.654   3.351  20.186  0.00  0.00    +0.000 A 
ATOM     17  C   UNL     1       1.253   2.877  21.350  0.00  0.00    +0.000 A 
ATOM     18  C   UNL     1       2.641   2.823  21.439  0.00  0.00    +0.000 A 
ATOM     19  C   UNL     1       3.428   3.234  20.360  0.00  0.00    +0.000 A 
ENDBRANCH   3  14
TORSDOF 1
ENDMDL
MODEL 5
REMARK VINA RESULT:      -7.5      1.731      2.485
REMARK  Name = 
REMARK  2 active torsions:
REMARK  status: ('A' for Active; 'I' for Inactive)
REMARK    1  A    between atoms: C_1  and  C_2
REMARK    2  A    between atoms: C_3  and  C_4
REMARK                            x       y       z     vdW  Elec       q    Type
REMARK                         _______ _______ _______ _____ _____    ______ ____
ROOT
ATOM      1  C   UNL     1       4.031   2.911  16.565  0.00  0.00    +0.000 C 
ATOM      2  C   UNL     1       4.617   4.010  17.385  0.00  0.00    +0.000 A 
ATOM      3  C   UNL     1       4.282   4.426  18.678  0.00  0.00    +0.000 A 
ATOM      4  N   UNL     1       5.138   5.468  18.999  0.00  0.00    +0.000 N 
ATOM      5  C   UNL     1       5.979   5.724  17.957  0.00  0.00    +0.000 A 
ATOM      6  C   UNL     1       7.015   6.700  17.830  0.00  0.00    +0.000 A 
ATOM      7  N   UNL     1       7.709   6.797  16.732  0.00  0.00    +0.000 NA
ATOM      8  N   UNL     1       7.407   5.916  15.694  0.00  0.00    +0.000 N 
ATOM      9  C   UNL     1       6.434   4.923  15.700  0.00  0.00    +0.000 A 
ATOM     10  O   UNL     1       6.234   4.191  14.735  0.00  0.00    +0.000 OA
ATOM     11  C   UNL     1       5.682   4.848  16.941  0.00  0.00    +0.000 A 
ATOM     12  H   UNL     1       5.117   5.975  19.873  0.00  0.00    +0.000 HD
ATOM     13  H   UNL     1       7.958   6.015  14.849  0.00  0.00    +0.000 HD
ENDROOT
BRANCH   3  14
ATOM     14  C   UNL     1       3.250   3.971  19.624  0.00  0.00    +0.000 A 
ATOM     15  C   UNL     1       1.958   4.521  19.609  0.00  0.00    +0.000 A 
ATOM     16  C   UNL     1       0.978   4.077  20.504  0.00  0.00    +0.000 A 
ATOM     17  C   UNL     1       1.280   3.089  21.438  0.00  0.00    +0.000 A 
ATOM     18  C   UNL     1       2.555   2.534  21.466  0.00  0.00    +0.000 A 
ATOM     19  C   UNL     1       3.525   2.961  20.555  0.00  0.00    +0.000 A 
ENDBRANCH   3  14
TORSDOF 1
ENDMDL
MODEL 6
REMARK VINA RESULT:      -7.5      1.656      1.872
REMARK  Name = 
REMARK  2 active torsions:
REMARK  status: ('A' for Active; 'I' for Inactive)
REMARK    1  A    between atoms: C_1  and  C_2
REMARK    2  A    between atoms: C_3  and  C_4
REMARK                            x       y       z     vdW  Elec       q    Type
REMARK                         _______ _______ _______ _____ _____    ______ ____
ROOT
ATOM      1  C   UNL     1       5.503   5.496  19.347  0.00  0.00    +0.000 C 
ATOM      2  C   UNL     1       5.100   4.965  18.013  0.00  0.00    +0.000 A 
ATOM      3  C   UNL     1       3.934   4.283  17.647  0.00  0.00    +0.000 A 
ATOM      4  N   UNL     1       4.027   4.030  16.287  0.00  0.00    +0.000 N 
ATOM      5  C   UNL     1       5.205   4.513  15.799  0.00  0.00    +0.000 A 
ATOM      6  C   UNL     1       5.731   4.478  14.471  0.00  0.00    +0.000 A 
ATOM      7  N   UNL     1       6.899   4.990  14.204  0.00  0.00    +0.000 NA
ATOM      8  N   UNL     1       7.609   5.570  15.254  0.00  0.00    +0.000 N 
ATOM      9  C   UNL     1       7.202   5.672  16.580  0.00  0.00    +0.000 A 
ATOM     10  O   UNL     1       7.896   6.200  17.443  0.00  0.00    +0.000 OA
ATOM     11  C   UNL     1       5.896   5.089  16.837  0.00  0.00    +0.000 A 
ATOM     12  H   UNL     1       3.328   3.537  15.750  0.00  0.00    +0.000 HD
ATOM     13  H   UNL     1       8.517   5.957  15.021  0.00  0.00    +0.000 HD
ENDROOT
BRANCH   3  14
ATOM     14  C   UNL     1       2.767   3.835  18.426  0.00  0.00    +0.000 A 
ATOM     15  C   UNL     1       2.082   2.655  18.094  0.00  0.00    +0.000 A 
ATOM     16  C   UNL     1       0.981   2.229  18.844  0.00  0.00    +0.000 A 
ATOM     17  C   UNL     1       0.538   2.984  19.926  0.00  0.00    +0.000 A 
ATOM     18  C   UNL     1       1.205   4.156  20.269  0.00  0.00    +0.000 A 
ATOM     19  C   UNL     1       2.320   4.567  19.534  0.00  0.00    +0.000 A 
ENDBRANCH   3  14
TORSDOF 1
ENDMDL
MODEL 7
REMARK VINA RESULT:      -7.5      1.730      2.228
REMARK  Name = 
REMARK  2 active torsions:
REMARK  status: ('A' for Active; 'I' for Inactive)
REMARK    1  A    between atoms: C_1  and  C_2
REMARK    2  A    between atoms: C_3  and  C_4
REMARK                            x       y       z     vdW  Elec       q    Type
REMARK                         _______ _______ _______ _____ _____    ______ ____
ROOT
ATOM      1  C   UNL     1       4.096   2.851  16.538  0.00  0.00    +0.000 C 
ATOM      2  C   UNL     1       4.659   3.968  17.350  0.00  0.00    +0.000 A 
ATOM      3  C   UNL     1       4.300   4.400  18.632  0.00  0.00    +0.000 A 
ATOM      4  N   UNL     1       5.142   5.455  18.949  0.00  0.00    +0.000 N 
ATOM      5  C   UNL     1       5.997   5.702  17.916  0.00  0.00    +0.000 A 
ATOM      6  C   UNL     1       7.026   6.686  17.791  0.00  0.00    +0.000 A 
ATOM      7  N   UNL     1       7.737   6.772  16.703  0.00  0.00    +0.000 NA
ATOM      8  N   UNL     1       7.458   5.873  15.674  0.00  0.00    +0.000 N 
ATOM      9  C   UNL     1       6.494   4.872  15.680  0.00  0.00    +0.000 A 
ATOM     10  O   UNL     1       6.316   4.123  14.724  0.00  0.00    +0.000 OA
ATOM     11  C   UNL     1       5.723   4.809  16.910  0.00  0.00    +0.000 A 
ATOM     12  H   UNL     1       5.103   5.974  19.815  0.00  0.00    +0.000 HD
ATOM     13  H   UNL     1       8.022   5.964  14.836  0.00  0.00    +0.000 HD
ENDROOT
BRANCH   3  14
ATOM     14  C   UNL     1       3.258   3.951  19.568  0.00  0.00    +0.000 A 
ATOM     15  C   UNL     1       3.506   2.924  20.493  0.00  0.00    +0.000 A 
ATOM     16  C   UNL     1       2.515   2.508  21.388  0.00  0.00    +0.000 A 
ATOM     17  C   UNL     1       1.255   3.100  21.361  0.00  0.00    +0.000 A 
ATOM     18  C   UNL     1       0.992   4.119  20.451  0.00  0.00    +0.000 A 
ATOM     19  C   UNL     1       1.991   4.550  19.575  0.00  0.00    +0.000 A 
ENDBRANCH   3  14
TORSDOF 1
ENDMDL
MODEL 8
REMARK VINA RESULT:      -7.5      2.653      5.879
REMARK  Name = 
REMARK  2 active torsions:
REMARK  status: ('A' for Active; 'I' for Inactive)
REMARK    1  A    between atoms: C_1  and  C_2
REMARK    2  A    between atoms: C_3  and  C_4
REMARK                            x       y       z     vdW  Elec       q    Type
REMARK                         _______ _______ _______ _____ _____    ______ ____
ROOT
ATOM      1  C   UNL     1       3.090   6.320  18.237  0.00  0.00    +0.000 C 
ATOM      2  C   UNL     1       3.622   4.991  18.654  0.00  0.00    +0.000 A 
ATOM      3  C   UNL     1       4.609   4.203  18.050  0.00  0.00    +0.000 A 
ATOM      4  N   UNL     1       4.759   3.074  18.840  0.00  0.00    +0.000 N 
ATOM      5  C   UNL     1       3.900   3.121  19.898  0.00  0.00    +0.000 A 
ATOM      6  C   UNL     1       3.698   2.187  20.960  0.00  0.00    +0.000 A 
ATOM      7  N   UNL     1       2.807   2.411  21.884  0.00  0.00    +0.000 NA
ATOM      8  N   UNL     1       2.065   3.588  21.797  0.00  0.00    +0.000 N 
ATOM      9  C   UNL     1       2.174   4.573  20.822  0.00  0.00    +0.000 A 
ATOM     10  O   UNL     1       1.475   5.582  20.824  0.00  0.00    +0.000 OA
ATOM     11  C   UNL     1       3.178   4.287  19.811  0.00  0.00    +0.000 A 
ATOM     12  H   UNL     1       5.398   2.318  18.638  0.00  0.00    +0.000 HD
ATOM     13  H   UNL     1       1.375   3.736  22.525  0.00  0.00    +0.000 HD
ENDROOT
BRANCH   3  14
ATOM     14  C   UNL     1       5.401   4.383  16.823  0.00  0.00    +0.000 A 
ATOM     15  C   UNL     1       4.840   4.154  15.556  0.00  0.00    +0.000 A 
ATOM     16  C   UNL     1       5.594   4.337  14.392  0.00  0.00    +0.000 A 
ATOM     17  C   UNL     1       6.925   4.736  14.477  0.00  0.00    +0.000 A 
ATOM     18  C   UNL     1       7.497   4.968  15.724  0.00  0.00    +0.000 A 
ATOM     19  C   UNL     1       6.734   4.809  16.884  0.00  0.00    +0.000 A 
ENDBRANCH   3  14
TORSDOF 1
ENDMDL
MODEL 9
REMARK VINA RESULT:      -7.5      2.652      5.781
REMARK  Name = 
REMARK  2 active torsions:
REMARK  status: ('A' for Active; 'I' for Inactive)
REMARK    1  A    between atoms: C_1  and  C_2
REMARK    2  A    between atoms: C_3  and  C_4
REMARK                            x       y       z     vdW  Elec       q    Type
REMARK                         _______ _______ _______ _____ _____    ______ ____
ROOT
ATOM      1  C   UNL     1       3.122   6.364  18.256  0.00  0.00    +0.000 C 
ATOM      2  C   UNL     1       3.638   5.025  18.663  0.00  0.00    +0.000 A 
ATOM      3  C   UNL     1       4.614   4.229  18.052  0.00  0.00    +0.000 A 
ATOM      4  N   UNL     1       4.750   3.092  18.833  0.00  0.00    +0.000 N 
ATOM      5  C   UNL     1       3.894   3.143  19.893  0.00  0.00    +0.000 A 
ATOM      6  C   UNL     1       3.681   2.204  20.948  0.00  0.00    +0.000 A 
ATOM      7  N   UNL     1       2.794   2.432  21.875  0.00  0.00    +0.000 NA
ATOM      8  N   UNL     1       2.067   3.619  21.798  0.00  0.00    +0.000 N 
ATOM      9  C   UNL     1       2.188   4.610  20.830  0.00  0.00    +0.000 A 
ATOM     10  O   UNL     1       1.502   5.627  20.840  0.00  0.00    +0.000 OA
ATOM     11  C   UNL     1       3.187   4.318  19.816  0.00  0.00    +0.000 A 
ATOM     12  H   UNL     1       5.380   2.330  18.625  0.00  0.00    +0.000 HD
ATOM     13  H   UNL     1       1.380   3.771  22.528  0.00  0.00    +0.000 HD
ENDROOT
BRANCH   3  14
ATOM     14  C   UNL     1       5.406   4.408  16.824  0.00  0.00    +0.000 A 
ATOM     15  C   UNL     1       6.753   4.800  16.880  0.00  0.00    +0.000 A 
ATOM     16  C   UNL     1       7.505   4.958  15.711  0.00  0.00    +0.000 A 
ATOM     17  C   UNL     1       6.916   4.744  14.468  0.00  0.00    +0.000 A 
ATOM     18  C   UNL     1       5.582   4.356  14.394  0.00  0.00    +0.000 A 
ATOM     19  C   UNL     1       4.841   4.174  15.564  0.00  0.00    +0.000 A 
ENDBRANCH   3  14
TORSDOF 1
ENDMDL
