MODEL 1
REMARK VINA RESULT:      -7.3      0.000      0.000
REMARK  Name = 
REMARK  4 active torsions:
REMARK  status: ('A' for Active; 'I' for Inactive)
REMARK    1  A    between atoms: C_1  and  O_2
REMARK    2  A    between atoms: O_2  and  C_3
REMARK    3  A    between atoms: C_6  and  C_7
REMARK    4  A    between atoms: N_14  and  C_15
REMARK                            x       y       z     vdW  Elec       q    Type
REMARK                         _______ _______ _______ _____ _____    ______ ____
ROOT
ATOM      1  C   UNL     1       3.481   5.947  18.150  0.00  0.00    +0.000 A 
ATOM      2  C   UNL     1       2.961   7.258  18.089  0.00  0.00    +0.000 A 
ATOM      3  C   UNL     1       2.151   7.777  19.117  0.00  0.00    +0.000 A 
ATOM      4  C   UNL     1       1.867   6.955  20.230  0.00  0.00    +0.000 A 
ATOM      5  C   UNL     1       1.072   7.462  21.268  0.00  0.00    +0.000 A 
ATOM      6  C   UNL     1       0.576   8.757  21.193  0.00  0.00    +0.000 A 
ATOM      7  C   UNL     1       0.862   9.541  20.079  0.00  0.00    +0.000 A 
ATOM      8  N   UNL     1       1.633   9.058  19.056  0.00  0.00    +0.000 N 
ATOM      9  C   UNL     1       1.879   9.937  17.900  0.00  0.00    +0.000 C 
ATOM     10  C   UNL     1       2.383   5.651  20.272  0.00  0.00    +0.000 A 
ATOM     11  O   UNL     1       2.145   4.921  21.220  0.00  0.00    +0.000 OA
ATOM     12  N   UNL     1       3.169   5.185  19.246  0.00  0.00    +0.000 N 
ATOM     13  H   UNL     1       3.513   4.211  19.351  0.00  0.00    +0.000 HD
ENDROOT
BRANCH   1  17
ATOM     14  C   UNL     1       5.991   4.384  14.939  0.00  0.00    +0.000 A 
ATOM     15  C   UNL     1       5.773   5.755  15.058  0.00  0.00    +0.000 A 
ATOM     16  C   UNL     1       4.977   6.262  16.084  0.00  0.00    +0.000 A 
ATOM     17  C   UNL     1       4.358   5.407  17.033  0.00  0.00    +0.000 A 
ATOM     18  C   UNL     1       4.594   4.019  16.893  0.00  0.00    +0.000 A 
ATOM     19  C   UNL     1       5.396   3.518  15.870  0.00  0.00    +0.000 A 
BRANCH  14  21
ATOM     20  C   UNL     1       6.319   3.586  12.669  0.00  0.00    +0.000 C 
ATOM     21  O   UNL     1       6.772   3.939  13.923  0.00  0.00    +0.000 OA
ENDBRANCH  14  21
ENDBRANCH   1  17
TORSDOF 2
ENDMDL
MODEL 2
REMARK VINA RESULT:      -7.2      0.053      1.080
REMARK  Name = 
REMARK  4 active torsions:
REMARK  status: ('A' for Active; 'I' for Inactive)
REMARK    1  A    between atoms: C_1  and  O_2
REMARK    2  A    between atoms: O_2  and  C_3
REMARK    3  A    between atoms: C_6  and  C_7
REMARK    4  A    between atoms: N_14  and  C_15
REMARK                            x       y       z     vdW  Elec       q    Type
REMARK                         _______ _______ _______ _____ _____    ______ ____
ROOT
ATOM      1  C   UNL     1       3.457   5.953  18.185  0.00  0.00    +0.000 A 
ATOM      2  C   UNL     1       2.931   7.261  18.117  0.00  0.00    +0.000 A 
ATOM      3  C   UNL     1       2.125   7.785  19.146  0.00  0.00    +0.000 A 
ATOM      4  C   UNL     1       1.854   6.971  20.269  0.00  0.00    +0.000 A 
ATOM      5  C   UNL     1       1.064   7.484  21.309  0.00  0.00    +0.000 A 
ATOM      6  C   UNL     1       0.561   8.775  21.226  0.00  0.00    +0.000 A 
ATOM      7  C   UNL     1       0.835   9.551  20.102  0.00  0.00    +0.000 A 
ATOM      8  N   UNL     1       1.601   9.063  19.078  0.00  0.00    +0.000 N 
ATOM      9  C   UNL     1       1.834   9.933  17.913  0.00  0.00    +0.000 C 
ATOM     10  C   UNL     1       2.377   5.670  20.318  0.00  0.00    +0.000 A 
ATOM     11  O   UNL     1       2.149   4.947  21.274  0.00  0.00    +0.000 OA
ATOM     12  N   UNL     1       3.156   5.199  19.290  0.00  0.00    +0.000 N 
ATOM     13  H   UNL     1       3.506   4.227  19.401  0.00  0.00    +0.000 HD
ENDROOT
BRANCH   1  17
ATOM     14  C   UNL     1       5.969   4.395  14.973  0.00  0.00    +0.000 A 
ATOM     15  C   UNL     1       5.359   3.525  15.875  0.00  0.00    +0.000 A 
ATOM     16  C   UNL     1       4.551   4.015  16.900  0.00  0.00    +0.000 A 
ATOM     17  C   UNL     1       4.328   5.407  17.066  0.00  0.00    +0.000 A 
ATOM     18  C   UNL     1       4.956   6.271  16.139  0.00  0.00    +0.000 A 
ATOM     19  C   UNL     1       5.756   5.776  15.111  0.00  0.00    +0.000 A 
BRANCH  14  21
ATOM     20  C   UNL     1       6.348   3.660  12.690  0.00  0.00    +0.000 C 
ATOM     21  O   UNL     1       6.746   3.871  13.994  0.00  0.00    +0.000 OA
ENDBRANCH  14  21
ENDBRANCH   1  17
TORSDOF 2
ENDMDL
MODEL 3
REMARK VINA RESULT:      -7.2      2.561      7.465
REMARK  Name = 
REMARK  4 active torsions:
REMARK  status: ('A' for Active; 'I' for Inactive)
REMARK    1  A    between atoms: C_1  and  O_2
REMARK    2  A    between atoms: O_2  and  C_3
REMARK    3  A    between atoms: C_6  and  C_7
REMARK    4  A    between atoms: N_14  and  C_15
REMARK                            x       y       z     vdW  Elec       q    Type
REMARK                         _______ _______ _______ _____ _____    ______ ____
ROOT
ATOM      1  C   UNL     1       2.252   6.929  19.476  0.00  0.00    +0.000 A 
ATOM      2  C   UNL     1       1.951   5.620  19.911  0.00  0.00    +0.000 A 
ATOM      3  C   UNL     1       2.493   4.489  19.271  0.00  0.00    +0.000 A 
ATOM      4  C   UNL     1       3.360   4.687  18.175  0.00  0.00    +0.000 A 
ATOM      5  C   UNL     1       3.919   3.570  17.535  0.00  0.00    +0.000 A 
ATOM      6  C   UNL     1       3.615   2.291  17.982  0.00  0.00    +0.000 A 
ATOM      7  C   UNL     1       2.748   2.125  19.059  0.00  0.00    +0.000 A 
ATOM      8  N   UNL     1       2.193   3.205  19.690  0.00  0.00    +0.000 N 
ATOM      9  C   UNL     1       1.270   2.954  20.809  0.00  0.00    +0.000 C 
ATOM     10  C   UNL     1       3.643   5.993  17.748  0.00  0.00    +0.000 A 
ATOM     11  O   UNL     1       4.384   6.188  16.797  0.00  0.00    +0.000 OA
ATOM     12  N   UNL     1       3.091   7.068  18.400  0.00  0.00    +0.000 N 
ATOM     13  H   UNL     1       3.348   8.002  18.025  0.00  0.00    +0.000 HD
ENDROOT
BRANCH   1  17
ATOM     14  C   UNL     1       0.545  10.402  21.495  0.00  0.00    +0.000 A 
ATOM     15  C   UNL     1       0.932   9.281  22.227  0.00  0.00    +0.000 A 
ATOM     16  C   UNL     1       1.483   8.171  21.590  0.00  0.00    +0.000 A 
ATOM     17  C   UNL     1       1.661   8.137  20.182  0.00  0.00    +0.000 A 
ATOM     18  C   UNL     1       1.263   9.286  19.459  0.00  0.00    +0.000 A 
ATOM     19  C   UNL     1       0.720  10.397  20.102  0.00  0.00    +0.000 A 
BRANCH  14  21
ATOM     20  C   UNL     1      -1.159  11.429  22.887  0.00  0.00    +0.000 C 
ATOM     21  O   UNL     1       0.013  11.457  22.160  0.00  0.00    +0.000 OA
ENDBRANCH  14  21
ENDBRANCH   1  17
TORSDOF 2
ENDMDL
MODEL 4
REMARK VINA RESULT:      -7.2      2.557      7.405
REMARK  Name = 
REMARK  4 active torsions:
REMARK  status: ('A' for Active; 'I' for Inactive)
REMARK    1  A    between atoms: C_1  and  O_2
REMARK    2  A    between atoms: O_2  and  C_3
REMARK    3  A    between atoms: C_6  and  C_7
REMARK    4  A    between atoms: N_14  and  C_15
REMARK                            x       y       z     vdW  Elec       q    Type
REMARK                         _______ _______ _______ _____ _____    ______ ____
ROOT
ATOM      1  C   UNL     1       2.258   6.921  19.465  0.00  0.00    +0.000 A 
ATOM      2  C   UNL     1       1.957   5.612  19.900  0.00  0.00    +0.000 A 
ATOM      3  C   UNL     1       2.502   4.481  19.263  0.00  0.00    +0.000 A 
ATOM      4  C   UNL     1       3.373   4.680  18.169  0.00  0.00    +0.000 A 
ATOM      5  C   UNL     1       3.934   3.563  17.531  0.00  0.00    +0.000 A 
ATOM      6  C   UNL     1       3.631   2.284  17.978  0.00  0.00    +0.000 A 
ATOM      7  C   UNL     1       2.760   2.117  19.051  0.00  0.00    +0.000 A 
ATOM      8  N   UNL     1       2.201   3.197  19.680  0.00  0.00    +0.000 N 
ATOM      9  C   UNL     1       1.274   2.945  20.796  0.00  0.00    +0.000 C 
ATOM     10  C   UNL     1       3.656   5.986  17.742  0.00  0.00    +0.000 A 
ATOM     11  O   UNL     1       4.400   6.181  16.795  0.00  0.00    +0.000 OA
ATOM     12  N   UNL     1       3.101   7.061  18.393  0.00  0.00    +0.000 N 
ATOM     13  H   UNL     1       3.359   7.995  18.018  0.00  0.00    +0.000 HD
ENDROOT
BRANCH   1  17
ATOM     14  C   UNL     1       0.561  10.390  21.499  0.00  0.00    +0.000 A 
ATOM     15  C   UNL     1       0.720  10.394  20.114  0.00  0.00    +0.000 A 
ATOM     16  C   UNL     1       1.256   9.287  19.458  0.00  0.00    +0.000 A 
ATOM     17  C   UNL     1       1.664   8.129  20.169  0.00  0.00    +0.000 A 
ATOM     18  C   UNL     1       1.492   8.147  21.574  0.00  0.00    +0.000 A 
ATOM     19  C   UNL     1       0.949   9.253  22.225  0.00  0.00    +0.000 A 
BRANCH  14  21
ATOM     20  C   UNL     1      -1.100  11.506  22.875  0.00  0.00    +0.000 C 
ATOM     21  O   UNL     1       0.035  11.491  22.092  0.00  0.00    +0.000 OA
ENDBRANCH  14  21
ENDBRANCH   1  17
TORSDOF 2
ENDMDL
MODEL 5
REMARK VINA RESULT:      -7.1      2.225      7.055
REMARK  Name = 
REMARK  4 active torsions:
REMARK  status: ('A' for Active; 'I' for Inactive)
REMARK    1  A    between atoms: C_1  and  O_2
REMARK    2  A    between atoms: O_2  and  C_3
REMARK    3  A    between atoms: C_6  and  C_7
REMARK    4  A    between atoms: N_14  and  C_15
REMARK                            x       y       z     vdW  Elec       q    Type
REMARK                         _______ _______ _______ _____ _____    ______ ____
ROOT
ATOM      1  C   UNL     1       2.879   6.549  18.375  0.00  0.00    +0.000 A 
ATOM      2  C   UNL     1       4.216   6.777  17.985  0.00  0.00    +0.000 A 
ATOM      3  C   UNL     1       4.943   5.819  17.253  0.00  0.00    +0.000 A 
ATOM      4  C   UNL     1       4.300   4.609  16.905  0.00  0.00    +0.000 A 
ATOM      5  C   UNL     1       5.007   3.649  16.165  0.00  0.00    +0.000 A 
ATOM      6  C   UNL     1       6.319   3.895  15.784  0.00  0.00    +0.000 A 
ATOM      7  C   UNL     1       6.931   5.091  16.151  0.00  0.00    +0.000 A 
ATOM      8  N   UNL     1       6.255   6.035  16.876  0.00  0.00    +0.000 N 
ATOM      9  C   UNL     1       6.971   7.268  17.244  0.00  0.00    +0.000 C 
ATOM     10  C   UNL     1       2.974   4.393  17.308  0.00  0.00    +0.000 A 
ATOM     11  O   UNL     1       2.402   3.353  17.025  0.00  0.00    +0.000 OA
ATOM     12  N   UNL     1       2.303   5.356  18.023  0.00  0.00    +0.000 N 
ATOM     13  H   UNL     1       1.326   5.122  18.283  0.00  0.00    +0.000 HD
ENDROOT
BRANCH   1  17
ATOM     14  C   UNL     1       0.661   9.566  20.620  0.00  0.00    +0.000 A 
ATOM     15  C   UNL     1       1.067   8.385  21.239  0.00  0.00    +0.000 A 
ATOM     16  C   UNL     1       1.781   7.420  20.529  0.00  0.00    +0.000 A 
ATOM     17  C   UNL     1       2.109   7.598  19.160  0.00  0.00    +0.000 A 
ATOM     18  C   UNL     1       1.688   8.805  18.553  0.00  0.00    +0.000 A 
ATOM     19  C   UNL     1       0.982   9.770  19.268  0.00  0.00    +0.000 A 
BRANCH  14  21
ATOM     20  C   UNL     1      -0.432  10.300  22.660  0.00  0.00    +0.000 C 
ATOM     21  O   UNL     1      -0.032  10.473  21.351  0.00  0.00    +0.000 OA
ENDBRANCH  14  21
ENDBRANCH   1  17
TORSDOF 2
ENDMDL
MODEL 6
REMARK VINA RESULT:      -7.1      2.249      6.993
REMARK  Name = 
REMARK  4 active torsions:
REMARK  status: ('A' for Active; 'I' for Inactive)
REMARK    1  A    between atoms: C_1  and  O_2
REMARK    2  A    between atoms: O_2  and  C_3
REMARK    3  A    between atoms: C_6  and  C_7
REMARK    4  A    between atoms: N_14  and  C_15
REMARK                            x       y       z     vdW  Elec       q    Type
REMARK                         _______ _______ _______ _____ _____    ______ ____
ROOT
ATOM      1  C   UNL     1       2.875   6.629  18.391  0.00  0.00    +0.000 A 
ATOM      2  C   UNL     1       4.208   6.874  17.995  0.00  0.00    +0.000 A 
ATOM      3  C   UNL     1       4.951   5.918  17.276  0.00  0.00    +0.000 A 
ATOM      4  C   UNL     1       4.329   4.693  16.947  0.00  0.00    +0.000 A 
ATOM      5  C   UNL     1       5.051   3.734  16.219  0.00  0.00    +0.000 A 
ATOM      6  C   UNL     1       6.359   3.997  15.834  0.00  0.00    +0.000 A 
ATOM      7  C   UNL     1       6.950   5.209  16.182  0.00  0.00    +0.000 A 
ATOM      8  N   UNL     1       6.259   6.151  16.896  0.00  0.00    +0.000 N 
ATOM      9  C   UNL     1       6.954   7.401  17.245  0.00  0.00    +0.000 C 
ATOM     10  C   UNL     1       3.007   4.460  17.355  0.00  0.00    +0.000 A 
ATOM     11  O   UNL     1       2.453   3.406  17.087  0.00  0.00    +0.000 OA
ATOM     12  N   UNL     1       2.320   5.421  18.056  0.00  0.00    +0.000 N 
ATOM     13  H   UNL     1       1.347   5.174  18.321  0.00  0.00    +0.000 HD
ENDROOT
BRANCH   1  17
ATOM     14  C   UNL     1       0.625   9.634  20.618  0.00  0.00    +0.000 A 
ATOM     15  C   UNL     1       0.930   9.836  19.272  0.00  0.00    +0.000 A 
ATOM     16  C   UNL     1       1.643   8.878  18.553  0.00  0.00    +0.000 A 
ATOM     17  C   UNL     1       2.089   7.676  19.162  0.00  0.00    +0.000 A 
ATOM     18  C   UNL     1       1.768   7.492  20.527  0.00  0.00    +0.000 A 
ATOM     19  C   UNL     1       1.049   8.449  21.240  0.00  0.00    +0.000 A 
BRANCH  14  21
ATOM     20  C   UNL     1      -0.462  10.531  22.595  0.00  0.00    +0.000 C 
ATOM     21  O   UNL     1      -0.070  10.596  21.274  0.00  0.00    +0.000 OA
ENDBRANCH  14  21
ENDBRANCH   1  17
TORSDOF 2
ENDMDL
MODEL 7
REMARK VINA RESULT:      -7.0      2.510      7.078
REMARK  Name = 
REMARK  4 active torsions:
REMARK  status: ('A' for Active; 'I' for Inactive)
REMARK    1  A    between atoms: C_1  and  O_2
REMARK    2  A    between atoms: O_2  and  C_3
REMARK    3  A    between atoms: C_6  and  C_7
REMARK    4  A    between atoms: N_14  and  C_15
REMARK                            x       y       z     vdW  Elec       q    Type
REMARK                         _______ _______ _______ _____ _____    ______ ____
ROOT
ATOM      1  C   UNL     1       2.503   6.799  18.660  0.00  0.00    +0.000 A 
ATOM      2  C   UNL     1       2.021   5.590  19.208  0.00  0.00    +0.000 A 
ATOM      3  C   UNL     1       2.549   4.344  18.820  0.00  0.00    +0.000 A 
ATOM      4  C   UNL     1       3.589   4.322  17.865  0.00  0.00    +0.000 A 
ATOM      5  C   UNL     1       4.135   3.089  17.478  0.00  0.00    +0.000 A 
ATOM      6  C   UNL     1       3.652   1.912  18.033  0.00  0.00    +0.000 A 
ATOM      7  C   UNL     1       2.618   1.963  18.964  0.00  0.00    +0.000 A 
ATOM      8  N   UNL     1       2.073   3.158  19.348  0.00  0.00    +0.000 N 
ATOM      9  C   UNL     1       0.970   3.134  20.323  0.00  0.00    +0.000 C 
ATOM     10  C   UNL     1       4.052   5.531  17.323  0.00  0.00    +0.000 A 
ATOM     11  O   UNL     1       4.944   5.535  16.490  0.00  0.00    +0.000 OA
ATOM     12  N   UNL     1       3.506   6.724  17.728  0.00  0.00    +0.000 N 
ATOM     13  H   UNL     1       3.902   7.574  17.282  0.00  0.00    +0.000 HD
ENDROOT
BRANCH   1  17
ATOM     14  C   UNL     1       0.830  10.637  19.896  0.00  0.00    +0.000 A 
ATOM     15  C   UNL     1       0.905   9.577  20.799  0.00  0.00    +0.000 A 
ATOM     16  C   UNL     1       1.443   8.350  20.413  0.00  0.00    +0.000 A 
ATOM     17  C   UNL     1       1.923   8.134  19.095  0.00  0.00    +0.000 A 
ATOM     18  C   UNL     1       1.838   9.223  18.196  0.00  0.00    +0.000 A 
ATOM     19  C   UNL     1       1.307  10.450  18.589  0.00  0.00    +0.000 A 
BRANCH  14  21
ATOM     20  C   UNL     1      -0.209  12.044  21.581  0.00  0.00    +0.000 C 
ATOM     21  O   UNL     1       0.297  11.810  20.319  0.00  0.00    +0.000 OA
ENDBRANCH  14  21
ENDBRANCH   1  17
TORSDOF 2
ENDMDL
MODEL 8
REMARK VINA RESULT:      -7.0      2.556      6.824
REMARK  Name = 
REMARK  4 active torsions:
REMARK  status: ('A' for Active; 'I' for Inactive)
REMARK    1  A    between atoms: C_1  and  O_2
REMARK    2  A    between atoms: O_2  and  C_3
REMARK    3  A    between atoms: C_6  and  C_7
REMARK    4  A    between atoms: N_14  and  C_15
REMARK                            x       y       z     vdW  Elec       q    Type
REMARK                         _______ _______ _______ _____ _____    ______ ____
ROOT
ATOM      1  C   UNL     1       2.583   6.727  18.492  0.00  0.00    +0.000 A 
ATOM      2  C   UNL     1       2.049   5.559  19.077  0.00  0.00    +0.000 A 
ATOM      3  C   UNL     1       2.548   4.281  18.759  0.00  0.00    +0.000 A 
ATOM      4  C   UNL     1       3.614   4.186  17.837  0.00  0.00    +0.000 A 
ATOM      5  C   UNL     1       4.132   2.922  17.519  0.00  0.00    +0.000 A 
ATOM      6  C   UNL     1       3.596   1.785  18.111  0.00  0.00    +0.000 A 
ATOM      7  C   UNL     1       2.539   1.907  19.008  0.00  0.00    +0.000 A 
ATOM      8  N   UNL     1       2.021   3.135  19.324  0.00  0.00    +0.000 N 
ATOM      9  C   UNL     1       0.891   3.187  20.266  0.00  0.00    +0.000 C 
ATOM     10  C   UNL     1       4.128   5.355  17.257  0.00  0.00    +0.000 A 
ATOM     11  O   UNL     1       5.044   5.296  16.451  0.00  0.00    +0.000 OA
ATOM     12  N   UNL     1       3.609   6.581  17.595  0.00  0.00    +0.000 N 
ATOM     13  H   UNL     1       4.044   7.398  17.123  0.00  0.00    +0.000 HD
ENDROOT
BRANCH   1  17
ATOM     14  C   UNL     1       1.009  10.661  19.539  0.00  0.00    +0.000 A 
ATOM     15  C   UNL     1       1.584  10.443  18.288  0.00  0.00    +0.000 A 
ATOM     16  C   UNL     1       2.084   9.187  17.945  0.00  0.00    +0.000 A 
ATOM     17  C   UNL     1       2.033   8.097  18.852  0.00  0.00    +0.000 A 
ATOM     18  C   UNL     1       1.444   8.341  20.115  0.00  0.00    +0.000 A 
ATOM     19  C   UNL     1       0.939   9.596  20.450  0.00  0.00    +0.000 A 
BRANCH  14  21
ATOM     20  C   UNL     1       0.395  12.927  18.915  0.00  0.00    +0.000 C 
ATOM     21  O   UNL     1       0.538  11.900  19.826  0.00  0.00    +0.000 OA
ENDBRANCH  14  21
ENDBRANCH   1  17
TORSDOF 2
ENDMDL
MODEL 9
REMARK VINA RESULT:      -7.0      2.891      4.773
REMARK  Name = 
REMARK  4 active torsions:
REMARK  status: ('A' for Active; 'I' for Inactive)
REMARK    1  A    between atoms: C_1  and  O_2
REMARK    2  A    between atoms: O_2  and  C_3
REMARK    3  A    between atoms: C_6  and  C_7
REMARK    4  A    between atoms: N_14  and  C_15
REMARK                            x       y       z     vdW  Elec       q    Type
REMARK                         _______ _______ _______ _____ _____    ______ ____
ROOT
ATOM      1  C   UNL     1       0.996   8.953  20.532  0.00  0.00    +0.000 A 
ATOM      2  C   UNL     1       0.135   9.910  19.953  0.00  0.00    +0.000 A 
ATOM      3  C   UNL     1      -0.652  10.768  20.746  0.00  0.00    +0.000 A 
ATOM      4  C   UNL     1      -0.558  10.658  22.151  0.00  0.00    +0.000 A 
ATOM      5  C   UNL     1      -1.325  11.514  22.956  0.00  0.00    +0.000 A 
ATOM      6  C   UNL     1      -2.162  12.453  22.368  0.00  0.00    +0.000 A 
ATOM      7  C   UNL     1      -2.242  12.531  20.980  0.00  0.00    +0.000 A 
ATOM      8  N   UNL     1      -1.503  11.700  20.182  0.00  0.00    +0.000 N 
ATOM      9  C   UNL     1      -1.653  11.826  18.723  0.00  0.00    +0.000 C 
ATOM     10  C   UNL     1       0.296   9.696  22.712  0.00  0.00    +0.000 A 
ATOM     11  O   UNL     1       0.386   9.578  23.923  0.00  0.00    +0.000 OA
ATOM     12  N   UNL     1       1.043   8.878  21.900  0.00  0.00    +0.000 N 
ATOM     13  H   UNL     1       1.651   8.193  22.390  0.00  0.00    +0.000 HD
ENDROOT
BRANCH   1  17
ATOM     14  C   UNL     1       3.429   6.340  18.019  0.00  0.00    +0.000 A 
ATOM     15  C   UNL     1       3.005   5.913  19.276  0.00  0.00    +0.000 A 
ATOM     16  C   UNL     1       2.223   6.740  20.082  0.00  0.00    +0.000 A 
ATOM     17  C   UNL     1       1.840   8.039  19.658  0.00  0.00    +0.000 A 
ATOM     18  C   UNL     1       2.281   8.452  18.379  0.00  0.00    +0.000 A 
ATOM     19  C   UNL     1       3.056   7.619  17.574  0.00  0.00    +0.000 A 
BRANCH  14  21
ATOM     20  C   UNL     1       3.970   4.146  17.133  0.00  0.00    +0.000 C 
ATOM     21  O   UNL     1       4.189   5.500  17.274  0.00  0.00    +0.000 OA
ENDBRANCH  14  21
ENDBRANCH   1  17
TORSDOF 2
ENDMDL
