MODEL 1
REMARK VINA RESULT:      -5.2      0.000      0.000
REMARK  Name = 
REMARK  23 active torsions:
REMARK  status: ('A' for Active; 'I' for Inactive)
REMARK    1  A    between atoms: C_1  and  C_2
REMARK    2  A    between atoms: C_2  and  O_3
REMARK    3  A    between atoms: O_3  and  C_4
REMARK    4  A    between atoms: C_4  and  C_6
REMARK    5  A    between atoms: C_6  and  N_7
REMARK    6  A    between atoms: C_8  and  C_9
REMARK    7  A    between atoms: C_9  and  C_10
REMARK    8  A    between atoms: C_9  and  C_12
REMARK    9  A    between atoms: C_9  and  S_14
REMARK   10  A    between atoms: C_10  and  C_11
REMARK   11  A    between atoms: C_12  and  C_13
REMARK   12  A    between atoms: S_14  and  S_15
REMARK   13  A    between atoms: S_15  and  C_16
REMARK   14  A    between atoms: C_16  and  C_17
REMARK   15  A    between atoms: C_16  and  C_25
REMARK   16  A    between atoms: C_16  and  C_27
REMARK   17  A    between atoms: N_18  and  C_19
REMARK   18  A    between atoms: C_19  and  C_20
REMARK   19  A    between atoms: C_20  and  O_22
REMARK   20  A    between atoms: O_22  and  C_23
REMARK   21  A    between atoms: C_23  and  C_24
REMARK   22  A    between atoms: C_25  and  C_26
REMARK   23  A    between atoms: C_27  and  C_28
REMARK                            x       y       z     vdW  Elec       q    Type
REMARK                         _______ _______ _______ _____ _____    ______ ____
ROOT
ATOM      1  S   UNL     1       3.982   6.147  18.230  0.00  0.00    +0.000 S 
ENDROOT
BRANCH   1   2
ATOM      2  S   UNL     1       2.061   5.417  18.209  0.00  0.00    +0.000 S 
BRANCH   2   3
ATOM      3  C   UNL     1       1.782   4.767  19.944  0.00  0.00    +0.000 C 
BRANCH   3   4
ATOM      4  C   UNL     1       3.198   4.466  20.495  0.00  0.00    +0.000 C 
ATOM      5  C   UNL     1       3.391   3.047  21.021  0.00  0.00    +0.000 C 
ENDBRANCH   3   4
BRANCH   3   6
ATOM      6  C   UNL     1       0.841   3.538  19.963  0.00  0.00    +0.000 C 
ATOM      7  C   UNL     1       0.720   2.767  18.653  0.00  0.00    +0.000 C 
ENDBRANCH   3   6
BRANCH   3   8
ATOM      8  C   UNL     1       1.205   5.942  20.747  0.00  0.00    +0.000 C 
ATOM      9  N   UNL     1       1.834   7.061  20.881  0.00  0.00    +0.000 NA
BRANCH   9  10
ATOM     10  C   UNL     1       1.089   8.096  21.621  0.00  0.00    +0.000 C 
BRANCH  10  11
ATOM     11  C   UNL     1       0.584   9.149  20.648  0.00  0.00    +0.000 C 
ATOM     12  O   UNL     1      -0.585   9.507  20.544  0.00  0.00    +0.000 OA
BRANCH  11  13
ATOM     13  O   UNL     1       1.616   9.625  19.897  0.00  0.00    +0.000 OA
BRANCH  13  14
ATOM     14  C   UNL     1       1.234  10.208  18.643  0.00  0.00    +0.000 C 
ATOM     15  C   UNL     1       1.800   9.333  17.537  0.00  0.00    +0.000 C 
ENDBRANCH  13  14
ENDBRANCH  11  13
ENDBRANCH  10  11
ENDBRANCH   9  10
ENDBRANCH   3   8
ENDBRANCH   2   3
ENDBRANCH   1   2
BRANCH   1  16
ATOM     16  C   UNL     1       4.971   5.069  17.043  0.00  0.00    +0.000 C 
BRANCH  16  18
ATOM     17  N   UNL     1       5.985   5.663  14.753  0.00  0.00    +0.000 NA
ATOM     18  C   UNL     1       5.316   5.938  15.820  0.00  0.00    +0.000 C 
BRANCH  17  19
ATOM     19  C   UNL     1       6.549   4.352  14.462  0.00  0.00    +0.000 C 
BRANCH  19  20
ATOM     20  C   UNL     1       6.418   4.003  12.983  0.00  0.00    +0.000 C 
ATOM     21  O   UNL     1       7.284   4.082  12.124  0.00  0.00    +0.000 OA
BRANCH  20  22
ATOM     22  O   UNL     1       5.110   3.662  12.753  0.00  0.00    +0.000 OA
BRANCH  22  24
ATOM     23  C   UNL     1       3.734   3.389  10.824  0.00  0.00    +0.000 C 
ATOM     24  C   UNL     1       4.886   2.808  11.625  0.00  0.00    +0.000 C 
ENDBRANCH  22  24
ENDBRANCH  20  22
ENDBRANCH  19  20
ENDBRANCH  17  19
ENDBRANCH  16  18
BRANCH  16  25
ATOM     25  C   UNL     1       4.117   3.835  16.644  0.00  0.00    +0.000 C 
ATOM     26  C   UNL     1       4.242   2.604  17.539  0.00  0.00    +0.000 C 
ENDBRANCH  16  25
BRANCH  16  27
ATOM     27  C   UNL     1       6.272   4.672  17.795  0.00  0.00    +0.000 C 
ATOM     28  C   UNL     1       6.538   5.390  19.120  0.00  0.00    +0.000 C 
ENDBRANCH  16  27
ENDBRANCH   1  16
TORSDOF 17
ENDMDL
MODEL 2
REMARK VINA RESULT:      -5.0      1.802      8.327
REMARK  Name = 
REMARK  23 active torsions:
REMARK  status: ('A' for Active; 'I' for Inactive)
REMARK    1  A    between atoms: C_1  and  C_2
REMARK    2  A    between atoms: C_2  and  O_3
REMARK    3  A    between atoms: O_3  and  C_4
REMARK    4  A    between atoms: C_4  and  C_6
REMARK    5  A    between atoms: C_6  and  N_7
REMARK    6  A    between atoms: C_8  and  C_9
REMARK    7  A    between atoms: C_9  and  C_10
REMARK    8  A    between atoms: C_9  and  C_12
REMARK    9  A    between atoms: C_9  and  S_14
REMARK   10  A    between atoms: C_10  and  C_11
REMARK   11  A    between atoms: C_12  and  C_13
REMARK   12  A    between atoms: S_14  and  S_15
REMARK   13  A    between atoms: S_15  and  C_16
REMARK   14  A    between atoms: C_16  and  C_17
REMARK   15  A    between atoms: C_16  and  C_25
REMARK   16  A    between atoms: C_16  and  C_27
REMARK   17  A    between atoms: N_18  and  C_19
REMARK   18  A    between atoms: C_19  and  C_20
REMARK   19  A    between atoms: C_20  and  O_22
REMARK   20  A    between atoms: O_22  and  C_23
REMARK   21  A    between atoms: C_23  and  C_24
REMARK   22  A    between atoms: C_25  and  C_26
REMARK   23  A    between atoms: C_27  and  C_28
REMARK                            x       y       z     vdW  Elec       q    Type
REMARK                         _______ _______ _______ _____ _____    ______ ____
ROOT
ATOM      1  S   UNL     1       4.509   3.271  18.439  0.00  0.00    +0.000 S 
ENDROOT
BRANCH   1   2
ATOM      2  S   UNL     1       4.434   4.066  16.545  0.00  0.00    +0.000 S 
BRANCH   2   3
ATOM      3  C   UNL     1       5.986   5.107  16.407  0.00  0.00    +0.000 C 
BRANCH   3   4
ATOM      4  C   UNL     1       7.072   4.319  17.183  0.00  0.00    +0.000 C 
ATOM      5  C   UNL     1       7.750   5.101  18.304  0.00  0.00    +0.000 C 
ENDBRANCH   3   4
BRANCH   3   6
ATOM      6  C   UNL     1       5.774   6.545  16.938  0.00  0.00    +0.000 C 
ATOM      7  C   UNL     1       4.444   7.201  16.582  0.00  0.00    +0.000 C 
ENDBRANCH   3   6
BRANCH   3   8
ATOM      8  C   UNL     1       6.371   5.096  14.921  0.00  0.00    +0.000 C 
ATOM      9  N   UNL     1       6.498   4.002  14.249  0.00  0.00    +0.000 NA
BRANCH   9  10
ATOM     10  C   UNL     1       6.796   4.193  12.817  0.00  0.00    +0.000 C 
BRANCH  10  11
ATOM     11  C   UNL     1       6.309   2.985  12.033  0.00  0.00    +0.000 C 
ATOM     12  O   UNL     1       7.033   2.192  11.440  0.00  0.00    +0.000 OA
BRANCH  11  13
ATOM     13  O   UNL     1       4.948   2.922  12.071  0.00  0.00    +0.000 OA
BRANCH  13  14
ATOM     14  C   UNL     1       4.273   3.890  11.256  0.00  0.00    +0.000 C 
ATOM     15  C   UNL     1       3.291   3.141  10.370  0.00  0.00    +0.000 C 
ENDBRANCH  13  14
ENDBRANCH  11  13
ENDBRANCH  10  11
ENDBRANCH   9  10
ENDBRANCH   3   8
ENDBRANCH   2   3
ENDBRANCH   1   2
BRANCH   1  16
ATOM     16  C   UNL     1       2.801   3.532  19.190  0.00  0.00    +0.000 C 
BRANCH  16  18
ATOM     17  N   UNL     1       2.001   5.887  18.524  0.00  0.00    +0.000 NA
ATOM     18  C   UNL     1       2.096   4.613  18.349  0.00  0.00    +0.000 C 
BRANCH  17  19
ATOM     19  C   UNL     1       2.634   6.607  19.619  0.00  0.00    +0.000 C 
BRANCH  19  20
ATOM     20  C   UNL     1       1.869   7.880  19.968  0.00  0.00    +0.000 C 
ATOM     21  O   UNL     1       1.618   8.818  19.227  0.00  0.00    +0.000 OA
BRANCH  20  22
ATOM     22  O   UNL     1       1.579   7.834  21.307  0.00  0.00    +0.000 OA
BRANCH  22  24
ATOM     23  C   UNL     1      -0.511   8.735  22.020  0.00  0.00    +0.000 C 
ATOM     24  C   UNL     1       0.972   9.014  21.845  0.00  0.00    +0.000 C 
ENDBRANCH  22  24
ENDBRANCH  20  22
ENDBRANCH  19  20
ENDBRANCH  17  19
ENDBRANCH  16  18
BRANCH  16  25
ATOM     25  C   UNL     1       2.957   3.973  20.671  0.00  0.00    +0.000 C 
ATOM     26  C   UNL     1       2.059   3.271  21.686  0.00  0.00    +0.000 C 
ENDBRANCH  16  25
BRANCH  16  27
ATOM     27  C   UNL     1       2.051   2.178  19.050  0.00  0.00    +0.000 C 
ATOM     28  C   UNL     1       0.564   2.258  18.696  0.00  0.00    +0.000 C 
ENDBRANCH  16  27
ENDBRANCH   1  16
TORSDOF 17
ENDMDL
MODEL 3
REMARK VINA RESULT:      -5.0      1.336      2.048
REMARK  Name = 
REMARK  23 active torsions:
REMARK  status: ('A' for Active; 'I' for Inactive)
REMARK    1  A    between atoms: C_1  and  C_2
REMARK    2  A    between atoms: C_2  and  O_3
REMARK    3  A    between atoms: O_3  and  C_4
REMARK    4  A    between atoms: C_4  and  C_6
REMARK    5  A    between atoms: C_6  and  N_7
REMARK    6  A    between atoms: C_8  and  C_9
REMARK    7  A    between atoms: C_9  and  C_10
REMARK    8  A    between atoms: C_9  and  C_12
REMARK    9  A    between atoms: C_9  and  S_14
REMARK   10  A    between atoms: C_10  and  C_11
REMARK   11  A    between atoms: C_12  and  C_13
REMARK   12  A    between atoms: S_14  and  S_15
REMARK   13  A    between atoms: S_15  and  C_16
REMARK   14  A    between atoms: C_16  and  C_17
REMARK   15  A    between atoms: C_16  and  C_25
REMARK   16  A    between atoms: C_16  and  C_27
REMARK   17  A    between atoms: N_18  and  C_19
REMARK   18  A    between atoms: C_19  and  C_20
REMARK   19  A    between atoms: C_20  and  O_22
REMARK   20  A    between atoms: O_22  and  C_23
REMARK   21  A    between atoms: C_23  and  C_24
REMARK   22  A    between atoms: C_25  and  C_26
REMARK   23  A    between atoms: C_27  and  C_28
REMARK                            x       y       z     vdW  Elec       q    Type
REMARK                         _______ _______ _______ _____ _____    ______ ____
ROOT
ATOM      1  S   UNL     1       5.264   4.304  18.797  0.00  0.00    +0.000 S 
ENDROOT
BRANCH   1   2
ATOM      2  S   UNL     1       3.902   5.695  19.455  0.00  0.00    +0.000 S 
BRANCH   2   3
ATOM      3  C   UNL     1       2.313   4.729  19.688  0.00  0.00    +0.000 C 
BRANCH   3   4
ATOM      4  C   UNL     1       2.660   3.622  20.716  0.00  0.00    +0.000 C 
ATOM      5  C   UNL     1       1.457   3.010  21.427  0.00  0.00    +0.000 C 
ENDBRANCH   3   4
BRANCH   3   6
ATOM      6  C   UNL     1       1.766   4.174  18.351  0.00  0.00    +0.000 C 
ATOM      7  C   UNL     1       2.193   2.756  17.989  0.00  0.00    +0.000 C 
ENDBRANCH   3   6
BRANCH   3   8
ATOM      8  C   UNL     1       1.324   5.696  20.354  0.00  0.00    +0.000 C 
ATOM      9  N   UNL     1       1.696   6.826  20.853  0.00  0.00    +0.000 NA
BRANCH   9  10
ATOM     10  C   UNL     1       0.595   7.653  21.382  0.00  0.00    +0.000 C 
BRANCH  10  11
ATOM     11  C   UNL     1       1.126   9.030  21.748  0.00  0.00    +0.000 C 
ATOM     12  O   UNL     1       1.909   9.261  22.664  0.00  0.00    +0.000 OA
BRANCH  11  13
ATOM     13  O   UNL     1       0.594   9.972  20.920  0.00  0.00    +0.000 OA
BRANCH  13  14
ATOM     14  C   UNL     1       0.806   9.738  19.521  0.00  0.00    +0.000 C 
ATOM     15  C   UNL     1      -0.438  10.204  18.782  0.00  0.00    +0.000 C 
ENDBRANCH  13  14
ENDBRANCH  11  13
ENDBRANCH  10  11
ENDBRANCH   9  10
ENDBRANCH   3   8
ENDBRANCH   2   3
ENDBRANCH   1   2
BRANCH   1  16
ATOM     16  C   UNL     1       5.745   4.821  17.049  0.00  0.00    +0.000 C 
BRANCH  16  18
ATOM     17  N   UNL     1       6.085   3.369  14.951  0.00  0.00    +0.000 NA
ATOM     18  C   UNL     1       5.821   3.537  16.201  0.00  0.00    +0.000 C 
BRANCH  17  19
ATOM     19  C   UNL     1       6.431   4.450  14.040  0.00  0.00    +0.000 C 
BRANCH  19  20
ATOM     20  C   UNL     1       6.582   3.948  12.607  0.00  0.00    +0.000 C 
ATOM     21  O   UNL     1       7.495   4.187  11.831  0.00  0.00    +0.000 OA
BRANCH  20  22
ATOM     22  O   UNL     1       5.451   3.238  12.297  0.00  0.00    +0.000 OA
BRANCH  22  24
ATOM     23  C   UNL     1       3.527   2.907  10.928  0.00  0.00    +0.000 C 
ATOM     24  C   UNL     1       4.487   3.935  11.500  0.00  0.00    +0.000 C 
ENDBRANCH  22  24
ENDBRANCH  20  22
ENDBRANCH  19  20
ENDBRANCH  17  19
ENDBRANCH  16  18
BRANCH  16  25
ATOM     25  C   UNL     1       7.111   5.557  17.093  0.00  0.00    +0.000 C 
ATOM     26  C   UNL     1       7.562   6.070  18.459  0.00  0.00    +0.000 C 
ENDBRANCH  16  25
BRANCH  16  27
ATOM     27  C   UNL     1       4.597   5.731  16.532  0.00  0.00    +0.000 C 
ATOM     28  C   UNL     1       5.009   7.096  15.978  0.00  0.00    +0.000 C 
ENDBRANCH  16  27
ENDBRANCH   1  16
TORSDOF 17
ENDMDL
MODEL 4
REMARK VINA RESULT:      -5.0      3.248      9.161
REMARK  Name = 
REMARK  23 active torsions:
REMARK  status: ('A' for Active; 'I' for Inactive)
REMARK    1  A    between atoms: C_1  and  C_2
REMARK    2  A    between atoms: C_2  and  O_3
REMARK    3  A    between atoms: O_3  and  C_4
REMARK    4  A    between atoms: C_4  and  C_6
REMARK    5  A    between atoms: C_6  and  N_7
REMARK    6  A    between atoms: C_8  and  C_9
REMARK    7  A    between atoms: C_9  and  C_10
REMARK    8  A    between atoms: C_9  and  C_12
REMARK    9  A    between atoms: C_9  and  S_14
REMARK   10  A    between atoms: C_10  and  C_11
REMARK   11  A    between atoms: C_12  and  C_13
REMARK   12  A    between atoms: S_14  and  S_15
REMARK   13  A    between atoms: S_15  and  C_16
REMARK   14  A    between atoms: C_16  and  C_17
REMARK   15  A    between atoms: C_16  and  C_25
REMARK   16  A    between atoms: C_16  and  C_27
REMARK   17  A    between atoms: N_18  and  C_19
REMARK   18  A    between atoms: C_19  and  C_20
REMARK   19  A    between atoms: C_20  and  O_22
REMARK   20  A    between atoms: O_22  and  C_23
REMARK   21  A    between atoms: C_23  and  C_24
REMARK   22  A    between atoms: C_25  and  C_26
REMARK   23  A    between atoms: C_27  and  C_28
REMARK                            x       y       z     vdW  Elec       q    Type
REMARK                         _______ _______ _______ _____ _____    ______ ____
ROOT
ATOM      1  S   UNL     1       1.445   8.450  20.127  0.00  0.00    +0.000 S 
ENDROOT
BRANCH   1   2
ATOM      2  S   UNL     1       2.494   7.543  18.610  0.00  0.00    +0.000 S 
BRANCH   2   3
ATOM      3  C   UNL     1       2.541   5.731  19.085  0.00  0.00    +0.000 C 
BRANCH   3   4
ATOM      4  C   UNL     1       1.578   5.028  18.094  0.00  0.00    +0.000 C 
ATOM      5  C   UNL     1       2.054   3.666  17.599  0.00  0.00    +0.000 C 
ENDBRANCH   3   4
BRANCH   3   6
ATOM      6  C   UNL     1       2.165   5.506  20.570  0.00  0.00    +0.000 C 
ATOM      7  C   UNL     1       2.036   4.054  21.015  0.00  0.00    +0.000 C 
ENDBRANCH   3   6
BRANCH   3   8
ATOM      8  C   UNL     1       3.966   5.250  18.776  0.00  0.00    +0.000 C 
ATOM      9  N   UNL     1       4.621   5.654  17.740  0.00  0.00    +0.000 NA
BRANCH   9  10
ATOM     10  C   UNL     1       6.002   5.144  17.652  0.00  0.00    +0.000 C 
BRANCH  10  11
ATOM     11  C   UNL     1       6.877   6.170  16.949  0.00  0.00    +0.000 C 
ATOM     12  O   UNL     1       7.530   5.959  15.933  0.00  0.00    +0.000 OA
BRANCH  11  13
ATOM     13  O   UNL     1       6.841   7.354  17.623  0.00  0.00    +0.000 OA
BRANCH  13  14
ATOM     14  C   UNL     1       8.103   7.794  18.142  0.00  0.00    +0.000 C 
ATOM     15  C   UNL     1       8.200   9.292  17.909  0.00  0.00    +0.000 C 
ENDBRANCH  13  14
ENDBRANCH  11  13
ENDBRANCH  10  11
ENDBRANCH   9  10
ENDBRANCH   3   8
ENDBRANCH   2   3
ENDBRANCH   1   2
BRANCH   1  16
ATOM     16  C   UNL     1       0.816  10.084  19.431  0.00  0.00    +0.000 C 
BRANCH  16  18
ATOM     17  N   UNL     1       0.465  11.790  21.327  0.00  0.00    +0.000 NA
ATOM     18  C   UNL     1       1.184  11.182  20.447  0.00  0.00    +0.000 C 
BRANCH  17  19
ATOM     19  C   UNL     1      -0.939  11.495  21.574  0.00  0.00    +0.000 C 
BRANCH  19  20
ATOM     20  C   UNL     1      -1.147  10.889  22.959  0.00  0.00    +0.000 C 
ATOM     21  O   UNL     1      -0.768   9.797  23.353  0.00  0.00    +0.000 OA
BRANCH  20  22
ATOM     22  O   UNL     1      -1.927  11.758  23.677  0.00  0.00    +0.000 OA
BRANCH  22  24
ATOM     23  C   UNL     1      -3.383  13.647  23.632  0.00  0.00    +0.000 C 
ATOM     24  C   UNL     1      -3.029  12.330  22.963  0.00  0.00    +0.000 C 
ENDBRANCH  22  24
ENDBRANCH  20  22
ENDBRANCH  19  20
ENDBRANCH  17  19
ENDBRANCH  16  18
BRANCH  16  25
ATOM     25  C   UNL     1      -0.720   9.992  19.223  0.00  0.00    +0.000 C 
ATOM     26  C   UNL     1      -1.233  10.280  17.814  0.00  0.00    +0.000 C 
ENDBRANCH  16  25
BRANCH  16  27
ATOM     27  C   UNL     1       1.583  10.316  18.099  0.00  0.00    +0.000 C 
ATOM     28  C   UNL     1       2.330  11.644  17.967  0.00  0.00    +0.000 C 
ENDBRANCH  16  27
ENDBRANCH   1  16
TORSDOF 17
ENDMDL
MODEL 5
REMARK VINA RESULT:      -5.0      3.457      5.432
REMARK  Name = 
REMARK  23 active torsions:
REMARK  status: ('A' for Active; 'I' for Inactive)
REMARK    1  A    between atoms: C_1  and  C_2
REMARK    2  A    between atoms: C_2  and  O_3
REMARK    3  A    between atoms: O_3  and  C_4
REMARK    4  A    between atoms: C_4  and  C_6
REMARK    5  A    between atoms: C_6  and  N_7
REMARK    6  A    between atoms: C_8  and  C_9
REMARK    7  A    between atoms: C_9  and  C_10
REMARK    8  A    between atoms: C_9  and  C_12
REMARK    9  A    between atoms: C_9  and  S_14
REMARK   10  A    between atoms: C_10  and  C_11
REMARK   11  A    between atoms: C_12  and  C_13
REMARK   12  A    between atoms: S_14  and  S_15
REMARK   13  A    between atoms: S_15  and  C_16
REMARK   14  A    between atoms: C_16  and  C_17
REMARK   15  A    between atoms: C_16  and  C_25
REMARK   16  A    between atoms: C_16  and  C_27
REMARK   17  A    between atoms: N_18  and  C_19
REMARK   18  A    between atoms: C_19  and  C_20
REMARK   19  A    between atoms: C_20  and  O_22
REMARK   20  A    between atoms: O_22  and  C_23
REMARK   21  A    between atoms: C_23  and  C_24
REMARK   22  A    between atoms: C_25  and  C_26
REMARK   23  A    between atoms: C_27  and  C_28
REMARK                            x       y       z     vdW  Elec       q    Type
REMARK                         _______ _______ _______ _____ _____    ______ ____
ROOT
ATOM      1  S   UNL     1       2.402   7.783  18.795  0.00  0.00    +0.000 S 
ENDROOT
BRANCH   1   2
ATOM      2  S   UNL     1       1.249   8.512  20.332  0.00  0.00    +0.000 S 
BRANCH   2   3
ATOM      3  C   UNL     1       0.749  10.230  19.776  0.00  0.00    +0.000 C 
BRANCH   3   4
ATOM      4  C   UNL     1       1.579  10.497  18.495  0.00  0.00    +0.000 C 
ATOM      5  C   UNL     1       2.180  11.896  18.403  0.00  0.00    +0.000 C 
ENDBRANCH   3   4
BRANCH   3   6
ATOM      6  C   UNL     1       0.970  11.289  20.882  0.00  0.00    +0.000 C 
ATOM      7  C   UNL     1      -0.289  11.935  21.451  0.00  0.00    +0.000 C 
ENDBRANCH   3   6
BRANCH   3   8
ATOM      8  C   UNL     1      -0.727  10.128  19.367  0.00  0.00    +0.000 C 
ATOM      9  N   UNL     1      -1.193  10.709  18.313  0.00  0.00    +0.000 NA
BRANCH   9  10
ATOM     10  C   UNL     1      -2.616  10.434  18.040  0.00  0.00    +0.000 C 
BRANCH  10  11
ATOM     11  C   UNL     1      -3.457  11.612  18.507  0.00  0.00    +0.000 C 
ATOM     12  O   UNL     1      -3.253  12.261  19.528  0.00  0.00    +0.000 OA
BRANCH  11  13
ATOM     13  O   UNL     1      -4.479  11.832  17.633  0.00  0.00    +0.000 OA
BRANCH  13  14
ATOM     14  C   UNL     1      -5.590  10.933  17.763  0.00  0.00    +0.000 C 
ATOM     15  C   UNL     1      -6.638  11.618  18.623  0.00  0.00    +0.000 C 
ENDBRANCH  13  14
ENDBRANCH  11  13
ENDBRANCH  10  11
ENDBRANCH   9  10
ENDBRANCH   3   8
ENDBRANCH   2   3
ENDBRANCH   1   2
BRANCH   1  16
ATOM     16  C   UNL     1       2.541   5.924  19.073  0.00  0.00    +0.000 C 
BRANCH  16  18
ATOM     17  N   UNL     1       5.059   5.809  18.550  0.00  0.00    +0.000 NA
ATOM     18  C   UNL     1       4.031   5.609  19.302  0.00  0.00    +0.000 C 
BRANCH  17  19
ATOM     19  C   UNL     1       5.001   6.465  17.252  0.00  0.00    +0.000 C 
BRANCH  19  20
ATOM     20  C   UNL     1       6.062   5.918  16.301  0.00  0.00    +0.000 C 
ATOM     21  O   UNL     1       7.271   6.082  16.368  0.00  0.00    +0.000 OA
BRANCH  20  22
ATOM     22  O   UNL     1       5.411   5.268  15.285  0.00  0.00    +0.000 OA
BRANCH  22  24
ATOM     23  C   UNL     1       6.192   3.877  13.512  0.00  0.00    +0.000 C 
ATOM     24  C   UNL     1       5.883   3.947  14.997  0.00  0.00    +0.000 C 
ENDBRANCH  22  24
ENDBRANCH  20  22
ENDBRANCH  19  20
ENDBRANCH  17  19
ENDBRANCH  16  18
BRANCH  16  25
ATOM     25  C   UNL     1       1.985   5.180  17.829  0.00  0.00    +0.000 C 
ATOM     26  C   UNL     1       2.396   3.718  17.672  0.00  0.00    +0.000 C 
ENDBRANCH  16  25
BRANCH  16  27
ATOM     27  C   UNL     1       1.730   5.614  20.362  0.00  0.00    +0.000 C 
ATOM     28  C   UNL     1       2.229   4.447  21.215  0.00  0.00    +0.000 C 
ENDBRANCH  16  27
ENDBRANCH   1  16
TORSDOF 17
ENDMDL
MODEL 6
REMARK VINA RESULT:      -5.0      3.290      5.247
REMARK  Name = 
REMARK  23 active torsions:
REMARK  status: ('A' for Active; 'I' for Inactive)
REMARK    1  A    between atoms: C_1  and  C_2
REMARK    2  A    between atoms: C_2  and  O_3
REMARK    3  A    between atoms: O_3  and  C_4
REMARK    4  A    between atoms: C_4  and  C_6
REMARK    5  A    between atoms: C_6  and  N_7
REMARK    6  A    between atoms: C_8  and  C_9
REMARK    7  A    between atoms: C_9  and  C_10
REMARK    8  A    between atoms: C_9  and  C_12
REMARK    9  A    between atoms: C_9  and  S_14
REMARK   10  A    between atoms: C_10  and  C_11
REMARK   11  A    between atoms: C_12  and  C_13
REMARK   12  A    between atoms: S_14  and  S_15
REMARK   13  A    between atoms: S_15  and  C_16
REMARK   14  A    between atoms: C_16  and  C_17
REMARK   15  A    between atoms: C_16  and  C_25
REMARK   16  A    between atoms: C_16  and  C_27
REMARK   17  A    between atoms: N_18  and  C_19
REMARK   18  A    between atoms: C_19  and  C_20
REMARK   19  A    between atoms: C_20  and  O_22
REMARK   20  A    between atoms: O_22  and  C_23
REMARK   21  A    between atoms: C_23  and  C_24
REMARK   22  A    between atoms: C_25  and  C_26
REMARK   23  A    between atoms: C_27  and  C_28
REMARK                            x       y       z     vdW  Elec       q    Type
REMARK                         _______ _______ _______ _____ _____    ______ ____
ROOT
ATOM      1  S   UNL     1       2.676   7.239  18.176  0.00  0.00    +0.000 S 
ENDROOT
BRANCH   1   2
ATOM      2  S   UNL     1       1.561   8.081  19.684  0.00  0.00    +0.000 S 
BRANCH   2   3
ATOM      3  C   UNL     1       1.051   9.756  19.017  0.00  0.00    +0.000 C 
BRANCH   3   4
ATOM      4  C   UNL     1       2.279  10.265  18.220  0.00  0.00    +0.000 C 
ATOM      5  C   UNL     1       2.341  11.778  18.038  0.00  0.00    +0.000 C 
ENDBRANCH   3   4
BRANCH   3   6
ATOM      6  C   UNL     1       0.607  10.722  20.142  0.00  0.00    +0.000 C 
ATOM      7  C   UNL     1       0.837  10.238  21.569  0.00  0.00    +0.000 C 
ENDBRANCH   3   6
BRANCH   3   8
ATOM      8  C   UNL     1      -0.080   9.486  18.015  0.00  0.00    +0.000 C 
ATOM      9  N   UNL     1      -1.057  10.311  17.839  0.00  0.00    +0.000 NA
BRANCH   9  10
ATOM     10  C   UNL     1      -2.007   9.918  16.781  0.00  0.00    +0.000 C 
BRANCH  10  11
ATOM     11  C   UNL     1      -3.341  10.607  17.017  0.00  0.00    +0.000 C 
ATOM     12  O   UNL     1      -4.070  11.050  16.135  0.00  0.00    +0.000 OA
BRANCH  11  13
ATOM     13  O   UNL     1      -3.602  10.676  18.353  0.00  0.00    +0.000 OA
BRANCH  13  14
ATOM     14  C   UNL     1      -3.803  12.001  18.863  0.00  0.00    +0.000 C 
ATOM     15  C   UNL     1      -5.250  12.107  19.313  0.00  0.00    +0.000 C 
ENDBRANCH  13  14
ENDBRANCH  11  13
ENDBRANCH  10  11
ENDBRANCH   9  10
ENDBRANCH   3   8
ENDBRANCH   2   3
ENDBRANCH   1   2
BRANCH   1  16
ATOM     16  C   UNL     1       2.979   5.449  18.679  0.00  0.00    +0.000 C 
BRANCH  16  18
ATOM     17  N   UNL     1       5.519   5.492  19.101  0.00  0.00    +0.000 NA
ATOM     18  C   UNL     1       4.291   5.421  19.487  0.00  0.00    +0.000 C 
BRANCH  17  19
ATOM     19  C   UNL     1       5.926   5.673  17.715  0.00  0.00    +0.000 C 
BRANCH  19  20
ATOM     20  C   UNL     1       7.242   4.958  17.422  0.00  0.00    +0.000 C 
ATOM     21  O   UNL     1       8.063   4.558  18.234  0.00  0.00    +0.000 OA
BRANCH  20  22
ATOM     22  O   UNL     1       7.397   4.919  16.061  0.00  0.00    +0.000 OA
BRANCH  22  24
ATOM     23  C   UNL     1       6.079   3.965  14.318  0.00  0.00    +0.000 C 
ATOM     24  C   UNL     1       6.200   5.117  15.300  0.00  0.00    +0.000 C 
ENDBRANCH  22  24
ENDBRANCH  20  22
ENDBRANCH  19  20
ENDBRANCH  17  19
ENDBRANCH  16  18
BRANCH  16  25
ATOM     25  C   UNL     1       3.076   4.570  17.403  0.00  0.00    +0.000 C 
ATOM     26  C   UNL     1       3.292   3.075  17.623  0.00  0.00    +0.000 C 
ENDBRANCH  16  25
BRANCH  16  27
ATOM     27  C   UNL     1       1.787   5.043  19.590  0.00  0.00    +0.000 C 
ATOM     28  C   UNL     1       2.145   4.414  20.938  0.00  0.00    +0.000 C 
ENDBRANCH  16  27
ENDBRANCH   1  16
TORSDOF 17
ENDMDL
MODEL 7
REMARK VINA RESULT:      -4.9      1.612      2.092
REMARK  Name = 
REMARK  23 active torsions:
REMARK  status: ('A' for Active; 'I' for Inactive)
REMARK    1  A    between atoms: C_1  and  C_2
REMARK    2  A    between atoms: C_2  and  O_3
REMARK    3  A    between atoms: O_3  and  C_4
REMARK    4  A    between atoms: C_4  and  C_6
REMARK    5  A    between atoms: C_6  and  N_7
REMARK    6  A    between atoms: C_8  and  C_9
REMARK    7  A    between atoms: C_9  and  C_10
REMARK    8  A    between atoms: C_9  and  C_12
REMARK    9  A    between atoms: C_9  and  S_14
REMARK   10  A    between atoms: C_10  and  C_11
REMARK   11  A    between atoms: C_12  and  C_13
REMARK   12  A    between atoms: S_14  and  S_15
REMARK   13  A    between atoms: S_15  and  C_16
REMARK   14  A    between atoms: C_16  and  C_17
REMARK   15  A    between atoms: C_16  and  C_25
REMARK   16  A    between atoms: C_16  and  C_27
REMARK   17  A    between atoms: N_18  and  C_19
REMARK   18  A    between atoms: C_19  and  C_20
REMARK   19  A    between atoms: C_20  and  O_22
REMARK   20  A    between atoms: O_22  and  C_23
REMARK   21  A    between atoms: C_23  and  C_24
REMARK   22  A    between atoms: C_25  and  C_26
REMARK   23  A    between atoms: C_27  and  C_28
REMARK                            x       y       z     vdW  Elec       q    Type
REMARK                         _______ _______ _______ _____ _____    ______ ____
ROOT
ATOM      1  S   UNL     1       4.499   3.916  17.207  0.00  0.00    +0.000 S 
ENDROOT
BRANCH   1   2
ATOM      2  S   UNL     1       4.365   3.918  19.258  0.00  0.00    +0.000 S 
BRANCH   2   3
ATOM      3  C   UNL     1       2.591   4.404  19.617  0.00  0.00    +0.000 C 
BRANCH   3   4
ATOM      4  C   UNL     1       2.248   3.716  20.963  0.00  0.00    +0.000 C 
ATOM      5  C   UNL     1       3.142   2.534  21.323  0.00  0.00    +0.000 C 
ENDBRANCH   3   4
BRANCH   3   6
ATOM      6  C   UNL     1       1.634   4.011  18.465  0.00  0.00    +0.000 C 
ATOM      7  C   UNL     1       1.042   2.608  18.536  0.00  0.00    +0.000 C 
ENDBRANCH   3   6
BRANCH   3   8
ATOM      8  C   UNL     1       2.609   5.920  19.854  0.00  0.00    +0.000 C 
ATOM      9  N   UNL     1       1.981   6.746  19.086  0.00  0.00    +0.000 NA
BRANCH   9  10
ATOM     10  C   UNL     1       2.050   8.155  19.516  0.00  0.00    +0.000 C 
BRANCH  10  11
ATOM     11  C   UNL     1       1.700   9.059  18.345  0.00  0.00    +0.000 C 
ATOM     12  O   UNL     1       2.276   9.061  17.262  0.00  0.00    +0.000 OA
BRANCH  11  13
ATOM     13  O   UNL     1       0.664   9.879  18.680  0.00  0.00    +0.000 OA
BRANCH  13  14
ATOM     14  C   UNL     1       1.016  11.258  18.858  0.00  0.00    +0.000 C 
ATOM     15  C   UNL     1       0.766  11.614  20.313  0.00  0.00    +0.000 C 
ENDBRANCH  13  14
ENDBRANCH  11  13
ENDBRANCH  10  11
ENDBRANCH   9  10
ENDBRANCH   3   8
ENDBRANCH   2   3
ENDBRANCH   1   2
BRANCH   1  16
ATOM     16  C   UNL     1       5.842   5.161  16.764  0.00  0.00    +0.000 C 
BRANCH  16  18
ATOM     17  N   UNL     1       5.716   5.138  14.192  0.00  0.00    +0.000 NA
ATOM     18  C   UNL     1       5.530   5.680  15.347  0.00  0.00    +0.000 C 
BRANCH  17  19
ATOM     19  C   UNL     1       6.263   3.803  13.999  0.00  0.00    +0.000 C 
BRANCH  19  20
ATOM     20  C   UNL     1       6.015   3.297  12.581  0.00  0.00    +0.000 C 
ATOM     21  O   UNL     1       6.834   2.811  11.815  0.00  0.00    +0.000 OA
BRANCH  20  22
ATOM     22  O   UNL     1       4.708   3.567  12.269  0.00  0.00    +0.000 OA
BRANCH  22  24
ATOM     23  C   UNL     1       3.064   3.100  10.606  0.00  0.00    +0.000 C 
ATOM     24  C   UNL     1       4.427   3.713  10.872  0.00  0.00    +0.000 C 
ENDBRANCH  22  24
ENDBRANCH  20  22
ENDBRANCH  19  20
ENDBRANCH  17  19
ENDBRANCH  16  18
BRANCH  16  25
ATOM     25  C   UNL     1       7.226   4.461  16.823  0.00  0.00    +0.000 C 
ATOM     26  C   UNL     1       8.000   4.596  18.131  0.00  0.00    +0.000 C 
ENDBRANCH  16  25
BRANCH  16  27
ATOM     27  C   UNL     1       5.719   6.321  17.791  0.00  0.00    +0.000 C 
ATOM     28  C   UNL     1       6.578   7.558  17.526  0.00  0.00    +0.000 C 
ENDBRANCH  16  27
ENDBRANCH   1  16
TORSDOF 17
ENDMDL
MODEL 8
REMARK VINA RESULT:      -4.9      3.194      8.804
REMARK  Name = 
REMARK  23 active torsions:
REMARK  status: ('A' for Active; 'I' for Inactive)
REMARK    1  A    between atoms: C_1  and  C_2
REMARK    2  A    between atoms: C_2  and  O_3
REMARK    3  A    between atoms: O_3  and  C_4
REMARK    4  A    between atoms: C_4  and  C_6
REMARK    5  A    between atoms: C_6  and  N_7
REMARK    6  A    between atoms: C_8  and  C_9
REMARK    7  A    between atoms: C_9  and  C_10
REMARK    8  A    between atoms: C_9  and  C_12
REMARK    9  A    between atoms: C_9  and  S_14
REMARK   10  A    between atoms: C_10  and  C_11
REMARK   11  A    between atoms: C_12  and  C_13
REMARK   12  A    between atoms: S_14  and  S_15
REMARK   13  A    between atoms: S_15  and  C_16
REMARK   14  A    between atoms: C_16  and  C_17
REMARK   15  A    between atoms: C_16  and  C_25
REMARK   16  A    between atoms: C_16  and  C_27
REMARK   17  A    between atoms: N_18  and  C_19
REMARK   18  A    between atoms: C_19  and  C_20
REMARK   19  A    between atoms: C_20  and  O_22
REMARK   20  A    between atoms: O_22  and  C_23
REMARK   21  A    between atoms: C_23  and  C_24
REMARK   22  A    between atoms: C_25  and  C_26
REMARK   23  A    between atoms: C_27  and  C_28
REMARK                            x       y       z     vdW  Elec       q    Type
REMARK                         _______ _______ _______ _____ _____    ______ ____
ROOT
ATOM      1  S   UNL     1       1.562   8.505  20.306  0.00  0.00    +0.000 S 
ENDROOT
BRANCH   1   2
ATOM      2  S   UNL     1       2.416   7.644  18.647  0.00  0.00    +0.000 S 
BRANCH   2   3
ATOM      3  C   UNL     1       2.569   5.828  19.082  0.00  0.00    +0.000 C 
BRANCH   3   4
ATOM      4  C   UNL     1       2.201   5.068  17.783  0.00  0.00    +0.000 C 
ATOM      5  C   UNL     1       1.685   3.648  17.997  0.00  0.00    +0.000 C 
ENDBRANCH   3   4
BRANCH   3   6
ATOM      6  C   UNL     1       1.684   5.440  20.291  0.00  0.00    +0.000 C 
ATOM      7  C   UNL     1       2.297   4.456  21.281  0.00  0.00    +0.000 C 
ENDBRANCH   3   6
BRANCH   3   8
ATOM      8  C   UNL     1       4.059   5.585  19.362  0.00  0.00    +0.000 C 
ATOM      9  N   UNL     1       4.919   5.406  18.416  0.00  0.00    +0.000 NA
BRANCH   9  10
ATOM     10  C   UNL     1       6.313   5.265  18.875  0.00  0.00    +0.000 C 
BRANCH  10  11
ATOM     11  C   UNL     1       7.206   4.940  17.688  0.00  0.00    +0.000 C 
ATOM     12  O   UNL     1       8.179   4.193  17.723  0.00  0.00    +0.000 OA
BRANCH  11  13
ATOM     13  O   UNL     1       6.777   5.612  16.583  0.00  0.00    +0.000 OA
BRANCH  13  14
ATOM     14  C   UNL     1       6.964   4.919  15.341  0.00  0.00    +0.000 C 
ATOM     15  C   UNL     1       5.782   3.982  15.154  0.00  0.00    +0.000 C 
ENDBRANCH  13  14
ENDBRANCH  11  13
ENDBRANCH  10  11
ENDBRANCH   9  10
ENDBRANCH   3   8
ENDBRANCH   2   3
ENDBRANCH   1   2
BRANCH   1  16
ATOM     16  C   UNL     1       0.600  10.003  19.689  0.00  0.00    +0.000 C 
BRANCH  16  18
ATOM     17  N   UNL     1      -0.985  10.163  17.666  0.00  0.00    +0.000 NA
ATOM     18  C   UNL     1      -0.036   9.611  18.342  0.00  0.00    +0.000 C 
BRANCH  17  19
ATOM     19  C   UNL     1      -1.659  11.390  18.065  0.00  0.00    +0.000 C 
BRANCH  19  20
ATOM     20  C   UNL     1      -3.165  11.182  18.200  0.00  0.00    +0.000 C 
ATOM     21  O   UNL     1      -3.823  10.246  17.774  0.00  0.00    +0.000 OA
BRANCH  20  22
ATOM     22  O   UNL     1      -3.681  12.292  18.817  0.00  0.00    +0.000 OA
BRANCH  22  24
ATOM     23  C   UNL     1      -3.474  13.726  20.711  0.00  0.00    +0.000 C 
ATOM     24  C   UNL     1      -3.614  12.287  20.248  0.00  0.00    +0.000 C 
ENDBRANCH  22  24
ENDBRANCH  20  22
ENDBRANCH  19  20
ENDBRANCH  17  19
ENDBRANCH  16  18
BRANCH  16  25
ATOM     25  C   UNL     1       1.572  11.204  19.532  0.00  0.00    +0.000 C 
ATOM     26  C   UNL     1       2.176  11.411  18.145  0.00  0.00    +0.000 C 
ENDBRANCH  16  25
BRANCH  16  27
ATOM     27  C   UNL     1      -0.511  10.273  20.741  0.00  0.00    +0.000 C 
ATOM     28  C   UNL     1      -0.275  11.447  21.693  0.00  0.00    +0.000 C 
ENDBRANCH  16  27
ENDBRANCH   1  16
TORSDOF 17
ENDMDL
MODEL 9
REMARK VINA RESULT:      -4.9      3.563      5.712
REMARK  Name = 
REMARK  23 active torsions:
REMARK  status: ('A' for Active; 'I' for Inactive)
REMARK    1  A    between atoms: C_1  and  C_2
REMARK    2  A    between atoms: C_2  and  O_3
REMARK    3  A    between atoms: O_3  and  C_4
REMARK    4  A    between atoms: C_4  and  C_6
REMARK    5  A    between atoms: C_6  and  N_7
REMARK    6  A    between atoms: C_8  and  C_9
REMARK    7  A    between atoms: C_9  and  C_10
REMARK    8  A    between atoms: C_9  and  C_12
REMARK    9  A    between atoms: C_9  and  S_14
REMARK   10  A    between atoms: C_10  and  C_11
REMARK   11  A    between atoms: C_12  and  C_13
REMARK   12  A    between atoms: S_14  and  S_15
REMARK   13  A    between atoms: S_15  and  C_16
REMARK   14  A    between atoms: C_16  and  C_17
REMARK   15  A    between atoms: C_16  and  C_25
REMARK   16  A    between atoms: C_16  and  C_27
REMARK   17  A    between atoms: N_18  and  C_19
REMARK   18  A    between atoms: C_19  and  C_20
REMARK   19  A    between atoms: C_20  and  O_22
REMARK   20  A    between atoms: O_22  and  C_23
REMARK   21  A    between atoms: C_23  and  C_24
REMARK   22  A    between atoms: C_25  and  C_26
REMARK   23  A    between atoms: C_27  and  C_28
REMARK                            x       y       z     vdW  Elec       q    Type
REMARK                         _______ _______ _______ _____ _____    ______ ____
ROOT
ATOM      1  S   UNL     1       2.434   7.535  18.557  0.00  0.00    +0.000 S 
ENDROOT
BRANCH   1   2
ATOM      2  S   UNL     1       1.615   8.460  20.200  0.00  0.00    +0.000 S 
BRANCH   2   3
ATOM      3  C   UNL     1       0.540   9.821  19.491  0.00  0.00    +0.000 C 
BRANCH   3   4
ATOM      4  C   UNL     1      -0.680   9.910  20.442  0.00  0.00    +0.000 C 
ATOM      5  C   UNL     1      -0.453  10.748  21.696  0.00  0.00    +0.000 C 
ENDBRANCH   3   4
BRANCH   3   6
ATOM      6  C   UNL     1       0.151   9.549  18.017  0.00  0.00    +0.000 C 
ATOM      7  C   UNL     1      -1.249   9.987  17.603  0.00  0.00    +0.000 C 
ENDBRANCH   3   6
BRANCH   3   8
ATOM      8  C   UNL     1       1.348  11.118  19.640  0.00  0.00    +0.000 C 
ATOM      9  N   UNL     1       1.771  11.788  18.621  0.00  0.00    +0.000 NA
BRANCH   9  10
ATOM     10  C   UNL     1       2.462  13.046  18.960  0.00  0.00    +0.000 C 
BRANCH  10  11
ATOM     11  C   UNL     1       1.464  14.193  18.937  0.00  0.00    +0.000 C 
ATOM     12  O   UNL     1       0.334  14.133  18.464  0.00  0.00    +0.000 OA
BRANCH  11  13
ATOM     13  O   UNL     1       2.015  15.303  19.506  0.00  0.00    +0.000 OA
BRANCH  13  14
ATOM     14  C   UNL     1       1.086  16.355  19.804  0.00  0.00    +0.000 C 
ATOM     15  C   UNL     1       1.344  17.488  18.826  0.00  0.00    +0.000 C 
ENDBRANCH  13  14
ENDBRANCH  11  13
ENDBRANCH  10  11
ENDBRANCH   9  10
ENDBRANCH   3   8
ENDBRANCH   2   3
ENDBRANCH   1   2
BRANCH   1  16
ATOM     16  C   UNL     1       2.604   5.713  19.006  0.00  0.00    +0.000 C 
BRANCH  16  18
ATOM     17  N   UNL     1       5.127   5.527  18.529  0.00  0.00    +0.000 NA
ATOM     18  C   UNL     1       4.095   5.454  19.297  0.00  0.00    +0.000 C 
BRANCH  17  19
ATOM     19  C   UNL     1       5.077   5.944  17.135  0.00  0.00    +0.000 C 
BRANCH  19  20
ATOM     20  C   UNL     1       6.441   6.419  16.644  0.00  0.00    +0.000 C 
ATOM     21  O   UNL     1       7.226   5.807  15.935  0.00  0.00    +0.000 OA
BRANCH  20  22
ATOM     22  O   UNL     1       6.684   7.640  17.217  0.00  0.00    +0.000 OA
BRANCH  22  24
ATOM     23  C   UNL     1       8.288   9.223  17.998  0.00  0.00    +0.000 C 
ATOM     24  C   UNL     1       7.923   7.751  17.926  0.00  0.00    +0.000 C 
ENDBRANCH  22  24
ENDBRANCH  20  22
ENDBRANCH  19  20
ENDBRANCH  17  19
ENDBRANCH  16  18
BRANCH  16  25
ATOM     25  C   UNL     1       2.096   4.846  17.823  0.00  0.00    +0.000 C 
ATOM     26  C   UNL     1       2.530   3.383  17.816  0.00  0.00    +0.000 C 
ENDBRANCH  16  25
BRANCH  16  27
ATOM     27  C   UNL     1       1.768   5.502  20.299  0.00  0.00    +0.000 C 
ATOM     28  C   UNL     1       2.194   4.343  21.203  0.00  0.00    +0.000 C 
ENDBRANCH  16  27
ENDBRANCH   1  16
TORSDOF 17
ENDMDL
