MODEL 1
REMARK VINA RESULT:      -8.3      0.000      0.000
REMARK  Name = 
REMARK  6 active torsions:
REMARK  status: ('A' for Active; 'I' for Inactive)
REMARK    1  A    between atoms: C_2  and  C_3
REMARK    2  A    between atoms: C_6  and  C_7
REMARK    3  A    between atoms: C_7  and  C_8
REMARK    4  A    between atoms: C_8  and  N_9
REMARK    5  A    between atoms: N_18  and  C_19
REMARK    6  A    between atoms: C_19  and  C_20
REMARK                            x       y       z     vdW  Elec       q    Type
REMARK                         _______ _______ _______ _____ _____    ______ ____
ROOT
ATOM      1  C   UNL     1       3.437   4.510  17.836  0.00  0.00    +0.000 C 
ATOM      2  C   UNL     1       3.854   5.692  18.312  0.00  0.00    +0.000 C 
ATOM      3  C   UNL     1       5.332   5.676  18.617  0.00  0.00    +0.000 C 
ATOM      4  C   UNL     1       6.222   6.589  17.755  0.00  0.00    +0.000 C 
ATOM      5  N   UNL     1       6.727   5.776  16.625  0.00  0.00    +0.000 NA
ATOM      6  C   UNL     1       6.898   4.443  17.226  0.00  0.00    +0.000 C 
ATOM      7  C   UNL     1       5.773   4.247  18.242  0.00  0.00    +0.000 C 
ATOM      8  C   UNL     1       4.543   3.523  17.691  0.00  0.00    +0.000 C 
ENDROOT
BRANCH   2   9
ATOM      9  C   UNL     1       2.976   6.842  18.570  0.00  0.00    +0.000 A 
ATOM     10  C   UNL     1       2.786   7.837  17.607  0.00  0.00    +0.000 A 
ATOM     11  C   UNL     1       1.993   8.958  17.880  0.00  0.00    +0.000 A 
ATOM     12  C   UNL     1       1.337   9.095  19.110  0.00  0.00    +0.000 A 
ATOM     13  C   UNL     1       1.498   8.091  20.064  0.00  0.00    +0.000 A 
ATOM     14  C   UNL     1       2.305   6.978  19.796  0.00  0.00    +0.000 A 
BRANCH  12  15
ATOM     15  C   UNL     1       0.470  10.305  19.392  0.00  0.00    +0.000 C 
BRANCH  15  16
ATOM     16  C   UNL     1       1.152  11.260  20.385  0.00  0.00    +0.000 C 
BRANCH  16  17
ATOM     17  N   UNL     1       0.423  11.488  21.639  0.00  0.00    +0.000 NA
ATOM     18  C   UNL     1      -0.913  12.025  21.361  0.00  0.00    +0.000 C 
ATOM     19  C   UNL     1      -1.629  11.836  22.680  0.00  0.00    +0.000 C 
ATOM     20  C   UNL     1      -1.100  10.505  23.185  0.00  0.00    +0.000 C 
ATOM     21  C   UNL     1       0.218  10.282  22.445  0.00  0.00    +0.000 C 
ENDBRANCH  16  17
ENDBRANCH  15  16
ENDBRANCH  12  15
ENDBRANCH   2   9
BRANCH   5  22
ATOM     22  C   UNL     1       5.772   5.831  15.502  0.00  0.00    +0.000 C 
BRANCH  22  23
ATOM     23  C   UNL     1       6.136   5.003  14.286  0.00  0.00    +0.000 A 
ATOM     24  C   UNL     1       5.245   4.029  13.800  0.00  0.00    +0.000 A 
ATOM     25  C   UNL     1       5.544   3.297  12.653  0.00  0.00    +0.000 A 
ATOM     26  C   UNL     1       6.728   3.545  11.961  0.00  0.00    +0.000 A 
ATOM     27  C   UNL     1       7.620   4.513  12.432  0.00  0.00    +0.000 A 
ATOM     28  C   UNL     1       7.327   5.235  13.589  0.00  0.00    +0.000 A 
ENDBRANCH  22  23
ENDBRANCH   5  22
TORSDOF 6
ENDMDL
MODEL 2
REMARK VINA RESULT:      -8.2      1.819      2.502
REMARK  Name = 
REMARK  6 active torsions:
REMARK  status: ('A' for Active; 'I' for Inactive)
REMARK    1  A    between atoms: C_2  and  C_3
REMARK    2  A    between atoms: C_6  and  C_7
REMARK    3  A    between atoms: C_7  and  C_8
REMARK    4  A    between atoms: C_8  and  N_9
REMARK    5  A    between atoms: N_18  and  C_19
REMARK    6  A    between atoms: C_19  and  C_20
REMARK                            x       y       z     vdW  Elec       q    Type
REMARK                         _______ _______ _______ _____ _____    ______ ____
ROOT
ATOM      1  C   UNL     1       2.920   4.646  17.704  0.00  0.00    +0.000 C 
ATOM      2  C   UNL     1       3.430   5.668  18.408  0.00  0.00    +0.000 C 
ATOM      3  C   UNL     1       4.830   5.368  18.883  0.00  0.00    +0.000 C 
ATOM      4  C   UNL     1       5.957   6.233  18.289  0.00  0.00    +0.000 C 
ATOM      5  N   UNL     1       6.497   5.511  17.115  0.00  0.00    +0.000 NA
ATOM      6  C   UNL     1       6.387   4.098  17.514  0.00  0.00    +0.000 C 
ATOM      7  C   UNL     1       5.111   3.952  18.343  0.00  0.00    +0.000 C 
ATOM      8  C   UNL     1       3.882   3.521  17.540  0.00  0.00    +0.000 C 
ENDROOT
BRANCH   2   9
ATOM      9  C   UNL     1       2.698   6.899  18.736  0.00  0.00    +0.000 A 
ATOM     10  C   UNL     1       2.221   7.134  20.028  0.00  0.00    +0.000 A 
ATOM     11  C   UNL     1       1.476   8.283  20.321  0.00  0.00    +0.000 A 
ATOM     12  C   UNL     1       1.222   9.248  19.337  0.00  0.00    +0.000 A 
ATOM     13  C   UNL     1       1.721   9.034  18.053  0.00  0.00    +0.000 A 
ATOM     14  C   UNL     1       2.452   7.876  17.758  0.00  0.00    +0.000 A 
BRANCH  12  15
ATOM     15  C   UNL     1       0.427  10.495  19.665  0.00  0.00    +0.000 C 
BRANCH  15  16
ATOM     16  C   UNL     1      -0.322  11.020  18.429  0.00  0.00    +0.000 C 
BRANCH  16  17
ATOM     17  N   UNL     1      -1.686  10.504  18.256  0.00  0.00    +0.000 NA
ATOM     18  C   UNL     1      -2.663  11.587  18.409  0.00  0.00    +0.000 C 
ATOM     19  C   UNL     1      -3.925  10.981  17.838  0.00  0.00    +0.000 C 
ATOM     20  C   UNL     1      -3.424  10.155  16.664  0.00  0.00    +0.000 C 
ATOM     21  C   UNL     1      -1.943   9.906  16.943  0.00  0.00    +0.000 C 
ENDBRANCH  16  17
ENDBRANCH  15  16
ENDBRANCH  12  15
ENDBRANCH   2   9
BRANCH   5  22
ATOM     22  C   UNL     1       5.732   5.875  15.908  0.00  0.00    +0.000 C 
BRANCH  22  23
ATOM     23  C   UNL     1       6.091   5.116  14.646  0.00  0.00    +0.000 A 
ATOM     24  C   UNL     1       5.171   4.220  14.073  0.00  0.00    +0.000 A 
ATOM     25  C   UNL     1       5.468   3.555  12.885  0.00  0.00    +0.000 A 
ATOM     26  C   UNL     1       6.679   3.795  12.240  0.00  0.00    +0.000 A 
ATOM     27  C   UNL     1       7.601   4.685  12.798  0.00  0.00    +0.000 A 
ATOM     28  C   UNL     1       7.310   5.339  13.995  0.00  0.00    +0.000 A 
ENDBRANCH  22  23
ENDBRANCH   5  22
TORSDOF 6
ENDMDL
MODEL 3
REMARK VINA RESULT:      -8.1      0.445      1.360
REMARK  Name = 
REMARK  6 active torsions:
REMARK  status: ('A' for Active; 'I' for Inactive)
REMARK    1  A    between atoms: C_2  and  C_3
REMARK    2  A    between atoms: C_6  and  C_7
REMARK    3  A    between atoms: C_7  and  C_8
REMARK    4  A    between atoms: C_8  and  N_9
REMARK    5  A    between atoms: N_18  and  C_19
REMARK    6  A    between atoms: C_19  and  C_20
REMARK                            x       y       z     vdW  Elec       q    Type
REMARK                         _______ _______ _______ _____ _____    ______ ____
ROOT
ATOM      1  C   UNL     1       2.949   4.658  17.738  0.00  0.00    +0.000 C 
ATOM      2  C   UNL     1       3.466   5.722  18.370  0.00  0.00    +0.000 C 
ATOM      3  C   UNL     1       4.893   5.474  18.792  0.00  0.00    +0.000 C 
ATOM      4  C   UNL     1       5.971   6.334  18.107  0.00  0.00    +0.000 C 
ATOM      5  N   UNL     1       6.474   5.569  16.943  0.00  0.00    +0.000 NA
ATOM      6  C   UNL     1       6.415   4.175  17.411  0.00  0.00    +0.000 C 
ATOM      7  C   UNL     1       5.182   4.041  18.305  0.00  0.00    +0.000 C 
ATOM      8  C   UNL     1       3.927   3.547  17.581  0.00  0.00    +0.000 C 
ENDROOT
BRANCH   2   9
ATOM      9  C   UNL     1       2.722   6.952  18.675  0.00  0.00    +0.000 A 
ATOM     10  C   UNL     1       2.204   7.186  19.952  0.00  0.00    +0.000 A 
ATOM     11  C   UNL     1       1.449   8.333  20.221  0.00  0.00    +0.000 A 
ATOM     12  C   UNL     1       1.224   9.298  19.230  0.00  0.00    +0.000 A 
ATOM     13  C   UNL     1       1.763   9.085  17.962  0.00  0.00    +0.000 A 
ATOM     14  C   UNL     1       2.505   7.929  17.690  0.00  0.00    +0.000 A 
BRANCH  12  15
ATOM     15  C   UNL     1       0.416  10.543  19.533  0.00  0.00    +0.000 C 
BRANCH  15  16
ATOM     16  C   UNL     1       1.115  11.418  20.586  0.00  0.00    +0.000 C 
BRANCH  16  17
ATOM     17  N   UNL     1       0.285  11.799  21.736  0.00  0.00    +0.000 NA
ATOM     18  C   UNL     1      -0.870  12.587  21.292  0.00  0.00    +0.000 C 
ATOM     19  C   UNL     1      -1.777  12.558  22.502  0.00  0.00    +0.000 C 
ATOM     20  C   UNL     1      -1.592  11.154  23.053  0.00  0.00    +0.000 C 
ATOM     21  C   UNL     1      -0.258  10.667  22.490  0.00  0.00    +0.000 C 
ENDBRANCH  16  17
ENDBRANCH  15  16
ENDBRANCH  12  15
ENDBRANCH   2   9
BRANCH   5  22
ATOM     22  C   UNL     1       5.646   5.860  15.757  0.00  0.00    +0.000 C 
BRANCH  22  23
ATOM     23  C   UNL     1       6.036   5.133  14.486  0.00  0.00    +0.000 A 
ATOM     24  C   UNL     1       7.266   5.408  13.863  0.00  0.00    +0.000 A 
ATOM     25  C   UNL     1       7.661   4.709  12.723  0.00  0.00    +0.000 A 
ATOM     26  C   UNL     1       6.841   3.710  12.204  0.00  0.00    +0.000 A 
ATOM     27  C   UNL     1       5.617   3.426  12.816  0.00  0.00    +0.000 A 
ATOM     28  C   UNL     1       5.216   4.135  13.948  0.00  0.00    +0.000 A 
ENDBRANCH  22  23
ENDBRANCH   5  22
TORSDOF 6
ENDMDL
MODEL 4
REMARK VINA RESULT:      -8.1      2.508      3.405
REMARK  Name = 
REMARK  6 active torsions:
REMARK  status: ('A' for Active; 'I' for Inactive)
REMARK    1  A    between atoms: C_2  and  C_3
REMARK    2  A    between atoms: C_6  and  C_7
REMARK    3  A    between atoms: C_7  and  C_8
REMARK    4  A    between atoms: C_8  and  N_9
REMARK    5  A    between atoms: N_18  and  C_19
REMARK    6  A    between atoms: C_19  and  C_20
REMARK                            x       y       z     vdW  Elec       q    Type
REMARK                         _______ _______ _______ _____ _____    ______ ____
ROOT
ATOM      1  C   UNL     1       1.704   4.226  17.847  0.00  0.00    +0.000 C 
ATOM      2  C   UNL     1       2.139   4.981  18.866  0.00  0.00    +0.000 C 
ATOM      3  C   UNL     1       2.802   4.144  19.932  0.00  0.00    +0.000 C 
ATOM      4  C   UNL     1       4.311   4.369  20.142  0.00  0.00    +0.000 C 
ATOM      5  N   UNL     1       5.026   3.377  19.307  0.00  0.00    +0.000 NA
ATOM      6  C   UNL     1       4.145   2.199  19.361  0.00  0.00    +0.000 C 
ATOM      7  C   UNL     1       2.702   2.705  19.390  0.00  0.00    +0.000 C 
ATOM      8  C   UNL     1       2.032   2.783  18.016  0.00  0.00    +0.000 C 
ENDROOT
BRANCH   2   9
ATOM      9  C   UNL     1       1.939   6.434  18.970  0.00  0.00    +0.000 A 
ATOM     10  C   UNL     1       1.654   7.038  20.198  0.00  0.00    +0.000 A 
ATOM     11  C   UNL     1       1.410   8.414  20.281  0.00  0.00    +0.000 A 
ATOM     12  C   UNL     1       1.482   9.229  19.144  0.00  0.00    +0.000 A 
ATOM     13  C   UNL     1       1.795   8.637  17.921  0.00  0.00    +0.000 A 
ATOM     14  C   UNL     1       2.024   7.258  17.837  0.00  0.00    +0.000 A 
BRANCH  12  15
ATOM     15  C   UNL     1       1.229  10.719  19.244  0.00  0.00    +0.000 C 
BRANCH  15  16
ATOM     16  C   UNL     1       1.207  11.184  20.710  0.00  0.00    +0.000 C 
BRANCH  16  17
ATOM     17  N   UNL     1      -0.124  11.483  21.253  0.00  0.00    +0.000 NA
ATOM     18  C   UNL     1      -0.386  10.665  22.442  0.00  0.00    +0.000 C 
ATOM     19  C   UNL     1      -1.578  11.355  23.065  0.00  0.00    +0.000 C 
ATOM     20  C   UNL     1      -1.302  12.830  22.826  0.00  0.00    +0.000 C 
ATOM     21  C   UNL     1      -0.306  12.876  21.669  0.00  0.00    +0.000 C 
ENDBRANCH  16  17
ENDBRANCH  15  16
ENDBRANCH  12  15
ENDBRANCH   2   9
BRANCH   5  22
ATOM     22  C   UNL     1       5.245   3.925  17.955  0.00  0.00    +0.000 C 
BRANCH  22  23
ATOM     23  C   UNL     1       6.067   5.197  17.885  0.00  0.00    +0.000 A 
ATOM     24  C   UNL     1       5.596   6.304  17.157  0.00  0.00    +0.000 A 
ATOM     25  C   UNL     1       6.316   7.497  17.128  0.00  0.00    +0.000 A 
ATOM     26  C   UNL     1       7.506   7.606  17.844  0.00  0.00    +0.000 A 
ATOM     27  C   UNL     1       7.983   6.513  18.573  0.00  0.00    +0.000 A 
ATOM     28  C   UNL     1       7.269   5.315  18.591  0.00  0.00    +0.000 A 
ENDBRANCH  22  23
ENDBRANCH   5  22
TORSDOF 6
ENDMDL
MODEL 5
REMARK VINA RESULT:      -8.1      1.784      2.177
REMARK  Name = 
REMARK  6 active torsions:
REMARK  status: ('A' for Active; 'I' for Inactive)
REMARK    1  A    between atoms: C_2  and  C_3
REMARK    2  A    between atoms: C_6  and  C_7
REMARK    3  A    between atoms: C_7  and  C_8
REMARK    4  A    between atoms: C_8  and  N_9
REMARK    5  A    between atoms: N_18  and  C_19
REMARK    6  A    between atoms: C_19  and  C_20
REMARK                            x       y       z     vdW  Elec       q    Type
REMARK                         _______ _______ _______ _____ _____    ______ ____
ROOT
ATOM      1  C   UNL     1       3.449   4.525  18.218  0.00  0.00    +0.000 C 
ATOM      2  C   UNL     1       3.858   5.765  18.525  0.00  0.00    +0.000 C 
ATOM      3  C   UNL     1       5.346   5.812  18.768  0.00  0.00    +0.000 C 
ATOM      4  C   UNL     1       6.181   6.625  17.761  0.00  0.00    +0.000 C 
ATOM      5  N   UNL     1       6.659   5.684  16.722  0.00  0.00    +0.000 NA
ATOM      6  C   UNL     1       6.884   4.441  17.477  0.00  0.00    +0.000 C 
ATOM      7  C   UNL     1       5.805   4.356  18.556  0.00  0.00    +0.000 C 
ATOM      8  C   UNL     1       4.570   3.546  18.153  0.00  0.00    +0.000 C 
ENDROOT
BRANCH   2   9
ATOM      9  C   UNL     1       2.965   6.922  18.673  0.00  0.00    +0.000 A 
ATOM     10  C   UNL     1       2.802   7.847  17.637  0.00  0.00    +0.000 A 
ATOM     11  C   UNL     1       1.994   8.977  17.805  0.00  0.00    +0.000 A 
ATOM     12  C   UNL     1       1.295   9.194  19.000  0.00  0.00    +0.000 A 
ATOM     13  C   UNL     1       1.430   8.260  20.026  0.00  0.00    +0.000 A 
ATOM     14  C   UNL     1       2.252   7.138  19.863  0.00  0.00    +0.000 A 
BRANCH  12  15
ATOM     15  C   UNL     1       0.412  10.413  19.168  0.00  0.00    +0.000 C 
BRANCH  15  16
ATOM     16  C   UNL     1      -0.638  10.500  18.048  0.00  0.00    +0.000 C 
BRANCH  16  17
ATOM     17  N   UNL     1      -2.034  10.541  18.500  0.00  0.00    +0.000 NA
ATOM     18  C   UNL     1      -2.510  11.928  18.561  0.00  0.00    +0.000 C 
ATOM     19  C   UNL     1      -4.009  11.761  18.661  0.00  0.00    +0.000 C 
ATOM     20  C   UNL     1      -4.298  10.574  17.758  0.00  0.00    +0.000 C 
ATOM     21  C   UNL     1      -2.972   9.826  17.631  0.00  0.00    +0.000 C 
ENDBRANCH  16  17
ENDBRANCH  15  16
ENDBRANCH  12  15
ENDBRANCH   2   9
BRANCH   5  22
ATOM     22  C   UNL     1       5.660   5.580  15.642  0.00  0.00    +0.000 C 
BRANCH  22  23
ATOM     23  C   UNL     1       6.138   4.921  14.363  0.00  0.00    +0.000 A 
ATOM     24  C   UNL     1       5.348   3.942  13.734  0.00  0.00    +0.000 A 
ATOM     25  C   UNL     1       5.751   3.366  12.531  0.00  0.00    +0.000 A 
ATOM     26  C   UNL     1       6.936   3.778  11.927  0.00  0.00    +0.000 A 
ATOM     27  C   UNL     1       7.729   4.752  12.541  0.00  0.00    +0.000 A 
ATOM     28  C   UNL     1       7.333   5.318  13.753  0.00  0.00    +0.000 A 
ENDBRANCH  22  23
ENDBRANCH   5  22
TORSDOF 6
ENDMDL
MODEL 6
REMARK VINA RESULT:      -8.0      2.901      3.866
REMARK  Name = 
REMARK  6 active torsions:
REMARK  status: ('A' for Active; 'I' for Inactive)
REMARK    1  A    between atoms: C_2  and  C_3
REMARK    2  A    between atoms: C_6  and  C_7
REMARK    3  A    between atoms: C_7  and  C_8
REMARK    4  A    between atoms: C_8  and  N_9
REMARK    5  A    between atoms: N_18  and  C_19
REMARK    6  A    between atoms: C_19  and  C_20
REMARK                            x       y       z     vdW  Elec       q    Type
REMARK                         _______ _______ _______ _____ _____    ______ ____
ROOT
ATOM      1  C   UNL     1       1.790   4.341  17.741  0.00  0.00    +0.000 C 
ATOM      2  C   UNL     1       2.187   5.116  18.760  0.00  0.00    +0.000 C 
ATOM      3  C   UNL     1       2.786   4.298  19.877  0.00  0.00    +0.000 C 
ATOM      4  C   UNL     1       4.286   4.507  20.154  0.00  0.00    +0.000 C 
ATOM      5  N   UNL     1       5.025   3.484  19.380  0.00  0.00    +0.000 NA
ATOM      6  C   UNL     1       4.124   2.321  19.422  0.00  0.00    +0.000 C 
ATOM      7  C   UNL     1       2.690   2.846  19.368  0.00  0.00    +0.000 C 
ATOM      8  C   UNL     1       2.088   2.898  17.962  0.00  0.00    +0.000 C 
ENDROOT
BRANCH   2   9
ATOM      9  C   UNL     1       2.005   6.573  18.817  0.00  0.00    +0.000 A 
ATOM     10  C   UNL     1       2.155   7.366  17.676  0.00  0.00    +0.000 A 
ATOM     11  C   UNL     1       2.035   8.759  17.749  0.00  0.00    +0.000 A 
ATOM     12  C   UNL     1       1.723   9.394  18.958  0.00  0.00    +0.000 A 
ATOM     13  C   UNL     1       1.541   8.607  20.094  0.00  0.00    +0.000 A 
ATOM     14  C   UNL     1       1.678   7.214  20.023  0.00  0.00    +0.000 A 
BRANCH  12  15
ATOM     15  C   UNL     1       1.582  10.901  19.025  0.00  0.00    +0.000 C 
BRANCH  15  16
ATOM     16  C   UNL     1       0.121  11.314  19.273  0.00  0.00    +0.000 C 
BRANCH  16  17
ATOM     17  N   UNL     1      -0.823  10.948  18.209  0.00  0.00    +0.000 NA
ATOM     18  C   UNL     1      -1.705   9.867  18.660  0.00  0.00    +0.000 C 
ATOM     19  C   UNL     1      -2.812   9.888  17.630  0.00  0.00    +0.000 C 
ATOM     20  C   UNL     1      -3.001  11.368  17.340  0.00  0.00    +0.000 C 
ATOM     21  C   UNL     1      -1.701  12.039  17.780  0.00  0.00    +0.000 C 
ENDBRANCH  16  17
ENDBRANCH  15  16
ENDBRANCH  12  15
ENDBRANCH   2   9
BRANCH   5  22
ATOM     22  C   UNL     1       5.317   3.993  18.027  0.00  0.00    +0.000 C 
BRANCH  22  23
ATOM     23  C   UNL     1       6.093   5.294  17.966  0.00  0.00    +0.000 A 
ATOM     24  C   UNL     1       7.286   5.441  18.694  0.00  0.00    +0.000 A 
ATOM     25  C   UNL     1       8.036   6.613  18.605  0.00  0.00    +0.000 A 
ATOM     26  C   UNL     1       7.615   7.644  17.769  0.00  0.00    +0.000 A 
ATOM     27  C   UNL     1       6.432   7.508  17.037  0.00  0.00    +0.000 A 
ATOM     28  C   UNL     1       5.674   6.342  17.138  0.00  0.00    +0.000 A 
ENDBRANCH  22  23
ENDBRANCH   5  22
TORSDOF 6
ENDMDL
MODEL 7
REMARK VINA RESULT:      -8.0      2.636     10.543
REMARK  Name = 
REMARK  6 active torsions:
REMARK  status: ('A' for Active; 'I' for Inactive)
REMARK    1  A    between atoms: C_2  and  C_3
REMARK    2  A    between atoms: C_6  and  C_7
REMARK    3  A    between atoms: C_7  and  C_8
REMARK    4  A    between atoms: C_8  and  N_9
REMARK    5  A    between atoms: N_18  and  C_19
REMARK    6  A    between atoms: C_19  and  C_20
REMARK                            x       y       z     vdW  Elec       q    Type
REMARK                         _______ _______ _______ _____ _____    ______ ____
ROOT
ATOM      1  C   UNL     1      -1.279  10.687  19.063  0.00  0.00    +0.000 C 
ATOM      2  C   UNL     1       0.062  10.731  19.059  0.00  0.00    +0.000 C 
ATOM      3  C   UNL     1       0.568  12.150  18.976  0.00  0.00    +0.000 C 
ATOM      4  C   UNL     1       1.330  12.680  20.205  0.00  0.00    +0.000 C 
ATOM      5  N   UNL     1       0.348  13.373  21.069  0.00  0.00    +0.000 NA
ATOM      6  C   UNL     1      -0.583  13.973  20.100  0.00  0.00    +0.000 C 
ATOM      7  C   UNL     1      -0.716  13.001  18.927  0.00  0.00    +0.000 C 
ATOM      8  C   UNL     1      -1.902  12.039  19.035  0.00  0.00    +0.000 C 
ENDROOT
BRANCH   2   9
ATOM      9  C   UNL     1       0.933   9.548  19.067  0.00  0.00    +0.000 A 
ATOM     10  C   UNL     1       1.611   9.141  17.914  0.00  0.00    +0.000 A 
ATOM     11  C   UNL     1       2.395   7.982  17.914  0.00  0.00    +0.000 A 
ATOM     12  C   UNL     1       2.554   7.218  19.078  0.00  0.00    +0.000 A 
ATOM     13  C   UNL     1       1.905   7.634  20.239  0.00  0.00    +0.000 A 
ATOM     14  C   UNL     1       1.107   8.786  20.234  0.00  0.00    +0.000 A 
BRANCH  12  15
ATOM     15  C   UNL     1       3.415   5.971  19.072  0.00  0.00    +0.000 C 
BRANCH  15  16
ATOM     16  C   UNL     1       4.010   5.711  17.678  0.00  0.00    +0.000 C 
BRANCH  16  17
ATOM     17  N   UNL     1       5.474   5.612  17.630  0.00  0.00    +0.000 NA
ATOM     18  C   UNL     1       6.057   6.884  17.193  0.00  0.00    +0.000 C 
ATOM     19  C   UNL     1       7.515   6.727  17.563  0.00  0.00    +0.000 C 
ATOM     20  C   UNL     1       7.470   5.971  18.881  0.00  0.00    +0.000 C 
ATOM     21  C   UNL     1       6.100   5.296  18.917  0.00  0.00    +0.000 C 
ENDBRANCH  16  17
ENDBRANCH  15  16
ENDBRANCH  12  15
ENDBRANCH   2   9
BRANCH   5  22
ATOM     22  C   UNL     1      -0.265  12.411  22.003  0.00  0.00    +0.000 C 
BRANCH  22  23
ATOM     23  C   UNL     1      -1.442  12.928  22.805  0.00  0.00    +0.000 A 
ATOM     24  C   UNL     1      -2.666  12.236  22.794  0.00  0.00    +0.000 A 
ATOM     25  C   UNL     1      -3.739  12.672  23.568  0.00  0.00    +0.000 A 
ATOM     26  C   UNL     1      -3.597  13.793  24.382  0.00  0.00    +0.000 A 
ATOM     27  C   UNL     1      -2.385  14.488  24.404  0.00  0.00    +0.000 A 
ATOM     28  C   UNL     1      -1.315  14.060  23.618  0.00  0.00    +0.000 A 
ENDBRANCH  22  23
ENDBRANCH   5  22
TORSDOF 6
ENDMDL
MODEL 8
REMARK VINA RESULT:      -8.0      3.620     10.407
REMARK  Name = 
REMARK  6 active torsions:
REMARK  status: ('A' for Active; 'I' for Inactive)
REMARK    1  A    between atoms: C_2  and  C_3
REMARK    2  A    between atoms: C_6  and  C_7
REMARK    3  A    between atoms: C_7  and  C_8
REMARK    4  A    between atoms: C_8  and  N_9
REMARK    5  A    between atoms: N_18  and  C_19
REMARK    6  A    between atoms: C_19  and  C_20
REMARK                            x       y       z     vdW  Elec       q    Type
REMARK                         _______ _______ _______ _____ _____    ______ ____
ROOT
ATOM      1  C   UNL     1      -1.330  10.816  19.074  0.00  0.00    +0.000 C 
ATOM      2  C   UNL     1       0.011  10.822  19.047  0.00  0.00    +0.000 C 
ATOM      3  C   UNL     1       0.557  12.228  18.991  0.00  0.00    +0.000 C 
ATOM      4  C   UNL     1       1.356  12.703  20.219  0.00  0.00    +0.000 C 
ATOM      5  N   UNL     1       0.409  13.402  21.118  0.00  0.00    +0.000 NA
ATOM      6  C   UNL     1      -0.521  14.053  20.182  0.00  0.00    +0.000 C 
ATOM      7  C   UNL     1      -0.702  13.116  18.987  0.00  0.00    +0.000 C 
ATOM      8  C   UNL     1      -1.913  12.186  19.091  0.00  0.00    +0.000 C 
ENDROOT
BRANCH   2   9
ATOM      9  C   UNL     1       0.848   9.615  19.008  0.00  0.00    +0.000 A 
ATOM     10  C   UNL     1       1.044   8.834  20.151  0.00  0.00    +0.000 A 
ATOM     11  C   UNL     1       1.887   7.717  20.121  0.00  0.00    +0.000 A 
ATOM     12  C   UNL     1       2.526   7.327  18.937  0.00  0.00    +0.000 A 
ATOM     13  C   UNL     1       2.311   8.084  17.786  0.00  0.00    +0.000 A 
ATOM     14  C   UNL     1       1.480   9.211  17.821  0.00  0.00    +0.000 A 
BRANCH  12  15
ATOM     15  C   UNL     1       3.427   6.109  18.909  0.00  0.00    +0.000 C 
BRANCH  15  16
ATOM     16  C   UNL     1       2.742   4.925  18.206  0.00  0.00    +0.000 C 
BRANCH  16  17
ATOM     17  N   UNL     1       2.369   3.807  19.081  0.00  0.00    +0.000 NA
ATOM     18  C   UNL     1       3.405   3.586  20.096  0.00  0.00    +0.000 C 
ATOM     19  C   UNL     1       2.704   2.698  21.099  0.00  0.00    +0.000 C 
ATOM     20  C   UNL     1       1.285   3.241  21.125  0.00  0.00    +0.000 C 
ATOM     21  C   UNL     1       1.116   4.006  19.814  0.00  0.00    +0.000 C 
ENDBRANCH  16  17
ENDBRANCH  15  16
ENDBRANCH  12  15
ENDBRANCH   2   9
BRANCH   5  22
ATOM     22  C   UNL     1      -0.215  12.432  22.038  0.00  0.00    +0.000 C 
BRANCH  22  23
ATOM     23  C   UNL     1      -1.402  12.945  22.829  0.00  0.00    +0.000 A 
ATOM     24  C   UNL     1      -2.612  12.229  22.833  0.00  0.00    +0.000 A 
ATOM     25  C   UNL     1      -3.694  12.661  23.598  0.00  0.00    +0.000 A 
ATOM     26  C   UNL     1      -3.573  13.802  24.389  0.00  0.00    +0.000 A 
ATOM     27  C   UNL     1      -2.374  14.520  24.395  0.00  0.00    +0.000 A 
ATOM     28  C   UNL     1      -1.296  14.096  23.618  0.00  0.00    +0.000 A 
ENDBRANCH  22  23
ENDBRANCH   5  22
TORSDOF 6
ENDMDL
MODEL 9
REMARK VINA RESULT:      -8.0      2.756      3.803
REMARK  Name = 
REMARK  6 active torsions:
REMARK  status: ('A' for Active; 'I' for Inactive)
REMARK    1  A    between atoms: C_2  and  C_3
REMARK    2  A    between atoms: C_6  and  C_7
REMARK    3  A    between atoms: C_7  and  C_8
REMARK    4  A    between atoms: C_8  and  N_9
REMARK    5  A    between atoms: N_18  and  C_19
REMARK    6  A    between atoms: C_19  and  C_20
REMARK                            x       y       z     vdW  Elec       q    Type
REMARK                         _______ _______ _______ _____ _____    ______ ____
ROOT
ATOM      1  C   UNL     1       1.794   4.497  17.687  0.00  0.00    +0.000 C 
ATOM      2  C   UNL     1       2.203   5.243  18.723  0.00  0.00    +0.000 C 
ATOM      3  C   UNL     1       2.814   4.392  19.809  0.00  0.00    +0.000 C 
ATOM      4  C   UNL     1       4.317   4.593  20.075  0.00  0.00    +0.000 C 
ATOM      5  N   UNL     1       5.047   3.592  19.263  0.00  0.00    +0.000 NA
ATOM      6  C   UNL     1       4.146   2.429  19.281  0.00  0.00    +0.000 C 
ATOM      7  C   UNL     1       2.712   2.956  19.259  0.00  0.00    +0.000 C 
ATOM      8  C   UNL     1       2.093   3.049  17.862  0.00  0.00    +0.000 C 
ENDROOT
BRANCH   2   9
ATOM      9  C   UNL     1       2.021   6.697  18.825  0.00  0.00    +0.000 A 
ATOM     10  C   UNL     1       1.745   7.307  20.052  0.00  0.00    +0.000 A 
ATOM     11  C   UNL     1       1.518   8.686  20.133  0.00  0.00    +0.000 A 
ATOM     12  C   UNL     1       1.600   9.499  18.994  0.00  0.00    +0.000 A 
ATOM     13  C   UNL     1       1.905   8.901  17.772  0.00  0.00    +0.000 A 
ATOM     14  C   UNL     1       2.116   7.518  17.690  0.00  0.00    +0.000 A 
BRANCH  12  15
ATOM     15  C   UNL     1       1.366  10.992  19.092  0.00  0.00    +0.000 C 
BRANCH  15  16
ATOM     16  C   UNL     1       0.141  11.308  19.967  0.00  0.00    +0.000 C 
BRANCH  16  17
ATOM     17  N   UNL     1      -1.148  11.311  19.264  0.00  0.00    +0.000 NA
ATOM     18  C   UNL     1      -1.053  12.094  18.028  0.00  0.00    +0.000 C 
ATOM     19  C   UNL     1      -2.297  11.681  17.275  0.00  0.00    +0.000 C 
ATOM     20  C   UNL     1      -2.431  10.201  17.592  0.00  0.00    +0.000 C 
ATOM     21  C   UNL     1      -1.623   9.983  18.870  0.00  0.00    +0.000 C 
ENDBRANCH  16  17
ENDBRANCH  15  16
ENDBRANCH  12  15
ENDBRANCH   2   9
BRANCH   5  22
ATOM     22  C   UNL     1       5.323   4.141  17.922  0.00  0.00    +0.000 C 
BRANCH  22  23
ATOM     23  C   UNL     1       6.204   5.374  17.883  0.00  0.00    +0.000 A 
ATOM     24  C   UNL     1       5.833   6.485  17.104  0.00  0.00    +0.000 A 
ATOM     25  C   UNL     1       6.606   7.644  17.100  0.00  0.00    +0.000 A 
ATOM     26  C   UNL     1       7.749   7.717  17.893  0.00  0.00    +0.000 A 
ATOM     27  C   UNL     1       8.127   6.621  18.673  0.00  0.00    +0.000 A 
ATOM     28  C   UNL     1       7.361   5.456  18.666  0.00  0.00    +0.000 A 
ENDBRANCH  22  23
ENDBRANCH   5  22
TORSDOF 6
ENDMDL
