MODEL 1
REMARK VINA RESULT:      -7.3      0.000      0.000
REMARK  Name = 
REMARK  0 active torsions:
REMARK  status: ('A' for Active; 'I' for Inactive)
REMARK                            x       y       z     vdW  Elec       q    Type
REMARK                         _______ _______ _______ _____ _____    ______ ____
ROOT
ATOM      1  O   UNL     1       8.262   4.147  17.742  0.00  0.00    +0.000 OA
ATOM      2  C   UNL     1       7.253   4.498  17.155  0.00  0.00    +0.000 C 
ATOM      3  N   UNL     1       7.015   4.316  15.848  0.00  0.00    +0.000 N 
ATOM      4  C   UNL     1       5.745   4.653  15.541  0.00  0.00    +0.000 C 
ATOM      5  O   UNL     1       5.230   4.505  14.444  0.00  0.00    +0.000 OA
ATOM      6  C   UNL     1       5.103   5.208  16.802  0.00  0.00    +0.000 C 
ATOM      7  C   UNL     1       4.792   6.687  16.555  0.00  0.00    +0.000 C 
ATOM      8  C   UNL     1       4.103   7.333  17.740  0.00  0.00    +0.000 C 
ATOM      9  S   UNL     1       2.443   6.647  17.944  0.00  0.00    +0.000 S 
ATOM     10  C   UNL     1       2.793   4.899  17.873  0.00  0.00    +0.000 A 
ATOM     11  C   UNL     1       1.801   4.051  18.391  0.00  0.00    +0.000 A 
ATOM     12  C   UNL     1       1.966   2.668  18.401  0.00  0.00    +0.000 A 
ATOM     13  C   UNL     1       3.127   2.112  17.886  0.00  0.00    +0.000 A 
ATOM     14  C   UNL     1       4.118   2.942  17.364  0.00  0.00    +0.000 A 
ATOM     15  C   UNL     1       3.970   4.349  17.336  0.00  0.00    +0.000 A 
ATOM     16  O   UNL     1       6.195   5.112  17.748  0.00  0.00    +0.000 OA
ATOM     17  H   UNL     1       7.651   3.856  15.221  0.00  0.00    +0.000 HD
ENDROOT
TORSDOF 0
ENDMDL
MODEL 2
REMARK VINA RESULT:      -7.2      2.622      3.791
REMARK  Name = 
REMARK  0 active torsions:
REMARK  status: ('A' for Active; 'I' for Inactive)
REMARK                            x       y       z     vdW  Elec       q    Type
REMARK                         _______ _______ _______ _____ _____    ______ ____
ROOT
ATOM      1  O   UNL     1       4.957   1.958  20.768  0.00  0.00    +0.000 OA
ATOM      2  C   UNL     1       4.539   2.379  19.704  0.00  0.00    +0.000 C 
ATOM      3  N   UNL     1       3.516   1.856  19.011  0.00  0.00    +0.000 N 
ATOM      4  C   UNL     1       3.186   2.650  17.971  0.00  0.00    +0.000 C 
ATOM      5  O   UNL     1       2.237   2.464  17.226  0.00  0.00    +0.000 OA
ATOM      6  C   UNL     1       4.185   3.794  17.936  0.00  0.00    +0.000 C 
ATOM      7  C   UNL     1       5.000   3.663  16.645  0.00  0.00    +0.000 C 
ATOM      8  C   UNL     1       6.003   4.787  16.484  0.00  0.00    +0.000 C 
ATOM      9  S   UNL     1       5.142   6.353  16.206  0.00  0.00    +0.000 S 
ATOM     10  C   UNL     1       3.946   6.315  17.530  0.00  0.00    +0.000 A 
ATOM     11  C   UNL     1       3.366   7.548  17.870  0.00  0.00    +0.000 A 
ATOM     12  C   UNL     1       2.428   7.646  18.896  0.00  0.00    +0.000 A 
ATOM     13  C   UNL     1       2.052   6.508  19.593  0.00  0.00    +0.000 A 
ATOM     14  C   UNL     1       2.616   5.277  19.262  0.00  0.00    +0.000 A 
ATOM     15  C   UNL     1       3.564   5.151  18.220  0.00  0.00    +0.000 A 
ATOM     16  O   UNL     1       5.036   3.469  19.061  0.00  0.00    +0.000 OA
ATOM     17  H   UNL     1       2.982   1.061  19.316  0.00  0.00    +0.000 HD
ENDROOT
TORSDOF 0
ENDMDL
MODEL 3
REMARK VINA RESULT:      -7.0      1.382      3.416
REMARK  Name = 
REMARK  0 active torsions:
REMARK  status: ('A' for Active; 'I' for Inactive)
REMARK                            x       y       z     vdW  Elec       q    Type
REMARK                         _______ _______ _______ _____ _____    ______ ____
ROOT
ATOM      1  O   UNL     1       6.540   4.185  14.546  0.00  0.00    +0.000 OA
ATOM      2  C   UNL     1       6.115   4.128  15.687  0.00  0.00    +0.000 C 
ATOM      3  N   UNL     1       6.865   4.198  16.797  0.00  0.00    +0.000 N 
ATOM      4  C   UNL     1       6.087   4.283  17.896  0.00  0.00    +0.000 C 
ATOM      5  O   UNL     1       6.502   4.447  19.032  0.00  0.00    +0.000 OA
ATOM      6  C   UNL     1       4.642   4.163  17.442  0.00  0.00    +0.000 C 
ATOM      7  C   UNL     1       4.076   2.863  18.023  0.00  0.00    +0.000 C 
ATOM      8  C   UNL     1       2.617   2.665  17.668  0.00  0.00    +0.000 C 
ATOM      9  S   UNL     1       1.599   3.904  18.505  0.00  0.00    +0.000 S 
ATOM     10  C   UNL     1       2.491   5.395  18.101  0.00  0.00    +0.000 A 
ATOM     11  C   UNL     1       1.778   6.597  18.246  0.00  0.00    +0.000 A 
ATOM     12  C   UNL     1       2.366   7.825  17.950  0.00  0.00    +0.000 A 
ATOM     13  C   UNL     1       3.680   7.869  17.508  0.00  0.00    +0.000 A 
ATOM     14  C   UNL     1       4.400   6.684  17.364  0.00  0.00    +0.000 A 
ATOM     15  C   UNL     1       3.828   5.426  17.666  0.00  0.00    +0.000 A 
ATOM     16  O   UNL     1       4.801   4.005  16.011  0.00  0.00    +0.000 OA
ATOM     17  H   UNL     1       7.863   4.320  16.792  0.00  0.00    +0.000 HD
ENDROOT
TORSDOF 0
ENDMDL
MODEL 4
REMARK VINA RESULT:      -6.8      2.457      3.688
REMARK  Name = 
REMARK  0 active torsions:
REMARK  status: ('A' for Active; 'I' for Inactive)
REMARK                            x       y       z     vdW  Elec       q    Type
REMARK                         _______ _______ _______ _____ _____    ______ ____
ROOT
ATOM      1  O   UNL     1       7.814   9.087  17.649  0.00  0.00    +0.000 OA
ATOM      2  C   UNL     1       7.697   7.881  17.774  0.00  0.00    +0.000 C 
ATOM      3  N   UNL     1       8.213   7.153  18.776  0.00  0.00    +0.000 N 
ATOM      4  C   UNL     1       7.760   5.883  18.727  0.00  0.00    +0.000 C 
ATOM      5  O   UNL     1       7.995   5.026  19.564  0.00  0.00    +0.000 OA
ATOM      6  C   UNL     1       6.907   5.751  17.476  0.00  0.00    +0.000 C 
ATOM      7  C   UNL     1       7.612   4.773  16.531  0.00  0.00    +0.000 C 
ATOM      8  C   UNL     1       6.820   4.531  15.262  0.00  0.00    +0.000 C 
ATOM      9  S   UNL     1       5.300   3.628  15.641  0.00  0.00    +0.000 S 
ATOM     10  C   UNL     1       4.666   4.598  16.999  0.00  0.00    +0.000 A 
ATOM     11  C   UNL     1       3.303   4.430  17.290  0.00  0.00    +0.000 A 
ATOM     12  C   UNL     1       2.692   5.142  18.321  0.00  0.00    +0.000 A 
ATOM     13  C   UNL     1       3.440   6.030  19.078  0.00  0.00    +0.000 A 
ATOM     14  C   UNL     1       4.796   6.203  18.802  0.00  0.00    +0.000 A 
ATOM     15  C   UNL     1       5.440   5.485  17.767  0.00  0.00    +0.000 A 
ATOM     16  O   UNL     1       6.999   7.085  16.922  0.00  0.00    +0.000 OA
ATOM     17  H   UNL     1       8.743   7.542  19.536  0.00  0.00    +0.000 HD
ENDROOT
TORSDOF 0
ENDMDL
MODEL 5
REMARK VINA RESULT:      -6.7      2.851      4.560
REMARK  Name = 
REMARK  0 active torsions:
REMARK  status: ('A' for Active; 'I' for Inactive)
REMARK                            x       y       z     vdW  Elec       q    Type
REMARK                         _______ _______ _______ _____ _____    ______ ____
ROOT
ATOM      1  O   UNL     1       0.951   4.414  17.256  0.00  0.00    +0.000 OA
ATOM      2  C   UNL     1       2.042   3.950  17.537  0.00  0.00    +0.000 C 
ATOM      3  N   UNL     1       2.320   2.643  17.660  0.00  0.00    +0.000 N 
ATOM      4  C   UNL     1       3.647   2.447  17.801  0.00  0.00    +0.000 C 
ATOM      5  O   UNL     1       4.189   1.354  17.846  0.00  0.00    +0.000 OA
ATOM      6  C   UNL     1       4.307   3.815  17.865  0.00  0.00    +0.000 C 
ATOM      7  C   UNL     1       4.912   3.977  19.263  0.00  0.00    +0.000 C 
ATOM      8  C   UNL     1       5.639   5.297  19.422  0.00  0.00    +0.000 C 
ATOM      9  S   UNL     1       7.120   5.320  18.386  0.00  0.00    +0.000 S 
ATOM     10  C   UNL     1       6.444   4.778  16.826  0.00  0.00    +0.000 A 
ATOM     11  C   UNL     1       7.221   5.056  15.689  0.00  0.00    +0.000 A 
ATOM     12  C   UNL     1       6.791   4.692  14.414  0.00  0.00    +0.000 A 
ATOM     13  C   UNL     1       5.578   4.039  14.260  0.00  0.00    +0.000 A 
ATOM     14  C   UNL     1       4.799   3.753  15.381  0.00  0.00    +0.000 A 
ATOM     15  C   UNL     1       5.218   4.105  16.685  0.00  0.00    +0.000 A 
ATOM     16  O   UNL     1       3.161   4.693  17.747  0.00  0.00    +0.000 OA
ATOM     17  H   UNL     1       1.645   1.912  17.519  0.00  0.00    +0.000 HD
ENDROOT
TORSDOF 0
ENDMDL
MODEL 6
REMARK VINA RESULT:      -6.7      3.474      5.127
REMARK  Name = 
REMARK  0 active torsions:
REMARK  status: ('A' for Active; 'I' for Inactive)
REMARK                            x       y       z     vdW  Elec       q    Type
REMARK                         _______ _______ _______ _____ _____    ______ ____
ROOT
ATOM      1  O   UNL     1       2.180   3.093  22.298  0.00  0.00    +0.000 OA
ATOM      2  C   UNL     1       2.078   3.114  21.084  0.00  0.00    +0.000 C 
ATOM      3  N   UNL     1       0.940   2.931  20.398  0.00  0.00    +0.000 N 
ATOM      4  C   UNL     1       1.124   3.189  19.087  0.00  0.00    +0.000 C 
ATOM      5  O   UNL     1       0.240   3.189  18.246  0.00  0.00    +0.000 OA
ATOM      6  C   UNL     1       2.599   3.496  18.885  0.00  0.00    +0.000 C 
ATOM      7  C   UNL     1       3.191   2.386  18.011  0.00  0.00    +0.000 C 
ATOM      8  C   UNL     1       4.657   2.618  17.707  0.00  0.00    +0.000 C 
ATOM      9  S   UNL     1       4.850   4.060  16.634  0.00  0.00    +0.000 S 
ATOM     10  C   UNL     1       3.848   5.256  17.500  0.00  0.00    +0.000 A 
ATOM     11  C   UNL     1       4.080   6.603  17.176  0.00  0.00    +0.000 A 
ATOM     12  C   UNL     1       3.368   7.627  17.795  0.00  0.00    +0.000 A 
ATOM     13  C   UNL     1       2.407   7.318  18.746  0.00  0.00    +0.000 A 
ATOM     14  C   UNL     1       2.164   5.985  19.074  0.00  0.00    +0.000 A 
ATOM     15  C   UNL     1       2.869   4.927  18.453  0.00  0.00    +0.000 A 
ATOM     16  O   UNL     1       3.111   3.353  20.232  0.00  0.00    +0.000 OA
ATOM     17  H   UNL     1       0.047   2.768  20.829  0.00  0.00    +0.000 HD
ENDROOT
TORSDOF 0
ENDMDL
MODEL 7
REMARK VINA RESULT:      -6.6      1.494      1.515
REMARK  Name = 
REMARK  0 active torsions:
REMARK  status: ('A' for Active; 'I' for Inactive)
REMARK                            x       y       z     vdW  Elec       q    Type
REMARK                         _______ _______ _______ _____ _____    ______ ____
ROOT
ATOM      1  O   UNL     1       8.274   5.205  19.447  0.00  0.00    +0.000 OA
ATOM      2  C   UNL     1       7.317   5.111  18.699  0.00  0.00    +0.000 C 
ATOM      3  N   UNL     1       7.281   4.381  17.574  0.00  0.00    +0.000 N 
ATOM      4  C   UNL     1       6.031   4.341  17.068  0.00  0.00    +0.000 C 
ATOM      5  O   UNL     1       5.691   3.678  16.101  0.00  0.00    +0.000 OA
ATOM      6  C   UNL     1       5.160   5.237  17.933  0.00  0.00    +0.000 C 
ATOM      7  C   UNL     1       4.698   6.414  17.069  0.00  0.00    +0.000 C 
ATOM      8  C   UNL     1       3.779   7.353  17.825  0.00  0.00    +0.000 C 
ATOM      9  S   UNL     1       2.208   6.532  18.182  0.00  0.00    +0.000 S 
ATOM     10  C   UNL     1       2.787   4.992  18.873  0.00  0.00    +0.000 A 
ATOM     11  C   UNL     1       1.851   4.267  19.629  0.00  0.00    +0.000 A 
ATOM     12  C   UNL     1       2.190   3.056  20.228  0.00  0.00    +0.000 A 
ATOM     13  C   UNL     1       3.471   2.549  20.074  0.00  0.00    +0.000 A 
ATOM     14  C   UNL     1       4.408   3.256  19.322  0.00  0.00    +0.000 A 
ATOM     15  C   UNL     1       4.085   4.484  18.698  0.00  0.00    +0.000 A 
ATOM     16  O   UNL     1       6.119   5.719  18.906  0.00  0.00    +0.000 OA
ATOM     17  H   UNL     1       8.050   3.824  17.243  0.00  0.00    +0.000 HD
ENDROOT
TORSDOF 0
ENDMDL
MODEL 8
REMARK VINA RESULT:      -6.6      2.112      3.617
REMARK  Name = 
REMARK  0 active torsions:
REMARK  status: ('A' for Active; 'I' for Inactive)
REMARK                            x       y       z     vdW  Elec       q    Type
REMARK                         _______ _______ _______ _____ _____    ______ ____
ROOT
ATOM      1  O   UNL     1       5.122   6.396  15.465  0.00  0.00    +0.000 OA
ATOM      2  C   UNL     1       5.079   5.630  16.411  0.00  0.00    +0.000 C 
ATOM      3  N   UNL     1       6.066   5.438  17.298  0.00  0.00    +0.000 N 
ATOM      4  C   UNL     1       5.647   4.665  18.322  0.00  0.00    +0.000 C 
ATOM      5  O   UNL     1       6.308   4.402  19.313  0.00  0.00    +0.000 OA
ATOM      6  C   UNL     1       4.225   4.227  18.010  0.00  0.00    +0.000 C 
ATOM      7  C   UNL     1       4.236   2.708  17.814  0.00  0.00    +0.000 C 
ATOM      8  C   UNL     1       2.852   2.156  17.541  0.00  0.00    +0.000 C 
ATOM      9  S   UNL     1       1.816   2.318  19.014  0.00  0.00    +0.000 S 
ATOM     10  C   UNL     1       2.102   4.029  19.435  0.00  0.00    +0.000 A 
ATOM     11  C   UNL     1       1.156   4.618  20.290  0.00  0.00    +0.000 A 
ATOM     12  C   UNL     1       1.267   5.952  20.679  0.00  0.00    +0.000 A 
ATOM     13  C   UNL     1       2.330   6.714  20.221  0.00  0.00    +0.000 A 
ATOM     14  C   UNL     1       3.279   6.140  19.376  0.00  0.00    +0.000 A 
ATOM     15  C   UNL     1       3.192   4.786  18.973  0.00  0.00    +0.000 A 
ATOM     16  O   UNL     1       4.002   4.863  16.728  0.00  0.00    +0.000 OA
ATOM     17  H   UNL     1       6.945   5.925  17.273  0.00  0.00    +0.000 HD
ENDROOT
TORSDOF 0
ENDMDL
MODEL 9
REMARK VINA RESULT:      -6.6      2.398      3.931
REMARK  Name = 
REMARK  0 active torsions:
REMARK  status: ('A' for Active; 'I' for Inactive)
REMARK                            x       y       z     vdW  Elec       q    Type
REMARK                         _______ _______ _______ _____ _____    ______ ____
ROOT
ATOM      1  O   UNL     1       4.935   4.041  15.538  0.00  0.00    +0.000 OA
ATOM      2  C   UNL     1       5.018   4.062  16.753  0.00  0.00    +0.000 C 
ATOM      3  N   UNL     1       6.094   4.458  17.449  0.00  0.00    +0.000 N 
ATOM      4  C   UNL     1       5.813   4.533  18.767  0.00  0.00    +0.000 C 
ATOM      5  O   UNL     1       6.578   4.950  19.621  0.00  0.00    +0.000 OA
ATOM      6  C   UNL     1       4.390   4.034  18.957  0.00  0.00    +0.000 C 
ATOM      7  C   UNL     1       4.454   2.743  19.779  0.00  0.00    +0.000 C 
ATOM      8  C   UNL     1       3.077   2.180  20.069  0.00  0.00    +0.000 C 
ATOM      9  S   UNL     1       2.182   3.276  21.194  0.00  0.00    +0.000 S 
ATOM     10  C   UNL     1       2.425   4.850  20.390  0.00  0.00    +0.000 A 
ATOM     11  C   UNL     1       1.539   5.875  20.762  0.00  0.00    +0.000 A 
ATOM     12  C   UNL     1       1.624   7.144  20.193  0.00  0.00    +0.000 A 
ATOM     13  C   UNL     1       2.602   7.408  19.246  0.00  0.00    +0.000 A 
ATOM     14  C   UNL     1       3.490   6.401  18.871  0.00  0.00    +0.000 A 
ATOM     15  C   UNL     1       3.429   5.107  19.440  0.00  0.00    +0.000 A 
ATOM     16  O   UNL     1       4.015   3.704  17.598  0.00  0.00    +0.000 OA
ATOM     17  H   UNL     1       6.943   4.792  17.026  0.00  0.00    +0.000 HD
ENDROOT
TORSDOF 0
ENDMDL
