MODEL 1
REMARK VINA RESULT:      -8.3      0.000      0.000
REMARK  Name = 
REMARK  4 active torsions:
REMARK  status: ('A' for Active; 'I' for Inactive)
REMARK    1  A    between atoms: C_5  and  C_6
REMARK    2  A    between atoms: C_11  and  N_12
REMARK    3  A    between atoms: C_20  and  C_21
REMARK    4  A    between atoms: C_24  and  C_25
REMARK                            x       y       z     vdW  Elec       q    Type
REMARK                         _______ _______ _______ _____ _____    ______ ____
ROOT
ATOM      1  C   UNL     1      -0.591  12.912  18.649  0.00  0.00    +0.000 A 
ATOM      2  N   UNL     1      -0.516  14.282  18.537  0.00  0.00    +0.000 NA
ATOM      3  C   UNL     1       0.745  14.583  18.748  0.00  0.00    +0.000 A 
ATOM      4  C   UNL     1       1.401  15.838  18.799  0.00  0.00    +0.000 A 
ATOM      5  C   UNL     1       2.725  15.902  19.057  0.00  0.00    +0.000 A 
ATOM      6  C   UNL     1       3.544  14.708  19.264  0.00  0.00    +0.000 A 
ATOM      7  C   UNL     1       2.906  13.526  19.144  0.00  0.00    +0.000 A 
ATOM      8  N   UNL     1       1.523  13.452  18.932  0.00  0.00    +0.000 N 
ATOM      9  C   UNL     1       0.669  12.353  18.882  0.00  0.00    +0.000 A 
ENDROOT
BRANCH   1  14
ATOM     10  F   UNL     1      -5.592  10.505  17.953  0.00  0.00    +0.000 F 
ATOM     11  C   UNL     1      -4.378  11.038  18.144  0.00  0.00    +0.000 A 
ATOM     12  C   UNL     1      -4.152  11.855  19.245  0.00  0.00    +0.000 A 
ATOM     13  C   UNL     1      -2.896  12.447  19.420  0.00  0.00    +0.000 A 
ATOM     14  C   UNL     1      -1.863  12.210  18.499  0.00  0.00    +0.000 A 
ATOM     15  C   UNL     1      -2.099  11.322  17.438  0.00  0.00    +0.000 A 
ATOM     16  C   UNL     1      -3.363  10.765  17.239  0.00  0.00    +0.000 A 
ENDBRANCH   1  14
BRANCH   6  17
ATOM     17  N   UNL     1       4.901  14.838  19.545  0.00  0.00    +0.000 N 
ATOM     18  C   UNL     1       5.481  14.905  20.903  0.00  0.00    +0.000 C 
ATOM     19  C   UNL     1       6.327  16.179  21.038  0.00  0.00    +0.000 C 
ATOM     20  O   UNL     1       7.361  16.229  20.040  0.00  0.00    +0.000 OA
ATOM     21  C   UNL     1       6.785  16.184  18.723  0.00  0.00    +0.000 C 
ATOM     22  C   UNL     1       5.957  14.909  18.511  0.00  0.00    +0.000 C 
ENDBRANCH   6  17
BRANCH   9  23
ATOM     23  C   UNL     1       1.102  10.950  19.030  0.00  0.00    +0.000 A 
ATOM     24  C   UNL     1       1.814  10.313  18.014  0.00  0.00    +0.000 A 
ATOM     25  C   UNL     1       2.134   8.960  18.103  0.00  0.00    +0.000 A 
ATOM     26  C   UNL     1       1.869   8.212  19.262  0.00  0.00    +0.000 A 
ATOM     27  C   UNL     1       1.253   8.886  20.325  0.00  0.00    +0.000 A 
ATOM     28  C   UNL     1       0.831  10.216  20.191  0.00  0.00    +0.000 A 
BRANCH  26  29
ATOM     29  C   UNL     1       2.194   6.767  19.309  0.00  0.00    +0.000 A 
ATOM     30  C   UNL     1       2.747   6.115  18.193  0.00  0.00    +0.000 A 
ATOM     31  C   UNL     1       2.931   4.734  18.169  0.00  0.00    +0.000 A 
ATOM     32  C   UNL     1       2.596   3.975  19.283  0.00  0.00    +0.000 A 
ATOM     33  C   UNL     1       2.092   4.598  20.421  0.00  0.00    +0.000 A 
ATOM     34  C   UNL     1       1.890   5.982  20.432  0.00  0.00    +0.000 A 
ENDBRANCH  26  29
ENDBRANCH   9  23
TORSDOF 4
ENDMDL
MODEL 2
REMARK VINA RESULT:      -8.0      0.880      1.286
REMARK  Name = 
REMARK  4 active torsions:
REMARK  status: ('A' for Active; 'I' for Inactive)
REMARK    1  A    between atoms: C_5  and  C_6
REMARK    2  A    between atoms: C_11  and  N_12
REMARK    3  A    between atoms: C_20  and  C_21
REMARK    4  A    between atoms: C_24  and  C_25
REMARK                            x       y       z     vdW  Elec       q    Type
REMARK                         _______ _______ _______ _____ _____    ______ ____
ROOT
ATOM      1  C   UNL     1      -0.706  12.909  19.093  0.00  0.00    +0.000 A 
ATOM      2  N   UNL     1      -0.618  14.280  19.189  0.00  0.00    +0.000 NA
ATOM      3  C   UNL     1       0.605  14.525  19.601  0.00  0.00    +0.000 A 
ATOM      4  C   UNL     1       1.248  15.748  19.915  0.00  0.00    +0.000 A 
ATOM      5  C   UNL     1       2.528  15.751  20.348  0.00  0.00    +0.000 A 
ATOM      6  C   UNL     1       3.313  14.525  20.485  0.00  0.00    +0.000 A 
ATOM      7  C   UNL     1       2.697  13.384  20.116  0.00  0.00    +0.000 A 
ATOM      8  N   UNL     1       1.354  13.365  19.720  0.00  0.00    +0.000 N 
ATOM      9  C   UNL     1       0.514  12.300  19.403  0.00  0.00    +0.000 A 
ENDROOT
BRANCH   1  14
ATOM     10  F   UNL     1      -5.573  10.717  17.425  0.00  0.00    +0.000 F 
ATOM     11  C   UNL     1      -4.395  11.195  17.844  0.00  0.00    +0.000 A 
ATOM     12  C   UNL     1      -4.311  11.835  19.075  0.00  0.00    +0.000 A 
ATOM     13  C   UNL     1      -3.088  12.374  19.492  0.00  0.00    +0.000 A 
ATOM     14  C   UNL     1      -1.947  12.259  18.682  0.00  0.00    +0.000 A 
ATOM     15  C   UNL     1      -2.046  11.543  17.479  0.00  0.00    +0.000 A 
ATOM     16  C   UNL     1      -3.273  11.044  17.042  0.00  0.00    +0.000 A 
ENDBRANCH   1  14
BRANCH   6  17
ATOM     17  N   UNL     1       4.622  14.590  20.954  0.00  0.00    +0.000 N 
ATOM     18  C   UNL     1       5.058  14.175  22.304  0.00  0.00    +0.000 C 
ATOM     19  C   UNL     1       5.789  15.339  22.988  0.00  0.00    +0.000 C 
ATOM     20  O   UNL     1       6.910  15.786  22.206  0.00  0.00    +0.000 OA
ATOM     21  C   UNL     1       6.472  16.207  20.902  0.00  0.00    +0.000 C 
ATOM     22  C   UNL     1       5.767  15.070  20.148  0.00  0.00    +0.000 C 
ENDBRANCH   6  17
BRANCH   9  23
ATOM     23  C   UNL     1       0.924  10.883  19.404  0.00  0.00    +0.000 A 
ATOM     24  C   UNL     1       0.678  10.072  20.511  0.00  0.00    +0.000 A 
ATOM     25  C   UNL     1       1.156   8.764  20.561  0.00  0.00    +0.000 A 
ATOM     26  C   UNL     1       1.790   8.166  19.460  0.00  0.00    +0.000 A 
ATOM     27  C   UNL     1       1.936   8.950  18.309  0.00  0.00    +0.000 A 
ATOM     28  C   UNL     1       1.556  10.299  18.299  0.00  0.00    +0.000 A 
BRANCH  26  29
ATOM     29  C   UNL     1       2.313   6.783  19.560  0.00  0.00    +0.000 A 
ATOM     30  C   UNL     1       3.234   6.290  18.621  0.00  0.00    +0.000 A 
ATOM     31  C   UNL     1       3.631   4.954  18.616  0.00  0.00    +0.000 A 
ATOM     32  C   UNL     1       3.139   4.085  19.581  0.00  0.00    +0.000 A 
ATOM     33  C   UNL     1       2.263   4.555  20.555  0.00  0.00    +0.000 A 
ATOM     34  C   UNL     1       1.852   5.892  20.543  0.00  0.00    +0.000 A 
ENDBRANCH  26  29
ENDBRANCH   9  23
TORSDOF 4
ENDMDL
MODEL 3
REMARK VINA RESULT:      -7.9      0.184      1.182
REMARK  Name = 
REMARK  4 active torsions:
REMARK  status: ('A' for Active; 'I' for Inactive)
REMARK    1  A    between atoms: C_5  and  C_6
REMARK    2  A    between atoms: C_11  and  N_12
REMARK    3  A    between atoms: C_20  and  C_21
REMARK    4  A    between atoms: C_24  and  C_25
REMARK                            x       y       z     vdW  Elec       q    Type
REMARK                         _______ _______ _______ _____ _____    ______ ____
ROOT
ATOM      1  C   UNL     1      -0.562  12.952  18.658  0.00  0.00    +0.000 A 
ATOM      2  N   UNL     1      -0.479  14.323  18.565  0.00  0.00    +0.000 NA
ATOM      3  C   UNL     1       0.781  14.615  18.792  0.00  0.00    +0.000 A 
ATOM      4  C   UNL     1       1.443  15.866  18.867  0.00  0.00    +0.000 A 
ATOM      5  C   UNL     1       2.765  15.919  19.139  0.00  0.00    +0.000 A 
ATOM      6  C   UNL     1       3.575  14.719  19.337  0.00  0.00    +0.000 A 
ATOM      7  C   UNL     1       2.934  13.542  19.195  0.00  0.00    +0.000 A 
ATOM      8  N   UNL     1       1.552  13.477  18.969  0.00  0.00    +0.000 N 
ATOM      9  C   UNL     1       0.694  12.383  18.895  0.00  0.00    +0.000 A 
ENDROOT
BRANCH   1  14
ATOM     10  F   UNL     1      -5.303  10.031  18.140  0.00  0.00    +0.000 F 
ATOM     11  C   UNL     1      -4.190  10.769  18.236  0.00  0.00    +0.000 A 
ATOM     12  C   UNL     1      -3.157  10.576  17.326  0.00  0.00    +0.000 A 
ATOM     13  C   UNL     1      -1.976  11.317  17.455  0.00  0.00    +0.000 A 
ATOM     14  C   UNL     1      -1.836  12.259  18.486  0.00  0.00    +0.000 A 
ATOM     15  C   UNL     1      -2.923  12.484  19.344  0.00  0.00    +0.000 A 
ATOM     16  C   UNL     1      -4.085  11.716  19.244  0.00  0.00    +0.000 A 
ENDBRANCH   1  14
BRANCH   6  17
ATOM     17  N   UNL     1       4.930  14.838  19.633  0.00  0.00    +0.000 N 
ATOM     18  C   UNL     1       5.500  14.851  20.997  0.00  0.00    +0.000 C 
ATOM     19  C   UNL     1       6.345  16.119  21.189  0.00  0.00    +0.000 C 
ATOM     20  O   UNL     1       7.386  16.209  20.201  0.00  0.00    +0.000 OA
ATOM     21  C   UNL     1       6.820  16.217  18.879  0.00  0.00    +0.000 C 
ATOM     22  C   UNL     1       5.994  14.950  18.610  0.00  0.00    +0.000 C 
ENDBRANCH   6  17
BRANCH   9  23
ATOM     23  C   UNL     1       1.118  10.976  19.028  0.00  0.00    +0.000 A 
ATOM     24  C   UNL     1       1.821  10.344  18.003  0.00  0.00    +0.000 A 
ATOM     25  C   UNL     1       2.132   8.988  18.078  0.00  0.00    +0.000 A 
ATOM     26  C   UNL     1       1.868   8.232  19.231  0.00  0.00    +0.000 A 
ATOM     27  C   UNL     1       1.261   8.900  20.303  0.00  0.00    +0.000 A 
ATOM     28  C   UNL     1       0.848  10.233  20.184  0.00  0.00    +0.000 A 
BRANCH  26  29
ATOM     29  C   UNL     1       2.184   6.785  19.263  0.00  0.00    +0.000 A 
ATOM     30  C   UNL     1       1.896   6.008  20.399  0.00  0.00    +0.000 A 
ATOM     31  C   UNL     1       2.310   4.681  20.502  0.00  0.00    +0.000 A 
ATOM     32  C   UNL     1       2.993   4.088  19.448  0.00  0.00    +0.000 A 
ATOM     33  C   UNL     1       3.250   4.817  18.291  0.00  0.00    +0.000 A 
ATOM     34  C   UNL     1       2.851   6.154  18.201  0.00  0.00    +0.000 A 
ENDBRANCH  26  29
ENDBRANCH   9  23
TORSDOF 4
ENDMDL
MODEL 4
REMARK VINA RESULT:      -7.8      1.101      1.495
REMARK  Name = 
REMARK  4 active torsions:
REMARK  status: ('A' for Active; 'I' for Inactive)
REMARK    1  A    between atoms: C_5  and  C_6
REMARK    2  A    between atoms: C_11  and  N_12
REMARK    3  A    between atoms: C_20  and  C_21
REMARK    4  A    between atoms: C_24  and  C_25
REMARK                            x       y       z     vdW  Elec       q    Type
REMARK                         _______ _______ _______ _____ _____    ______ ____
ROOT
ATOM      1  C   UNL     1      -0.702  13.021  19.218  0.00  0.00    +0.000 A 
ATOM      2  N   UNL     1      -0.657  14.393  19.323  0.00  0.00    +0.000 NA
ATOM      3  C   UNL     1       0.532  14.670  19.806  0.00  0.00    +0.000 A 
ATOM      4  C   UNL     1       1.123  15.909  20.161  0.00  0.00    +0.000 A 
ATOM      5  C   UNL     1       2.374  15.944  20.667  0.00  0.00    +0.000 A 
ATOM      6  C   UNL     1       3.184  14.740  20.846  0.00  0.00    +0.000 A 
ATOM      7  C   UNL     1       2.622  13.584  20.439  0.00  0.00    +0.000 A 
ATOM      8  N   UNL     1       1.305  13.530  19.965  0.00  0.00    +0.000 N 
ATOM      9  C   UNL     1       0.514  12.444  19.597  0.00  0.00    +0.000 A 
ENDROOT
BRANCH   1  14
ATOM     10  F   UNL     1      -5.404  10.705  17.266  0.00  0.00    +0.000 F 
ATOM     11  C   UNL     1      -4.264  11.212  17.753  0.00  0.00    +0.000 A 
ATOM     12  C   UNL     1      -4.266  11.839  18.994  0.00  0.00    +0.000 A 
ATOM     13  C   UNL     1      -3.084  12.408  19.483  0.00  0.00    +0.000 A 
ATOM     14  C   UNL     1      -1.899  12.339  18.734  0.00  0.00    +0.000 A 
ATOM     15  C   UNL     1      -1.911  11.637  17.519  0.00  0.00    +0.000 A 
ATOM     16  C   UNL     1      -3.098  11.106  17.011  0.00  0.00    +0.000 A 
ENDBRANCH   1  14
BRANCH   6  17
ATOM     17  N   UNL     1       4.461  14.838  21.390  0.00  0.00    +0.000 N 
ATOM     18  C   UNL     1       5.630  15.426  20.702  0.00  0.00    +0.000 C 
ATOM     19  C   UNL     1       6.778  14.407  20.677  0.00  0.00    +0.000 C 
ATOM     20  O   UNL     1       7.129  13.980  22.005  0.00  0.00    +0.000 OA
ATOM     21  C   UNL     1       5.992  13.391  22.657  0.00  0.00    +0.000 C 
ATOM     22  C   UNL     1       4.819  14.379  22.751  0.00  0.00    +0.000 C 
ENDBRANCH   6  17
BRANCH   9  23
ATOM     23  C   UNL     1       0.963  11.039  19.618  0.00  0.00    +0.000 A 
ATOM     24  C   UNL     1       1.518  10.452  18.480  0.00  0.00    +0.000 A 
ATOM     25  C   UNL     1       1.846   9.098  18.461  0.00  0.00    +0.000 A 
ATOM     26  C   UNL     1       1.753   8.298  19.611  0.00  0.00    +0.000 A 
ATOM     27  C   UNL     1       1.300   8.920  20.782  0.00  0.00    +0.000 A 
ATOM     28  C   UNL     1       0.865  10.252  20.772  0.00  0.00    +0.000 A 
BRANCH  26  29
ATOM     29  C   UNL     1       2.080   6.854  19.545  0.00  0.00    +0.000 A 
ATOM     30  C   UNL     1       2.569   6.278  18.360  0.00  0.00    +0.000 A 
ATOM     31  C   UNL     1       2.751   4.902  18.235  0.00  0.00    +0.000 A 
ATOM     32  C   UNL     1       2.480   4.071  19.314  0.00  0.00    +0.000 A 
ATOM     33  C   UNL     1       2.041   4.616  20.516  0.00  0.00    +0.000 A 
ATOM     34  C   UNL     1       1.840   5.996  20.630  0.00  0.00    +0.000 A 
ENDBRANCH  26  29
ENDBRANCH   9  23
TORSDOF 4
ENDMDL
MODEL 5
REMARK VINA RESULT:      -7.5      1.336      2.048
REMARK  Name = 
REMARK  4 active torsions:
REMARK  status: ('A' for Active; 'I' for Inactive)
REMARK    1  A    between atoms: C_5  and  C_6
REMARK    2  A    between atoms: C_11  and  N_12
REMARK    3  A    between atoms: C_20  and  C_21
REMARK    4  A    between atoms: C_24  and  C_25
REMARK                            x       y       z     vdW  Elec       q    Type
REMARK                         _______ _______ _______ _____ _____    ______ ____
ROOT
ATOM      1  C   UNL     1      -0.884  13.061  19.519  0.00  0.00    +0.000 A 
ATOM      2  N   UNL     1      -0.893  14.397  19.853  0.00  0.00    +0.000 NA
ATOM      3  C   UNL     1       0.317  14.656  20.294  0.00  0.00    +0.000 A 
ATOM      4  C   UNL     1       0.878  15.849  20.814  0.00  0.00    +0.000 A 
ATOM      5  C   UNL     1       2.162  15.871  21.232  0.00  0.00    +0.000 A 
ATOM      6  C   UNL     1       3.035  14.701  21.147  0.00  0.00    +0.000 A 
ATOM      7  C   UNL     1       2.495  13.599  20.588  0.00  0.00    +0.000 A 
ATOM      8  N   UNL     1       1.149  13.551  20.203  0.00  0.00    +0.000 N 
ATOM      9  C   UNL     1       0.382  12.499  19.710  0.00  0.00    +0.000 A 
ENDROOT
BRANCH   1  14
ATOM     10  F   UNL     1      -5.587  10.837  17.464  0.00  0.00    +0.000 F 
ATOM     11  C   UNL     1      -4.449  11.323  17.976  0.00  0.00    +0.000 A 
ATOM     12  C   UNL     1      -4.465  11.949  19.217  0.00  0.00    +0.000 A 
ATOM     13  C   UNL     1      -3.283  12.495  19.731  0.00  0.00    +0.000 A 
ATOM     14  C   UNL     1      -2.083  12.403  19.008  0.00  0.00    +0.000 A 
ATOM     15  C   UNL     1      -2.083  11.701  17.793  0.00  0.00    +0.000 A 
ATOM     16  C   UNL     1      -3.269  11.193  17.259  0.00  0.00    +0.000 A 
ENDBRANCH   1  14
BRANCH   6  17
ATOM     17  N   UNL     1       4.345  14.779  21.611  0.00  0.00    +0.000 N 
ATOM     18  C   UNL     1       5.462  15.421  20.886  0.00  0.00    +0.000 C 
ATOM     19  C   UNL     1       6.612  14.418  20.722  0.00  0.00    +0.000 C 
ATOM     20  O   UNL     1       7.054  13.914  21.995  0.00  0.00    +0.000 OA
ATOM     21  C   UNL     1       5.965  13.274  22.683  0.00  0.00    +0.000 C 
ATOM     22  C   UNL     1       4.795  14.242  22.914  0.00  0.00    +0.000 C 
ENDBRANCH   6  17
BRANCH   9  23
ATOM     23  C   UNL     1       0.892  11.137  19.459  0.00  0.00    +0.000 A 
ATOM     24  C   UNL     1       0.707  10.124  20.399  0.00  0.00    +0.000 A 
ATOM     25  C   UNL     1       1.276   8.865  20.218  0.00  0.00    +0.000 A 
ATOM     26  C   UNL     1       1.950   8.522  19.034  0.00  0.00    +0.000 A 
ATOM     27  C   UNL     1       2.037   9.510  18.045  0.00  0.00    +0.000 A 
ATOM     28  C   UNL     1       1.562  10.809  18.275  0.00  0.00    +0.000 A 
BRANCH  26  29
ATOM     29  C   UNL     1       2.570   7.185  18.889  0.00  0.00    +0.000 A 
ATOM     30  C   UNL     1       2.347   6.178  19.844  0.00  0.00    +0.000 A 
ATOM     31  C   UNL     1       3.029   4.963  19.800  0.00  0.00    +0.000 A 
ATOM     32  C   UNL     1       3.927   4.714  18.771  0.00  0.00    +0.000 A 
ATOM     33  C   UNL     1       4.133   5.672  17.783  0.00  0.00    +0.000 A 
ATOM     34  C   UNL     1       3.462   6.898  17.844  0.00  0.00    +0.000 A 
ENDBRANCH  26  29
ENDBRANCH   9  23
TORSDOF 4
ENDMDL
MODEL 6
REMARK VINA RESULT:      -7.4      4.408      7.296
REMARK  Name = 
REMARK  4 active torsions:
REMARK  status: ('A' for Active; 'I' for Inactive)
REMARK    1  A    between atoms: C_5  and  C_6
REMARK    2  A    between atoms: C_11  and  N_12
REMARK    3  A    between atoms: C_20  and  C_21
REMARK    4  A    between atoms: C_24  and  C_25
REMARK                            x       y       z     vdW  Elec       q    Type
REMARK                         _______ _______ _______ _____ _____    ______ ____
ROOT
ATOM      1  C   UNL     1      -3.530  12.238  19.602  0.00  0.00    +0.000 A 
ATOM      2  N   UNL     1      -4.772  12.288  20.196  0.00  0.00    +0.000 NA
ATOM      3  C   UNL     1      -4.612  13.010  21.281  0.00  0.00    +0.000 A 
ATOM      4  C   UNL     1      -5.530  13.362  22.302  0.00  0.00    +0.000 A 
ATOM      5  C   UNL     1      -5.124  14.110  23.351  0.00  0.00    +0.000 A 
ATOM      6  C   UNL     1      -3.757  14.613  23.476  0.00  0.00    +0.000 A 
ATOM      7  C   UNL     1      -2.924  14.319  22.458  0.00  0.00    +0.000 A 
ATOM      8  N   UNL     1      -3.320  13.497  21.394  0.00  0.00    +0.000 N 
ATOM      9  C   UNL     1      -2.596  12.996  20.314  0.00  0.00    +0.000 A 
ENDROOT
BRANCH   1  14
ATOM     10  F   UNL     1      -2.581   9.645  14.738  0.00  0.00    +0.000 F 
ATOM     11  C   UNL     1      -2.833  10.222  15.919  0.00  0.00    +0.000 A 
ATOM     12  C   UNL     1      -3.962  11.020  16.069  0.00  0.00    +0.000 A 
ATOM     13  C   UNL     1      -4.200  11.658  17.292  0.00  0.00    +0.000 A 
ATOM     14  C   UNL     1      -3.314  11.488  18.367  0.00  0.00    +0.000 A 
ATOM     15  C   UNL     1      -2.223  10.620  18.209  0.00  0.00    +0.000 A 
ATOM     16  C   UNL     1      -1.961  10.016  16.978  0.00  0.00    +0.000 A 
ENDBRANCH   1  14
BRANCH   6  17
ATOM     17  N   UNL     1      -3.394  15.364  24.590  0.00  0.00    +0.000 N 
ATOM     18  C   UNL     1      -3.892  16.723  24.892  0.00  0.00    +0.000 C 
ATOM     19  C   UNL     1      -2.703  17.677  25.075  0.00  0.00    +0.000 C 
ATOM     20  O   UNL     1      -1.816  17.217  26.110  0.00  0.00    +0.000 OA
ATOM     21  C   UNL     1      -1.322  15.904  25.796  0.00  0.00    +0.000 C 
ATOM     22  C   UNL     1      -2.465  14.891  25.641  0.00  0.00    +0.000 C 
ENDBRANCH   6  17
BRANCH   9  23
ATOM     23  C   UNL     1      -1.171  13.280  20.058  0.00  0.00    +0.000 A 
ATOM     24  C   UNL     1      -0.173  12.555  20.709  0.00  0.00    +0.000 A 
ATOM     25  C   UNL     1       1.171  12.887  20.553  0.00  0.00    +0.000 A 
ATOM     26  C   UNL     1       1.588  13.874  19.645  0.00  0.00    +0.000 A 
ATOM     27  C   UNL     1       0.588  14.524  18.910  0.00  0.00    +0.000 A 
ATOM     28  C   UNL     1      -0.769  14.267  19.150  0.00  0.00    +0.000 A 
BRANCH  26  29
ATOM     29  C   UNL     1       3.023  14.222  19.529  0.00  0.00    +0.000 A 
ATOM     30  C   UNL     1       3.788  14.522  20.669  0.00  0.00    +0.000 A 
ATOM     31  C   UNL     1       5.099  14.985  20.570  0.00  0.00    +0.000 A 
ATOM     32  C   UNL     1       5.689  15.124  19.321  0.00  0.00    +0.000 A 
ATOM     33  C   UNL     1       4.973  14.788  18.176  0.00  0.00    +0.000 A 
ATOM     34  C   UNL     1       3.651  14.344  18.279  0.00  0.00    +0.000 A 
ENDBRANCH  26  29
ENDBRANCH   9  23
TORSDOF 4
ENDMDL
MODEL 7
REMARK VINA RESULT:      -7.3      1.102      1.882
REMARK  Name = 
REMARK  4 active torsions:
REMARK  status: ('A' for Active; 'I' for Inactive)
REMARK    1  A    between atoms: C_5  and  C_6
REMARK    2  A    between atoms: C_11  and  N_12
REMARK    3  A    between atoms: C_20  and  C_21
REMARK    4  A    between atoms: C_24  and  C_25
REMARK                            x       y       z     vdW  Elec       q    Type
REMARK                         _______ _______ _______ _____ _____    ______ ____
ROOT
ATOM      1  C   UNL     1      -0.662  13.117  19.266  0.00  0.00    +0.000 A 
ATOM      2  N   UNL     1      -0.603  14.489  19.374  0.00  0.00    +0.000 NA
ATOM      3  C   UNL     1       0.595  14.752  19.845  0.00  0.00    +0.000 A 
ATOM      4  C   UNL     1       1.201  15.984  20.196  0.00  0.00    +0.000 A 
ATOM      5  C   UNL     1       2.459  16.006  20.688  0.00  0.00    +0.000 A 
ATOM      6  C   UNL     1       3.258  14.794  20.855  0.00  0.00    +0.000 A 
ATOM      7  C   UNL     1       2.681  13.645  20.451  0.00  0.00    +0.000 A 
ATOM      8  N   UNL     1       1.358  13.605  19.992  0.00  0.00    +0.000 N 
ATOM      9  C   UNL     1       0.553  12.527  19.630  0.00  0.00    +0.000 A 
ENDROOT
BRANCH   1  14
ATOM     10  F   UNL     1      -5.168  10.271  17.573  0.00  0.00    +0.000 F 
ATOM     11  C   UNL     1      -4.108  10.994  17.954  0.00  0.00    +0.000 A 
ATOM     12  C   UNL     1      -2.944  10.960  17.195  0.00  0.00    +0.000 A 
ATOM     13  C   UNL     1      -1.822  11.682  17.618  0.00  0.00    +0.000 A 
ATOM     14  C   UNL     1      -1.871  12.448  18.794  0.00  0.00    +0.000 A 
ATOM     15  C   UNL     1      -3.082  12.522  19.498  0.00  0.00    +0.000 A 
ATOM     16  C   UNL     1      -4.188  11.769  19.102  0.00  0.00    +0.000 A 
ENDBRANCH   1  14
BRANCH   6  17
ATOM     17  N   UNL     1       4.543  14.878  21.385  0.00  0.00    +0.000 N 
ATOM     18  C   UNL     1       5.696  15.511  20.709  0.00  0.00    +0.000 C 
ATOM     19  C   UNL     1       6.852  14.505  20.618  0.00  0.00    +0.000 C 
ATOM     20  O   UNL     1       7.228  14.019  21.918  0.00  0.00    +0.000 OA
ATOM     21  C   UNL     1       6.105  13.387  22.557  0.00  0.00    +0.000 C 
ATOM     22  C   UNL     1       4.925  14.357  22.716  0.00  0.00    +0.000 C 
ENDBRANCH   6  17
BRANCH   9  23
ATOM     23  C   UNL     1       0.988  11.118  19.642  0.00  0.00    +0.000 A 
ATOM     24  C   UNL     1       1.573  10.544  18.513  0.00  0.00    +0.000 A 
ATOM     25  C   UNL     1       1.889   9.187  18.482  0.00  0.00    +0.000 A 
ATOM     26  C   UNL     1       1.753   8.370  19.616  0.00  0.00    +0.000 A 
ATOM     27  C   UNL     1       1.270   8.978  20.782  0.00  0.00    +0.000 A 
ATOM     28  C   UNL     1       0.847  10.314  20.780  0.00  0.00    +0.000 A 
BRANCH  26  29
ATOM     29  C   UNL     1       2.069   6.925  19.537  0.00  0.00    +0.000 A 
ATOM     30  C   UNL     1       1.716   6.050  20.579  0.00  0.00    +0.000 A 
ATOM     31  C   UNL     1       2.126   4.718  20.587  0.00  0.00    +0.000 A 
ATOM     32  C   UNL     1       2.871   4.220  19.526  0.00  0.00    +0.000 A 
ATOM     33  C   UNL     1       3.194   5.048  18.456  0.00  0.00    +0.000 A 
ATOM     34  C   UNL     1       2.799   6.390  18.463  0.00  0.00    +0.000 A 
ENDBRANCH  26  29
ENDBRANCH   9  23
TORSDOF 4
ENDMDL
MODEL 8
REMARK VINA RESULT:      -7.3      0.854      1.495
REMARK  Name = 
REMARK  4 active torsions:
REMARK  status: ('A' for Active; 'I' for Inactive)
REMARK    1  A    between atoms: C_5  and  C_6
REMARK    2  A    between atoms: C_11  and  N_12
REMARK    3  A    between atoms: C_20  and  C_21
REMARK    4  A    between atoms: C_24  and  C_25
REMARK                            x       y       z     vdW  Elec       q    Type
REMARK                         _______ _______ _______ _____ _____    ______ ____
ROOT
ATOM      1  C   UNL     1      -0.515  13.367  18.904  0.00  0.00    +0.000 A 
ATOM      2  N   UNL     1      -0.410  14.739  18.853  0.00  0.00    +0.000 NA
ATOM      3  C   UNL     1       0.878  14.993  18.849  0.00  0.00    +0.000 A 
ATOM      4  C   UNL     1       1.579  16.225  18.848  0.00  0.00    +0.000 A 
ATOM      5  C   UNL     1       2.930  16.237  18.866  0.00  0.00    +0.000 A 
ATOM      6  C   UNL     1       3.727  15.012  18.858  0.00  0.00    +0.000 A 
ATOM      7  C   UNL     1       3.035  13.857  18.792  0.00  0.00    +0.000 A 
ATOM      8  N   UNL     1       1.635  13.832  18.829  0.00  0.00    +0.000 N 
ATOM      9  C   UNL     1       0.745  12.761  18.875  0.00  0.00    +0.000 A 
ENDROOT
BRANCH   1  14
ATOM     10  F   UNL     1      -5.642  11.134  18.967  0.00  0.00    +0.000 F 
ATOM     11  C   UNL     1      -4.397  11.625  18.974  0.00  0.00    +0.000 A 
ATOM     12  C   UNL     1      -3.988  12.448  20.017  0.00  0.00    +0.000 A 
ATOM     13  C   UNL     1      -2.701  12.997  20.002  0.00  0.00    +0.000 A 
ATOM     14  C   UNL     1      -1.818  12.710  18.948  0.00  0.00    +0.000 A 
ATOM     15  C   UNL     1      -2.233  11.817  17.948  0.00  0.00    +0.000 A 
ATOM     16  C   UNL     1      -3.530  11.304  17.940  0.00  0.00    +0.000 A 
ENDBRANCH   1  14
BRANCH   6  17
ATOM     17  N   UNL     1       5.116  15.089  18.896  0.00  0.00    +0.000 N 
ATOM     18  C   UNL     1       6.005  14.913  17.727  0.00  0.00    +0.000 C 
ATOM     19  C   UNL     1       7.031  13.810  18.024  0.00  0.00    +0.000 C 
ATOM     20  O   UNL     1       7.796  14.110  19.205  0.00  0.00    +0.000 OA
ATOM     21  C   UNL     1       6.924  14.258  20.339  0.00  0.00    +0.000 C 
ATOM     22  C   UNL     1       5.897  15.378  20.120  0.00  0.00    +0.000 C 
ENDBRANCH   6  17
BRANCH   9  23
ATOM     23  C   UNL     1       1.145  11.341  18.868  0.00  0.00    +0.000 A 
ATOM     24  C   UNL     1       0.755  10.487  19.900  0.00  0.00    +0.000 A 
ATOM     25  C   UNL     1       1.215   9.174  19.955  0.00  0.00    +0.000 A 
ATOM     26  C   UNL     1       1.983   8.615  18.920  0.00  0.00    +0.000 A 
ATOM     27  C   UNL     1       2.279   9.445  17.831  0.00  0.00    +0.000 A 
ATOM     28  C   UNL     1       1.911  10.797  17.830  0.00  0.00    +0.000 A 
BRANCH  26  29
ATOM     29  C   UNL     1       2.482   7.224  19.028  0.00  0.00    +0.000 A 
ATOM     30  C   UNL     1       3.246   6.649  17.997  0.00  0.00    +0.000 A 
ATOM     31  C   UNL     1       3.605   5.303  18.017  0.00  0.00    +0.000 A 
ATOM     32  C   UNL     1       3.238   4.507  19.093  0.00  0.00    +0.000 A 
ATOM     33  C   UNL     1       2.524   5.059  20.152  0.00  0.00    +0.000 A 
ATOM     34  C   UNL     1       2.147   6.405  20.118  0.00  0.00    +0.000 A 
ENDBRANCH  26  29
ENDBRANCH   9  23
TORSDOF 4
ENDMDL
MODEL 9
REMARK VINA RESULT:      -7.3      1.369      2.069
REMARK  Name = 
REMARK  4 active torsions:
REMARK  status: ('A' for Active; 'I' for Inactive)
REMARK    1  A    between atoms: C_5  and  C_6
REMARK    2  A    between atoms: C_11  and  N_12
REMARK    3  A    between atoms: C_20  and  C_21
REMARK    4  A    between atoms: C_24  and  C_25
REMARK                            x       y       z     vdW  Elec       q    Type
REMARK                         _______ _______ _______ _____ _____    ______ ____
ROOT
ATOM      1  C   UNL     1      -0.831  13.232  19.657  0.00  0.00    +0.000 A 
ATOM      2  N   UNL     1      -0.788  14.572  19.971  0.00  0.00    +0.000 NA
ATOM      3  C   UNL     1       0.429  14.790  20.414  0.00  0.00    +0.000 A 
ATOM      4  C   UNL     1       1.033  15.969  20.918  0.00  0.00    +0.000 A 
ATOM      5  C   UNL     1       2.315  15.946  21.343  0.00  0.00    +0.000 A 
ATOM      6  C   UNL     1       3.142  14.742  21.282  0.00  0.00    +0.000 A 
ATOM      7  C   UNL     1       2.562  13.653  20.737  0.00  0.00    +0.000 A 
ATOM      8  N   UNL     1       1.217  13.652  20.345  0.00  0.00    +0.000 N 
ATOM      9  C   UNL     1       0.411  12.623  19.864  0.00  0.00    +0.000 A 
ENDROOT
BRANCH   1  14
ATOM     10  F   UNL     1      -5.398  10.572  17.826  0.00  0.00    +0.000 F 
ATOM     11  C   UNL     1      -4.322  11.253  18.240  0.00  0.00    +0.000 A 
ATOM     12  C   UNL     1      -3.147  11.201  17.498  0.00  0.00    +0.000 A 
ATOM     13  C   UNL     1      -2.010  11.877  17.956  0.00  0.00    +0.000 A 
ATOM     14  C   UNL     1      -2.053  12.613  19.150  0.00  0.00    +0.000 A 
ATOM     15  C   UNL     1      -3.272  12.707  19.839  0.00  0.00    +0.000 A 
ATOM     16  C   UNL     1      -4.395  11.999  19.407  0.00  0.00    +0.000 A 
ENDBRANCH   1  14
BRANCH   6  17
ATOM     17  N   UNL     1       4.451  14.776  21.752  0.00  0.00    +0.000 N 
ATOM     18  C   UNL     1       5.577  15.452  21.072  0.00  0.00    +0.000 C 
ATOM     19  C   UNL     1       6.717  14.449  20.845  0.00  0.00    +0.000 C 
ATOM     20  O   UNL     1       7.150  13.859  22.083  0.00  0.00    +0.000 OA
ATOM     21  C   UNL     1       6.054  13.186  22.725  0.00  0.00    +0.000 C 
ATOM     22  C   UNL     1       4.893  14.149  23.018  0.00  0.00    +0.000 C 
ENDBRANCH   6  17
BRANCH   9  23
ATOM     23  C   UNL     1       0.869  11.239  19.638  0.00  0.00    +0.000 A 
ATOM     24  C   UNL     1       0.647  10.251  20.597  0.00  0.00    +0.000 A 
ATOM     25  C   UNL     1       1.168   8.968  20.437  0.00  0.00    +0.000 A 
ATOM     26  C   UNL     1       1.824   8.578  19.259  0.00  0.00    +0.000 A 
ATOM     27  C   UNL     1       1.946   9.544  18.251  0.00  0.00    +0.000 A 
ATOM     28  C   UNL     1       1.522  10.863  18.458  0.00  0.00    +0.000 A 
BRANCH  26  29
ATOM     29  C   UNL     1       2.393   7.215  19.137  0.00  0.00    +0.000 A 
ATOM     30  C   UNL     1       3.148   6.846  18.011  0.00  0.00    +0.000 A 
ATOM     31  C   UNL     1       3.573   5.534  17.813  0.00  0.00    +0.000 A 
ATOM     32  C   UNL     1       3.280   4.564  18.762  0.00  0.00    +0.000 A 
ATOM     33  C   UNL     1       2.577   4.909  19.912  0.00  0.00    +0.000 A 
ATOM     34  C   UNL     1       2.134   6.223  20.096  0.00  0.00    +0.000 A 
ENDBRANCH  26  29
ENDBRANCH   9  23
TORSDOF 4
ENDMDL
