MODEL 1
REMARK VINA RESULT:      -9.8      0.000      0.000
REMARK  Name = 
REMARK  5 active torsions:
REMARK  status: ('A' for Active; 'I' for Inactive)
REMARK    1  A    between atoms: C_1  and  O_2
REMARK    2  A    between atoms: O_2  and  C_3
REMARK    3  A    between atoms: C_10  and  N_11
REMARK    4  A    between atoms: C_18  and  N_19
REMARK    5  A    between atoms: C_20  and  C_22
REMARK                            x       y       z     vdW  Elec       q    Type
REMARK                         _______ _______ _______ _____ _____    ______ ____
ROOT
ATOM      1  N   UNL     1       2.425   7.062  18.604  0.00  0.00    +0.000 N 
ATOM      2  C   UNL     1       1.819   7.368  19.806  0.00  0.00    +0.000 A 
ATOM      3  C   UNL     1       1.574   8.721  19.795  0.00  0.00    +0.000 A 
ATOM      4  C   UNL     1       2.021   9.148  18.545  0.00  0.00    +0.000 A 
ATOM      5  N   UNL     1       2.567   8.165  17.836  0.00  0.00    +0.000 NA
ATOM      6  C   UNL     1       1.897  10.510  18.002  0.00  0.00    +0.000 C 
ATOM      7  C   UNL     1       1.247  11.510  18.962  0.00  0.00    +0.000 C 
ATOM      8  C   UNL     1       0.717  11.043  20.345  0.00  0.00    +0.000 C 
ATOM      9  C   UNL     1       0.983   9.596  20.825  0.00  0.00    +0.000 C 
ENDROOT
BRANCH   1  17
ATOM     10  C   UNL     1       6.264   6.125  16.688  0.00  0.00    +0.000 A 
ATOM     11  C   UNL     1       6.422   4.832  16.200  0.00  0.00    +0.000 A 
ATOM     12  C   UNL     1       5.383   3.907  16.337  0.00  0.00    +0.000 A 
ATOM     13  C   UNL     1       4.185   4.227  16.956  0.00  0.00    +0.000 A 
ATOM     14  N   UNL     1       3.265   3.256  17.071  0.00  0.00    +0.000 NA
ATOM     15  C   UNL     1       2.119   3.526  17.725  0.00  0.00    +0.000 A 
ATOM     16  C   UNL     1       1.829   4.752  18.279  0.00  0.00    +0.000 A 
ATOM     17  C   UNL     1       2.765   5.776  18.121  0.00  0.00    +0.000 A 
ATOM     18  C   UNL     1       4.002   5.531  17.459  0.00  0.00    +0.000 A 
ATOM     19  C   UNL     1       5.076   6.457  17.325  0.00  0.00    +0.000 A 
BRANCH  10  21
ATOM     20  C   UNL     1       7.815   7.426  17.885  0.00  0.00    +0.000 C 
ATOM     21  O   UNL     1       7.209   7.105  16.639  0.00  0.00    +0.000 OA
ENDBRANCH  10  21
ENDBRANCH   1  17
BRANCH   8  22
ATOM     22  N   UNL     1      -0.709  11.359  20.450  0.00  0.00    +0.000 N 
ATOM     23  C   UNL     1      -1.176  12.344  21.296  0.00  0.00    +0.000 C 
ATOM     24  O   UNL     1      -0.458  13.045  21.996  0.00  0.00    +0.000 OA
ATOM     25  H   UNL     1      -1.355  10.862  19.853  0.00  0.00    +0.000 HD
BRANCH  23  26
ATOM     26  C   UNL     1      -2.644  12.555  21.272  0.00  0.00    +0.000 A 
ATOM     27  C   UNL     1      -3.376  12.654  22.462  0.00  0.00    +0.000 A 
ATOM     28  C   UNL     1      -4.763  12.763  22.418  0.00  0.00    +0.000 A 
ATOM     29  C   UNL     1      -5.428  12.759  21.189  0.00  0.00    +0.000 A 
ATOM     30  C   UNL     1      -4.690  12.691  19.994  0.00  0.00    +0.000 A 
ATOM     31  C   UNL     1      -3.296  12.620  20.036  0.00  0.00    +0.000 A 
ATOM     32  N   UNL     1      -5.315  12.700  18.737  0.00  0.00    +0.000 N 
ATOM     33  C   UNL     1      -6.652  12.491  18.508  0.00  0.00    +0.000 C 
ATOM     34  O   UNL     1      -7.100  12.590  17.366  0.00  0.00    +0.000 OA
ATOM     35  C   UNL     1      -7.493  11.976  19.655  0.00  0.00    +0.000 C 
ATOM     36  S   UNL     1      -7.202  12.891  21.183  0.00  0.00    +0.000 S 
ATOM     37  H   UNL     1      -4.762  12.869  17.904  0.00  0.00    +0.000 HD
ENDBRANCH  23  26
ENDBRANCH   8  22
TORSDOF 4
ENDMDL
MODEL 2
REMARK VINA RESULT:      -9.7      1.023      1.135
REMARK  Name = 
REMARK  5 active torsions:
REMARK  status: ('A' for Active; 'I' for Inactive)
REMARK    1  A    between atoms: C_1  and  O_2
REMARK    2  A    between atoms: O_2  and  C_3
REMARK    3  A    between atoms: C_10  and  N_11
REMARK    4  A    between atoms: C_18  and  N_19
REMARK    5  A    between atoms: C_20  and  C_22
REMARK                            x       y       z     vdW  Elec       q    Type
REMARK                         _______ _______ _______ _____ _____    ______ ____
ROOT
ATOM      1  N   UNL     1       2.146   6.867  19.175  0.00  0.00    +0.000 N 
ATOM      2  C   UNL     1       1.774   7.221  20.457  0.00  0.00    +0.000 A 
ATOM      3  C   UNL     1       1.504   8.568  20.435  0.00  0.00    +0.000 A 
ATOM      4  C   UNL     1       1.695   8.944  19.105  0.00  0.00    +0.000 A 
ATOM      5  N   UNL     1       2.116   7.937  18.347  0.00  0.00    +0.000 NA
ATOM      6  C   UNL     1       1.441  10.278  18.540  0.00  0.00    +0.000 C 
ATOM      7  C   UNL     1       0.966  11.312  19.563  0.00  0.00    +0.000 C 
ATOM      8  C   UNL     1       0.720  10.902  21.041  0.00  0.00    +0.000 C 
ATOM      9  C   UNL     1       1.102   9.482  21.521  0.00  0.00    +0.000 C 
ENDROOT
BRANCH   1  17
ATOM     10  C   UNL     1       5.611   5.876  16.665  0.00  0.00    +0.000 A 
ATOM     11  C   UNL     1       5.699   4.566  16.208  0.00  0.00    +0.000 A 
ATOM     12  C   UNL     1       4.711   3.641  16.556  0.00  0.00    +0.000 A 
ATOM     13  C   UNL     1       3.632   3.979  17.359  0.00  0.00    +0.000 A 
ATOM     14  N   UNL     1       2.757   3.008  17.668  0.00  0.00    +0.000 NA
ATOM     15  C   UNL     1       1.737   3.298  18.497  0.00  0.00    +0.000 A 
ATOM     16  C   UNL     1       1.531   4.544  19.046  0.00  0.00    +0.000 A 
ATOM     17  C   UNL     1       2.414   5.566  18.689  0.00  0.00    +0.000 A 
ATOM     18  C   UNL     1       3.522   5.301  17.836  0.00  0.00    +0.000 A 
ATOM     19  C   UNL     1       4.546   6.226  17.483  0.00  0.00    +0.000 A 
BRANCH  10  21
ATOM     20  C   UNL     1       7.423   7.132  17.482  0.00  0.00    +0.000 C 
ATOM     21  O   UNL     1       6.522   6.858  16.417  0.00  0.00    +0.000 OA
ENDBRANCH  10  21
ENDBRANCH   1  17
BRANCH   8  22
ATOM     22  N   UNL     1      -0.665  11.205  21.404  0.00  0.00    +0.000 N 
ATOM     23  C   UNL     1      -1.000  12.334  22.124  0.00  0.00    +0.000 C 
ATOM     24  O   UNL     1      -0.193  13.178  22.490  0.00  0.00    +0.000 OA
ATOM     25  H   UNL     1      -1.393  10.584  21.079  0.00  0.00    +0.000 HD
BRANCH  23  26
ATOM     26  C   UNL     1      -2.448  12.507  22.395  0.00  0.00    +0.000 A 
ATOM     27  C   UNL     1      -2.938  12.521  23.706  0.00  0.00    +0.000 A 
ATOM     28  C   UNL     1      -4.309  12.596  23.935  0.00  0.00    +0.000 A 
ATOM     29  C   UNL     1      -5.198  12.642  22.859  0.00  0.00    +0.000 A 
ATOM     30  C   UNL     1      -4.704  12.658  21.542  0.00  0.00    +0.000 A 
ATOM     31  C   UNL     1      -3.327  12.622  21.312  0.00  0.00    +0.000 A 
ATOM     32  N   UNL     1      -5.559  12.719  20.431  0.00  0.00    +0.000 N 
ATOM     33  C   UNL     1      -6.912  12.488  20.451  0.00  0.00    +0.000 C 
ATOM     34  O   UNL     1      -7.573  12.636  19.424  0.00  0.00    +0.000 OA
ATOM     35  C   UNL     1      -7.508  11.888  21.705  0.00  0.00    +0.000 C 
ATOM     36  S   UNL     1      -6.942  12.726  23.201  0.00  0.00    +0.000 S 
ATOM     37  H   UNL     1      -5.181  12.948  19.519  0.00  0.00    +0.000 HD
ENDBRANCH  23  26
ENDBRANCH   8  22
TORSDOF 4
ENDMDL
MODEL 3
REMARK VINA RESULT:      -9.6      1.617      1.986
REMARK  Name = 
REMARK  5 active torsions:
REMARK  status: ('A' for Active; 'I' for Inactive)
REMARK    1  A    between atoms: C_1  and  O_2
REMARK    2  A    between atoms: O_2  and  C_3
REMARK    3  A    between atoms: C_10  and  N_11
REMARK    4  A    between atoms: C_18  and  N_19
REMARK    5  A    between atoms: C_20  and  C_22
REMARK                            x       y       z     vdW  Elec       q    Type
REMARK                         _______ _______ _______ _____ _____    ______ ____
ROOT
ATOM      1  N   UNL     1       2.483   7.003  18.649  0.00  0.00    +0.000 N 
ATOM      2  C   UNL     1       1.826   7.281  19.831  0.00  0.00    +0.000 A 
ATOM      3  C   UNL     1       1.509   8.619  19.804  0.00  0.00    +0.000 A 
ATOM      4  C   UNL     1       1.969   9.064  18.564  0.00  0.00    +0.000 A 
ATOM      5  N   UNL     1       2.588   8.109  17.878  0.00  0.00    +0.000 NA
ATOM      6  C   UNL     1       1.786  10.415  18.010  0.00  0.00    +0.000 C 
ATOM      7  C   UNL     1       1.055  11.382  18.945  0.00  0.00    +0.000 C 
ATOM      8  C   UNL     1       0.511  10.893  20.314  0.00  0.00    +0.000 C 
ATOM      9  C   UNL     1       0.841   9.465  20.811  0.00  0.00    +0.000 C 
ENDROOT
BRANCH   1  17
ATOM     10  C   UNL     1       6.371   6.295  16.734  0.00  0.00    +0.000 A 
ATOM     11  C   UNL     1       6.614   5.008  16.265  0.00  0.00    +0.000 A 
ATOM     12  C   UNL     1       5.640   4.018  16.419  0.00  0.00    +0.000 A 
ATOM     13  C   UNL     1       4.424   4.267  17.037  0.00  0.00    +0.000 A 
ATOM     14  N   UNL     1       3.571   3.239  17.170  0.00  0.00    +0.000 NA
ATOM     15  C   UNL     1       2.411   3.442  17.823  0.00  0.00    +0.000 A 
ATOM     16  C   UNL     1       2.041   4.655  18.360  0.00  0.00    +0.000 A 
ATOM     17  C   UNL     1       2.907   5.736  18.183  0.00  0.00    +0.000 A 
ATOM     18  C   UNL     1       4.155   5.564  17.522  0.00  0.00    +0.000 A 
ATOM     19  C   UNL     1       5.166   6.556  17.370  0.00  0.00    +0.000 A 
BRANCH  10  21
ATOM     20  C   UNL     1       7.835   7.714  17.906  0.00  0.00    +0.000 C 
ATOM     21  O   UNL     1       7.249   7.335  16.667  0.00  0.00    +0.000 OA
ENDBRANCH  10  21
ENDBRANCH   1  17
BRANCH   8  22
ATOM     22  N   UNL     1      -0.933  11.131  20.376  0.00  0.00    +0.000 N 
ATOM     23  C   UNL     1      -1.457  12.307  20.873  0.00  0.00    +0.000 C 
ATOM     24  O   UNL     1      -0.779  13.246  21.271  0.00  0.00    +0.000 OA
ATOM     25  H   UNL     1      -1.552  10.424  20.005  0.00  0.00    +0.000 HD
BRANCH  23  26
ATOM     26  C   UNL     1      -2.937  12.401  20.850  0.00  0.00    +0.000 A 
ATOM     27  C   UNL     1      -3.632  12.493  19.638  0.00  0.00    +0.000 A 
ATOM     28  C   UNL     1      -5.013  12.670  19.641  0.00  0.00    +0.000 A 
ATOM     29  C   UNL     1      -5.704  12.772  20.851  0.00  0.00    +0.000 A 
ATOM     30  C   UNL     1      -5.010  12.649  22.067  0.00  0.00    +0.000 A 
ATOM     31  C   UNL     1      -3.630  12.434  22.065  0.00  0.00    +0.000 A 
ATOM     32  N   UNL     1      -5.665  12.729  23.306  0.00  0.00    +0.000 N 
ATOM     33  C   UNL     1      -6.938  13.202  23.506  0.00  0.00    +0.000 C 
ATOM     34  O   UNL     1      -7.435  13.162  24.631  0.00  0.00    +0.000 OA
ATOM     35  C   UNL     1      -7.616  13.915  22.358  0.00  0.00    +0.000 C 
ATOM     36  S   UNL     1      -7.467  13.008  20.804  0.00  0.00    +0.000 S 
ATOM     37  H   UNL     1      -5.188  12.425  24.146  0.00  0.00    +0.000 HD
ENDBRANCH  23  26
ENDBRANCH   8  22
TORSDOF 4
ENDMDL
MODEL 4
REMARK VINA RESULT:      -9.5      3.627     10.903
REMARK  Name = 
REMARK  5 active torsions:
REMARK  status: ('A' for Active; 'I' for Inactive)
REMARK    1  A    between atoms: C_1  and  O_2
REMARK    2  A    between atoms: O_2  and  C_3
REMARK    3  A    between atoms: C_10  and  N_11
REMARK    4  A    between atoms: C_18  and  N_19
REMARK    5  A    between atoms: C_20  and  C_22
REMARK                            x       y       z     vdW  Elec       q    Type
REMARK                         _______ _______ _______ _____ _____    ______ ____
ROOT
ATOM      1  N   UNL     1      -3.442  11.834  19.103  0.00  0.00    +0.000 N 
ATOM      2  C   UNL     1      -2.662  11.220  18.143  0.00  0.00    +0.000 A 
ATOM      3  C   UNL     1      -1.399  11.101  18.674  0.00  0.00    +0.000 A 
ATOM      4  C   UNL     1      -1.509  11.625  19.963  0.00  0.00    +0.000 A 
ATOM      5  N   UNL     1      -2.724  12.101  20.217  0.00  0.00    +0.000 NA
ATOM      6  C   UNL     1      -0.448  11.643  20.981  0.00  0.00    +0.000 C 
ATOM      7  C   UNL     1       0.885  11.057  20.507  0.00  0.00    +0.000 C 
ATOM      8  C   UNL     1       1.014  10.442  19.087  0.00  0.00    +0.000 C 
ATOM      9  C   UNL     1      -0.160  10.559  18.086  0.00  0.00    +0.000 C 
ENDROOT
BRANCH   1  17
ATOM     10  C   UNL     1      -5.843  13.007  22.587  0.00  0.00    +0.000 A 
ATOM     11  C   UNL     1      -7.214  13.135  22.390  0.00  0.00    +0.000 A 
ATOM     12  C   UNL     1      -7.758  12.893  21.126  0.00  0.00    +0.000 A 
ATOM     13  C   UNL     1      -6.975  12.533  20.040  0.00  0.00    +0.000 A 
ATOM     14  N   UNL     1      -7.590  12.360  18.859  0.00  0.00    +0.000 NA
ATOM     15  C   UNL     1      -6.841  12.073  17.777  0.00  0.00    +0.000 A 
ATOM     16  C   UNL     1      -5.472  11.936  17.812  0.00  0.00    +0.000 A 
ATOM     17  C   UNL     1      -4.836  12.071  19.049  0.00  0.00    +0.000 A 
ATOM     18  C   UNL     1      -5.582  12.399  20.215  0.00  0.00    +0.000 A 
ATOM     19  C   UNL     1      -5.043  12.664  21.507  0.00  0.00    +0.000 A 
BRANCH  10  21
ATOM     20  C   UNL     1      -3.912  12.634  23.877  0.00  0.00    +0.000 C 
ATOM     21  O   UNL     1      -5.193  13.242  23.762  0.00  0.00    +0.000 OA
ENDBRANCH  10  21
ENDBRANCH   1  17
BRANCH   8  22
ATOM     22  N   UNL     1       1.449   9.049  19.199  0.00  0.00    +0.000 N 
ATOM     23  C   UNL     1       2.234   8.451  18.235  0.00  0.00    +0.000 C 
ATOM     24  O   UNL     1       2.652   9.025  17.238  0.00  0.00    +0.000 OA
ATOM     25  H   UNL     1       1.194   8.532  20.029  0.00  0.00    +0.000 HD
BRANCH  23  26
ATOM     26  C   UNL     1       2.606   7.040  18.504  0.00  0.00    +0.000 A 
ATOM     27  C   UNL     1       3.387   6.317  17.596  0.00  0.00    +0.000 A 
ATOM     28  C   UNL     1       3.650   4.968  17.825  0.00  0.00    +0.000 A 
ATOM     29  C   UNL     1       3.124   4.333  18.952  0.00  0.00    +0.000 A 
ATOM     30  C   UNL     1       2.365   5.068  19.880  0.00  0.00    +0.000 A 
ATOM     31  C   UNL     1       2.132   6.429  19.671  0.00  0.00    +0.000 A 
ATOM     32  N   UNL     1       1.830   4.476  21.034  0.00  0.00    +0.000 N 
ATOM     33  C   UNL     1       1.721   3.127  21.262  0.00  0.00    +0.000 C 
ATOM     34  O   UNL     1       1.295   2.721  22.343  0.00  0.00    +0.000 OA
ATOM     35  C   UNL     1       1.971   2.191  20.100  0.00  0.00    +0.000 C 
ATOM     36  S   UNL     1       3.478   2.608  19.197  0.00  0.00    +0.000 S 
ATOM     37  H   UNL     1       1.480   5.062  21.783  0.00  0.00    +0.000 HD
ENDBRANCH  23  26
ENDBRANCH   8  22
TORSDOF 4
ENDMDL
MODEL 5
REMARK VINA RESULT:      -9.3      1.306      1.632
REMARK  Name = 
REMARK  5 active torsions:
REMARK  status: ('A' for Active; 'I' for Inactive)
REMARK    1  A    between atoms: C_1  and  O_2
REMARK    2  A    between atoms: O_2  and  C_3
REMARK    3  A    between atoms: C_10  and  N_11
REMARK    4  A    between atoms: C_18  and  N_19
REMARK    5  A    between atoms: C_20  and  C_22
REMARK                            x       y       z     vdW  Elec       q    Type
REMARK                         _______ _______ _______ _____ _____    ______ ____
ROOT
ATOM      1  N   UNL     1       1.918   6.648  19.947  0.00  0.00    +0.000 N 
ATOM      2  C   UNL     1       1.441   7.293  21.070  0.00  0.00    +0.000 A 
ATOM      3  C   UNL     1       1.280   8.615  20.731  0.00  0.00    +0.000 A 
ATOM      4  C   UNL     1       1.639   8.679  19.384  0.00  0.00    +0.000 A 
ATOM      5  N   UNL     1       2.058   7.509  18.913  0.00  0.00    +0.000 NA
ATOM      6  C   UNL     1       1.550   9.868  18.522  0.00  0.00    +0.000 C 
ATOM      7  C   UNL     1       1.051  11.125  19.239  0.00  0.00    +0.000 C 
ATOM      8  C   UNL     1       0.619  11.063  20.729  0.00  0.00    +0.000 C 
ATOM      9  C   UNL     1       0.838   9.765  21.542  0.00  0.00    +0.000 C 
ENDROOT
BRANCH   1  17
ATOM     10  C   UNL     1       4.519   4.940  16.848  0.00  0.00    +0.000 A 
ATOM     11  C   UNL     1       4.575   3.553  16.771  0.00  0.00    +0.000 A 
ATOM     12  C   UNL     1       3.823   2.778  17.658  0.00  0.00    +0.000 A 
ATOM     13  C   UNL     1       3.017   3.344  18.634  0.00  0.00    +0.000 A 
ATOM     14  N   UNL     1       2.364   2.512  19.462  0.00  0.00    +0.000 NA
ATOM     15  C   UNL     1       1.626   3.039  20.457  0.00  0.00    +0.000 A 
ATOM     16  C   UNL     1       1.493   4.392  20.673  0.00  0.00    +0.000 A 
ATOM     17  C   UNL     1       2.134   5.259  19.785  0.00  0.00    +0.000 A 
ATOM     18  C   UNL     1       2.946   4.748  18.733  0.00  0.00    +0.000 A 
ATOM     19  C   UNL     1       3.730   5.522  17.830  0.00  0.00    +0.000 A 
BRANCH  10  21
ATOM     20  C   UNL     1       6.151   5.188  15.173  0.00  0.00    +0.000 C 
ATOM     21  O   UNL     1       5.224   5.800  16.060  0.00  0.00    +0.000 OA
ENDBRANCH  10  21
ENDBRANCH   1  17
BRANCH   8  22
ATOM     22  N   UNL     1      -0.769  11.511  20.851  0.00  0.00    +0.000 N 
ATOM     23  C   UNL     1      -1.221  12.192  21.963  0.00  0.00    +0.000 C 
ATOM     24  O   UNL     1      -0.512  12.501  22.912  0.00  0.00    +0.000 OA
ATOM     25  H   UNL     1      -1.396  11.347  20.075  0.00  0.00    +0.000 HD
BRANCH  23  26
ATOM     26  C   UNL     1      -2.648  12.594  21.925  0.00  0.00    +0.000 A 
ATOM     27  C   UNL     1      -3.434  12.564  23.082  0.00  0.00    +0.000 A 
ATOM     28  C   UNL     1      -4.793  12.860  23.007  0.00  0.00    +0.000 A 
ATOM     29  C   UNL     1      -5.376  13.171  21.776  0.00  0.00    +0.000 A 
ATOM     30  C   UNL     1      -4.579  13.231  20.619  0.00  0.00    +0.000 A 
ATOM     31  C   UNL     1      -3.209  12.972  20.700  0.00  0.00    +0.000 A 
ATOM     32  N   UNL     1      -5.118  13.555  19.365  0.00  0.00    +0.000 N 
ATOM     33  C   UNL     1      -6.454  13.569  19.050  0.00  0.00    +0.000 C 
ATOM     34  O   UNL     1      -6.815  13.936  17.931  0.00  0.00    +0.000 OA
ATOM     35  C   UNL     1      -7.421  12.963  20.042  0.00  0.00    +0.000 C 
ATOM     36  S   UNL     1      -7.117  13.532  21.729  0.00  0.00    +0.000 S 
ATOM     37  H   UNL     1      -4.499  13.802  18.602  0.00  0.00    +0.000 HD
ENDBRANCH  23  26
ENDBRANCH   8  22
TORSDOF 4
ENDMDL
MODEL 6
REMARK VINA RESULT:      -9.1      1.554      1.934
REMARK  Name = 
REMARK  5 active torsions:
REMARK  status: ('A' for Active; 'I' for Inactive)
REMARK    1  A    between atoms: C_1  and  O_2
REMARK    2  A    between atoms: O_2  and  C_3
REMARK    3  A    between atoms: C_10  and  N_11
REMARK    4  A    between atoms: C_18  and  N_19
REMARK    5  A    between atoms: C_20  and  C_22
REMARK                            x       y       z     vdW  Elec       q    Type
REMARK                         _______ _______ _______ _____ _____    ______ ____
ROOT
ATOM      1  N   UNL     1       1.802   6.886  19.937  0.00  0.00    +0.000 N 
ATOM      2  C   UNL     1       1.505   7.531  21.121  0.00  0.00    +0.000 A 
ATOM      3  C   UNL     1       1.288   8.852  20.811  0.00  0.00    +0.000 A 
ATOM      4  C   UNL     1       1.431   8.916  19.425  0.00  0.00    +0.000 A 
ATOM      5  N   UNL     1       1.775   7.747  18.894  0.00  0.00    +0.000 NA
ATOM      6  C   UNL     1       1.204  10.104  18.587  0.00  0.00    +0.000 C 
ATOM      7  C   UNL     1       0.819  11.360  19.373  0.00  0.00    +0.000 C 
ATOM      8  C   UNL     1       0.626  11.298  20.912  0.00  0.00    +0.000 C 
ATOM      9  C   UNL     1       0.974  10.001  21.682  0.00  0.00    +0.000 C 
ENDROOT
BRANCH   1  17
ATOM     10  C   UNL     1       4.674   5.210  17.069  0.00  0.00    +0.000 A 
ATOM     11  C   UNL     1       4.698   3.825  16.942  0.00  0.00    +0.000 A 
ATOM     12  C   UNL     1       3.833   3.043  17.712  0.00  0.00    +0.000 A 
ATOM     13  C   UNL     1       2.942   3.599  18.618  0.00  0.00    +0.000 A 
ATOM     14  N   UNL     1       2.181   2.758  19.337  0.00  0.00    +0.000 NA
ATOM     15  C   UNL     1       1.354   3.273  20.268  0.00  0.00    +0.000 A 
ATOM     16  C   UNL     1       1.237   4.620  20.522  0.00  0.00    +0.000 A 
ATOM     17  C   UNL     1       1.995   5.498  19.743  0.00  0.00    +0.000 A 
ATOM     18  C   UNL     1       2.901   5.000  18.765  0.00  0.00    +0.000 A 
ATOM     19  C   UNL     1       3.800   5.781  17.983  0.00  0.00    +0.000 A 
BRANCH  10  21
ATOM     20  C   UNL     1       6.607   5.482  15.757  0.00  0.00    +0.000 C 
ATOM     21  O   UNL     1       5.484   6.075  16.396  0.00  0.00    +0.000 OA
ENDBRANCH  10  21
ENDBRANCH   1  17
BRANCH   8  22
ATOM     22  N   UNL     1      -0.727  11.741  21.250  0.00  0.00    +0.000 N 
ATOM     23  C   UNL     1      -0.968  12.629  22.279  0.00  0.00    +0.000 C 
ATOM     24  O   UNL     1      -0.092  13.136  22.966  0.00  0.00    +0.000 OA
ATOM     25  H   UNL     1      -1.496  11.412  20.682  0.00  0.00    +0.000 HD
BRANCH  23  26
ATOM     26  C   UNL     1      -2.392  12.993  22.481  0.00  0.00    +0.000 A 
ATOM     27  C   UNL     1      -2.777  13.826  23.538  0.00  0.00    +0.000 A 
ATOM     28  C   UNL     1      -4.126  14.085  23.764  0.00  0.00    +0.000 A 
ATOM     29  C   UNL     1      -5.098  13.501  22.947  0.00  0.00    +0.000 A 
ATOM     30  C   UNL     1      -4.709  12.689  21.867  0.00  0.00    +0.000 A 
ATOM     31  C   UNL     1      -3.354  12.460  21.617  0.00  0.00    +0.000 A 
ATOM     32  N   UNL     1      -5.649  12.095  21.011  0.00  0.00    +0.000 N 
ATOM     33  C   UNL     1      -6.994  11.983  21.258  0.00  0.00    +0.000 C 
ATOM     34  O   UNL     1      -7.735  11.501  20.401  0.00  0.00    +0.000 OA
ATOM     35  C   UNL     1      -7.486  12.300  22.652  0.00  0.00    +0.000 C 
ATOM     36  S   UNL     1      -6.809  13.852  23.280  0.00  0.00    +0.000 S 
ATOM     37  H   UNL     1      -5.345  11.703  20.127  0.00  0.00    +0.000 HD
ENDBRANCH  23  26
ENDBRANCH   8  22
TORSDOF 4
ENDMDL
MODEL 7
REMARK VINA RESULT:      -9.0      1.710      2.145
REMARK  Name = 
REMARK  5 active torsions:
REMARK  status: ('A' for Active; 'I' for Inactive)
REMARK    1  A    between atoms: C_1  and  O_2
REMARK    2  A    between atoms: O_2  and  C_3
REMARK    3  A    between atoms: C_10  and  N_11
REMARK    4  A    between atoms: C_18  and  N_19
REMARK    5  A    between atoms: C_20  and  C_22
REMARK                            x       y       z     vdW  Elec       q    Type
REMARK                         _______ _______ _______ _____ _____    ______ ____
ROOT
ATOM      1  N   UNL     1       2.526   7.205  18.449  0.00  0.00    +0.000 N 
ATOM      2  C   UNL     1       1.670   7.486  19.495  0.00  0.00    +0.000 A 
ATOM      3  C   UNL     1       1.439   8.840  19.467  0.00  0.00    +0.000 A 
ATOM      4  C   UNL     1       2.154   9.296  18.359  0.00  0.00    +0.000 A 
ATOM      5  N   UNL     1       2.839   8.326  17.761  0.00  0.00    +0.000 NA
ATOM      6  C   UNL     1       2.158  10.673  17.840  0.00  0.00    +0.000 C 
ATOM      7  C   UNL     1       1.316  11.653  18.660  0.00  0.00    +0.000 C 
ATOM      8  C   UNL     1       0.491  11.156  19.878  0.00  0.00    +0.000 C 
ATOM      9  C   UNL     1       0.638   9.695  20.364  0.00  0.00    +0.000 C 
ENDROOT
BRANCH   1  17
ATOM     10  C   UNL     1       6.523   6.425  16.806  0.00  0.00    +0.000 A 
ATOM     11  C   UNL     1       6.777   5.133  16.359  0.00  0.00    +0.000 A 
ATOM     12  C   UNL     1       5.777   4.160  16.449  0.00  0.00    +0.000 A 
ATOM     13  C   UNL     1       4.527   4.431  16.982  0.00  0.00    +0.000 A 
ATOM     14  N   UNL     1       3.649   3.417  17.059  0.00  0.00    +0.000 NA
ATOM     15  C   UNL     1       2.451   3.642  17.630  0.00  0.00    +0.000 A 
ATOM     16  C   UNL     1       2.065   4.863  18.137  0.00  0.00    +0.000 A 
ATOM     17  C   UNL     1       2.959   5.929  18.017  0.00  0.00    +0.000 A 
ATOM     18  C   UNL     1       4.247   5.734  17.443  0.00  0.00    +0.000 A 
ATOM     19  C   UNL     1       5.282   6.709  17.357  0.00  0.00    +0.000 A 
BRANCH  10  21
ATOM     20  C   UNL     1       8.000   7.761  18.058  0.00  0.00    +0.000 C 
ATOM     21  O   UNL     1       7.421   7.451  16.797  0.00  0.00    +0.000 OA
ENDBRANCH  10  21
ENDBRANCH   1  17
BRANCH   8  22
ATOM     22  N   UNL     1      -0.921  11.484  19.674  0.00  0.00    +0.000 N 
ATOM     23  C   UNL     1      -1.633  11.003  18.594  0.00  0.00    +0.000 C 
ATOM     24  O   UNL     1      -1.168  10.253  17.745  0.00  0.00    +0.000 OA
ATOM     25  H   UNL     1      -1.388  12.047  20.371  0.00  0.00    +0.000 HD
BRANCH  23  26
ATOM     26  C   UNL     1      -3.058  11.409  18.541  0.00  0.00    +0.000 A 
ATOM     27  C   UNL     1      -3.864  11.065  17.450  0.00  0.00    +0.000 A 
ATOM     28  C   UNL     1      -5.174  11.532  17.378  0.00  0.00    +0.000 A 
ATOM     29  C   UNL     1      -5.680  12.357  18.386  0.00  0.00    +0.000 A 
ATOM     30  C   UNL     1      -4.880  12.677  19.497  0.00  0.00    +0.000 A 
ATOM     31  C   UNL     1      -3.579  12.178  19.589  0.00  0.00    +0.000 A 
ATOM     32  N   UNL     1      -5.352  13.488  20.541  0.00  0.00    +0.000 N 
ATOM     33  C   UNL     1      -6.475  14.275  20.494  0.00  0.00    +0.000 C 
ATOM     34  O   UNL     1      -6.830  14.894  21.497  0.00  0.00    +0.000 OA
ATOM     35  C   UNL     1      -7.137  14.484  19.150  0.00  0.00    +0.000 C 
ATOM     36  S   UNL     1      -7.356  12.937  18.246  0.00  0.00    +0.000 S 
ATOM     37  H   UNL     1      -4.845  13.523  21.417  0.00  0.00    +0.000 HD
ENDBRANCH  23  26
ENDBRANCH   8  22
TORSDOF 4
ENDMDL
MODEL 8
REMARK VINA RESULT:      -9.0      4.294      6.531
REMARK  Name = 
REMARK  5 active torsions:
REMARK  status: ('A' for Active; 'I' for Inactive)
REMARK    1  A    between atoms: C_1  and  O_2
REMARK    2  A    between atoms: O_2  and  C_3
REMARK    3  A    between atoms: C_10  and  N_11
REMARK    4  A    between atoms: C_18  and  N_19
REMARK    5  A    between atoms: C_20  and  C_22
REMARK                            x       y       z     vdW  Elec       q    Type
REMARK                         _______ _______ _______ _____ _____    ______ ____
ROOT
ATOM      1  N   UNL     1       2.401   6.810  18.519  0.00  0.00    +0.000 N 
ATOM      2  C   UNL     1       2.187   7.985  17.824  0.00  0.00    +0.000 A 
ATOM      3  C   UNL     1       1.675   8.890  18.722  0.00  0.00    +0.000 A 
ATOM      4  C   UNL     1       1.649   8.205  19.937  0.00  0.00    +0.000 A 
ATOM      5  N   UNL     1       2.049   6.943  19.818  0.00  0.00    +0.000 NA
ATOM      6  C   UNL     1       1.267   8.770  21.240  0.00  0.00    +0.000 C 
ATOM      7  C   UNL     1       0.829  10.236  21.182  0.00  0.00    +0.000 C 
ATOM      8  C   UNL     1       0.882  11.022  19.844  0.00  0.00    +0.000 C 
ATOM      9  C   UNL     1       1.229  10.283  18.529  0.00  0.00    +0.000 C 
ENDROOT
BRANCH   1  17
ATOM     10  C   UNL     1       6.486   6.682  16.913  0.00  0.00    +0.000 A 
ATOM     11  C   UNL     1       6.925   5.462  16.413  0.00  0.00    +0.000 A 
ATOM     12  C   UNL     1       6.073   4.354  16.441  0.00  0.00    +0.000 A 
ATOM     13  C   UNL     1       4.791   4.420  16.963  0.00  0.00    +0.000 A 
ATOM     14  N   UNL     1       4.066   3.290  16.978  0.00  0.00    +0.000 NA
ATOM     15  C   UNL     1       2.841   3.316  17.538  0.00  0.00    +0.000 A 
ATOM     16  C   UNL     1       2.281   4.444  18.093  0.00  0.00    +0.000 A 
ATOM     17  C   UNL     1       3.016   5.631  18.037  0.00  0.00    +0.000 A 
ATOM     18  C   UNL     1       4.324   5.647  17.478  0.00  0.00    +0.000 A 
ATOM     19  C   UNL     1       5.211   6.761  17.455  0.00  0.00    +0.000 A 
BRANCH  10  21
ATOM     20  C   UNL     1       8.083   7.939  18.098  0.00  0.00    +0.000 C 
ATOM     21  O   UNL     1       7.230   7.823  16.966  0.00  0.00    +0.000 OA
ENDBRANCH  10  21
ENDBRANCH   1  17
BRANCH   8  22
ATOM     22  N   UNL     1       1.736  12.200  20.006  0.00  0.00    +0.000 N 
ATOM     23  C   UNL     1       1.401  13.422  19.461  0.00  0.00    +0.000 C 
ATOM     24  O   UNL     1       0.372  13.636  18.834  0.00  0.00    +0.000 OA
ATOM     25  H   UNL     1       2.572  12.112  20.567  0.00  0.00    +0.000 HD
BRANCH  23  26
ATOM     26  C   UNL     1       2.361  14.521  19.731  0.00  0.00    +0.000 A 
ATOM     27  C   UNL     1       2.155  15.801  19.204  0.00  0.00    +0.000 A 
ATOM     28  C   UNL     1       3.113  16.794  19.395  0.00  0.00    +0.000 A 
ATOM     29  C   UNL     1       4.286  16.510  20.098  0.00  0.00    +0.000 A 
ATOM     30  C   UNL     1       4.479  15.232  20.653  0.00  0.00    +0.000 A 
ATOM     31  C   UNL     1       3.502  14.247  20.495  0.00  0.00    +0.000 A 
ATOM     32  N   UNL     1       5.634  14.907  21.380  0.00  0.00    +0.000 N 
ATOM     33  C   UNL     1       6.795  15.638  21.403  0.00  0.00    +0.000 C 
ATOM     34  O   UNL     1       7.723  15.290  22.133  0.00  0.00    +0.000 OA
ATOM     35  C   UNL     1       6.948  16.753  20.392  0.00  0.00    +0.000 C 
ATOM     36  S   UNL     1       5.485  17.807  20.308  0.00  0.00    +0.000 S 
ATOM     37  H   UNL     1       5.651  14.066  21.946  0.00  0.00    +0.000 HD
ENDBRANCH  23  26
ENDBRANCH   8  22
TORSDOF 4
ENDMDL
MODEL 9
REMARK VINA RESULT:      -8.8      2.076      2.639
REMARK  Name = 
REMARK  5 active torsions:
REMARK  status: ('A' for Active; 'I' for Inactive)
REMARK    1  A    between atoms: C_1  and  O_2
REMARK    2  A    between atoms: O_2  and  C_3
REMARK    3  A    between atoms: C_10  and  N_11
REMARK    4  A    between atoms: C_18  and  N_19
REMARK    5  A    between atoms: C_20  and  C_22
REMARK                            x       y       z     vdW  Elec       q    Type
REMARK                         _______ _______ _______ _____ _____    ______ ____
ROOT
ATOM      1  N   UNL     1       2.038   7.018  19.856  0.00  0.00    +0.000 N 
ATOM      2  C   UNL     1       1.256   7.704  20.764  0.00  0.00    +0.000 A 
ATOM      3  C   UNL     1       1.106   8.980  20.276  0.00  0.00    +0.000 A 
ATOM      4  C   UNL     1       1.787   8.973  19.058  0.00  0.00    +0.000 A 
ATOM      5  N   UNL     1       2.381   7.809  18.814  0.00  0.00    +0.000 NA
ATOM      6  C   UNL     1       1.846  10.083  18.094  0.00  0.00    +0.000 C 
ATOM      7  C   UNL     1       1.109  11.345  18.548  0.00  0.00    +0.000 C 
ATOM      8  C   UNL     1       0.321  11.360  19.886  0.00  0.00    +0.000 C 
ATOM      9  C   UNL     1       0.406  10.148  20.844  0.00  0.00    +0.000 C 
ENDROOT
BRANCH   1  17
ATOM     10  C   UNL     1       4.495   5.060  16.789  0.00  0.00    +0.000 A 
ATOM     11  C   UNL     1       4.677   3.686  16.913  0.00  0.00    +0.000 A 
ATOM     12  C   UNL     1       4.088   3.003  17.981  0.00  0.00    +0.000 A 
ATOM     13  C   UNL     1       3.324   3.649  18.941  0.00  0.00    +0.000 A 
ATOM     14  N   UNL     1       2.834   2.908  19.948  0.00  0.00    +0.000 NA
ATOM     15  C   UNL     1       2.143   3.524  20.926  0.00  0.00    +0.000 A 
ATOM     16  C   UNL     1       1.900   4.879  20.951  0.00  0.00    +0.000 A 
ATOM     17  C   UNL     1       2.371   5.643  19.881  0.00  0.00    +0.000 A 
ATOM     18  C   UNL     1       3.128   5.041  18.837  0.00  0.00    +0.000 A 
ATOM     19  C   UNL     1       3.748   5.723  17.751  0.00  0.00    +0.000 A 
BRANCH  10  21
ATOM     20  C   UNL     1       6.118   5.251  15.098  0.00  0.00    +0.000 C 
ATOM     21  O   UNL     1       5.038   5.839  15.812  0.00  0.00    +0.000 OA
ENDBRANCH  10  21
ENDBRANCH   1  17
BRANCH   8  22
ATOM     22  N   UNL     1      -1.078  11.701  19.622  0.00  0.00    +0.000 N 
ATOM     23  C   UNL     1      -1.830  11.023  18.686  0.00  0.00    +0.000 C 
ATOM     24  O   UNL     1      -1.415  10.078  18.027  0.00  0.00    +0.000 OA
ATOM     25  H   UNL     1      -1.506  12.430  20.176  0.00  0.00    +0.000 HD
BRANCH  23  26
ATOM     26  C   UNL     1      -3.236  11.476  18.552  0.00  0.00    +0.000 A 
ATOM     27  C   UNL     1      -3.977  11.189  17.400  0.00  0.00    +0.000 A 
ATOM     28  C   UNL     1      -5.265  11.699  17.256  0.00  0.00    +0.000 A 
ATOM     29  C   UNL     1      -5.812  12.511  18.252  0.00  0.00    +0.000 A 
ATOM     30  C   UNL     1      -5.078  12.775  19.422  0.00  0.00    +0.000 A 
ATOM     31  C   UNL     1      -3.802  12.232  19.585  0.00  0.00    +0.000 A 
ATOM     32  N   UNL     1      -5.594  13.572  20.456  0.00  0.00    +0.000 N 
ATOM     33  C   UNL     1      -6.688  14.396  20.359  0.00  0.00    +0.000 C 
ATOM     34  O   UNL     1      -7.090  14.998  21.354  0.00  0.00    +0.000 OA
ATOM     35  C   UNL     1      -7.251  14.663  18.981  0.00  0.00    +0.000 C 
ATOM     36  S   UNL     1      -7.456  13.149  18.019  0.00  0.00    +0.000 S 
ATOM     37  H   UNL     1      -5.146  13.567  21.365  0.00  0.00    +0.000 HD
ENDBRANCH  23  26
ENDBRANCH   8  22
TORSDOF 4
ENDMDL
