MODEL 1
REMARK VINA RESULT:      -8.3      0.000      0.000
REMARK  Name = 
REMARK  7 active torsions:
REMARK  status: ('A' for Active; 'I' for Inactive)
REMARK    1  A    between atoms: C_1  and  O_2
REMARK    2  A    between atoms: O_2  and  C_3
REMARK    3  A    between atoms: C_6  and  O_7
REMARK    4  A    between atoms: O_7  and  C_8
REMARK    5  A    between atoms: C_8  and  C_10
REMARK    6  A    between atoms: C_10  and  C_11
REMARK    7  A    between atoms: C_11  and  N_12
REMARK                            x       y       z     vdW  Elec       q    Type
REMARK                         _______ _______ _______ _____ _____    ______ ____
ROOT
ATOM      1  C   UNL     1       5.587   6.101  18.534  0.00  0.00    +0.000 C 
ENDROOT
BRANCH   1   2
ATOM      2  N   UNL     1       4.541   5.097  18.398  0.00  0.00    +0.000 N 
ATOM      3  C   UNL     1       3.273   5.366  17.955  0.00  0.00    +0.000 C 
ATOM      4  O   UNL     1       2.809   6.471  17.714  0.00  0.00    +0.000 OA
ATOM      5  C   UNL     1       2.503   4.067  17.869  0.00  0.00    +0.000 C 
ATOM      6  C   UNL     1       1.214   4.057  18.714  0.00  0.00    +0.000 C 
ATOM      7  C   UNL     1       0.636   2.653  18.738  0.00  0.00    +0.000 C 
ATOM      8  C   UNL     1       1.463   1.890  19.479  0.00  0.00    +0.000 C 
ATOM      9  C   UNL     1       2.612   2.772  19.905  0.00  0.00    +0.000 C 
ATOM     10  C   UNL     1       1.800   4.057  20.134  0.00  0.00    +0.000 C 
ATOM     11  C   UNL     1       3.415   3.068  18.617  0.00  0.00    +0.000 C 
ATOM     12  C   UNL     1       4.688   3.820  18.851  0.00  0.00    +0.000 C 
ATOM     13  O   UNL     1       5.676   3.354  19.396  0.00  0.00    +0.000 OA
ENDBRANCH   1   2
BRANCH   1  14
ATOM     14  C   UNL     1       6.174   6.527  17.192  0.00  0.00    +0.000 C 
BRANCH  14  15
ATOM     15  C   UNL     1       7.214   5.568  16.661  0.00  0.00    +0.000 C 
ATOM     16  O   UNL     1       7.779   4.730  17.349  0.00  0.00    +0.000 OA
BRANCH  15  17
ATOM     17  O   UNL     1       7.528   5.869  15.343  0.00  0.00    +0.000 OA
BRANCH  17  21
ATOM     18  C   UNL     1       5.937   3.396  12.373  0.00  0.00    +0.000 A 
ATOM     19  C   UNL     1       5.364   3.452  13.648  0.00  0.00    +0.000 A 
ATOM     20  C   UNL     1       5.930   4.247  14.646  0.00  0.00    +0.000 A 
ATOM     21  C   UNL     1       7.092   4.963  14.369  0.00  0.00    +0.000 A 
ATOM     22  C   UNL     1       7.681   4.903  13.105  0.00  0.00    +0.000 A 
ATOM     23  C   UNL     1       7.105   4.113  12.110  0.00  0.00    +0.000 A 
BRANCH  18  25
ATOM     24  C   UNL     1       5.880   1.326  11.230  0.00  0.00    +0.000 C 
ATOM     25  O   UNL     1       5.284   2.596  11.475  0.00  0.00    +0.000 OA
ENDBRANCH  18  25
ENDBRANCH  17  21
ENDBRANCH  15  17
ENDBRANCH  14  15
ENDBRANCH   1  14
TORSDOF 6
ENDMDL
MODEL 2
REMARK VINA RESULT:      -8.2      0.731      1.214
REMARK  Name = 
REMARK  7 active torsions:
REMARK  status: ('A' for Active; 'I' for Inactive)
REMARK    1  A    between atoms: C_1  and  O_2
REMARK    2  A    between atoms: O_2  and  C_3
REMARK    3  A    between atoms: C_6  and  O_7
REMARK    4  A    between atoms: O_7  and  C_8
REMARK    5  A    between atoms: C_8  and  C_10
REMARK    6  A    between atoms: C_10  and  C_11
REMARK    7  A    between atoms: C_11  and  N_12
REMARK                            x       y       z     vdW  Elec       q    Type
REMARK                         _______ _______ _______ _____ _____    ______ ____
ROOT
ATOM      1  C   UNL     1       6.132   5.774  18.955  0.00  0.00    +0.000 C 
ENDROOT
BRANCH   1   2
ATOM      2  N   UNL     1       4.958   4.993  18.596  0.00  0.00    +0.000 N 
ATOM      3  C   UNL     1       3.871   5.502  17.935  0.00  0.00    +0.000 C 
ATOM      4  O   UNL     1       3.682   6.674  17.647  0.00  0.00    +0.000 OA
ATOM      5  C   UNL     1       2.896   4.377  17.667  0.00  0.00    +0.000 C 
ATOM      6  C   UNL     1       1.494   4.623  18.259  0.00  0.00    +0.000 C 
ATOM      7  C   UNL     1       0.663   3.358  18.131  0.00  0.00    +0.000 C 
ATOM      8  C   UNL     1       1.173   2.453  18.988  0.00  0.00    +0.000 C 
ATOM      9  C   UNL     1       2.369   3.096  19.646  0.00  0.00    +0.000 C 
ATOM     10  C   UNL     1       1.792   4.515  19.761  0.00  0.00    +0.000 C 
ATOM     11  C   UNL     1       3.441   3.223  18.538  0.00  0.00    +0.000 C 
ATOM     12  C   UNL     1       4.769   3.713  19.027  0.00  0.00    +0.000 C 
ATOM     13  O   UNL     1       5.528   3.066  19.731  0.00  0.00    +0.000 OA
ENDBRANCH   1   2
BRANCH   1  14
ATOM     14  C   UNL     1       6.828   6.385  17.743  0.00  0.00    +0.000 C 
BRANCH  14  15
ATOM     15  C   UNL     1       7.483   5.361  16.847  0.00  0.00    +0.000 C 
ATOM     16  O   UNL     1       7.945   4.303  17.250  0.00  0.00    +0.000 OA
BRANCH  15  17
ATOM     17  O   UNL     1       7.610   5.851  15.555  0.00  0.00    +0.000 OA
BRANCH  17  21
ATOM     18  C   UNL     1       5.759   3.515  12.625  0.00  0.00    +0.000 A 
ATOM     19  C   UNL     1       7.017   4.084  12.404  0.00  0.00    +0.000 A 
ATOM     20  C   UNL     1       7.607   4.900  13.371  0.00  0.00    +0.000 A 
ATOM     21  C   UNL     1       6.915   5.166  14.550  0.00  0.00    +0.000 A 
ATOM     22  C   UNL     1       5.653   4.615  14.775  0.00  0.00    +0.000 A 
ATOM     23  C   UNL     1       5.073   3.795  13.807  0.00  0.00    +0.000 A 
BRANCH  18  25
ATOM     24  C   UNL     1       3.991   3.038  11.128  0.00  0.00    +0.000 C 
ATOM     25  O   UNL     1       5.291   2.722  11.612  0.00  0.00    +0.000 OA
ENDBRANCH  18  25
ENDBRANCH  17  21
ENDBRANCH  15  17
ENDBRANCH  14  15
ENDBRANCH   1  14
TORSDOF 6
ENDMDL
MODEL 3
REMARK VINA RESULT:      -8.1      1.057      1.872
REMARK  Name = 
REMARK  7 active torsions:
REMARK  status: ('A' for Active; 'I' for Inactive)
REMARK    1  A    between atoms: C_1  and  O_2
REMARK    2  A    between atoms: O_2  and  C_3
REMARK    3  A    between atoms: C_6  and  O_7
REMARK    4  A    between atoms: O_7  and  C_8
REMARK    5  A    between atoms: C_8  and  C_10
REMARK    6  A    between atoms: C_10  and  C_11
REMARK    7  A    between atoms: C_11  and  N_12
REMARK                            x       y       z     vdW  Elec       q    Type
REMARK                         _______ _______ _______ _____ _____    ______ ____
ROOT
ATOM      1  C   UNL     1       4.462   5.957  16.974  0.00  0.00    +0.000 C 
ENDROOT
BRANCH   1   2
ATOM      2  N   UNL     1       4.008   5.207  18.136  0.00  0.00    +0.000 N 
ATOM      3  C   UNL     1       4.080   3.843  18.245  0.00  0.00    +0.000 C 
ATOM      4  O   UNL     1       4.430   3.065  17.372  0.00  0.00    +0.000 OA
ATOM      5  C   UNL     1       3.594   3.440  19.619  0.00  0.00    +0.000 C 
ATOM      6  C   UNL     1       2.411   2.452  19.588  0.00  0.00    +0.000 C 
ATOM      7  C   UNL     1       1.857   2.282  20.993  0.00  0.00    +0.000 C 
ATOM      8  C   UNL     1       1.249   3.437  21.327  0.00  0.00    +0.000 C 
ATOM      9  C   UNL     1       1.440   4.387  20.170  0.00  0.00    +0.000 C 
ATOM     10  C   UNL     1       1.295   3.354  19.041  0.00  0.00    +0.000 C 
ATOM     11  C   UNL     1       2.947   4.736  20.158  0.00  0.00    +0.000 C 
ATOM     12  C   UNL     1       3.321   5.788  19.161  0.00  0.00    +0.000 C 
ATOM     13  O   UNL     1       3.017   6.967  19.252  0.00  0.00    +0.000 OA
ENDBRANCH   1   2
BRANCH   1  14
ATOM     14  C   UNL     1       5.875   6.505  17.141  0.00  0.00    +0.000 C 
BRANCH  14  15
ATOM     15  C   UNL     1       6.951   5.531  16.725  0.00  0.00    +0.000 C 
ATOM     16  O   UNL     1       7.413   4.673  17.464  0.00  0.00    +0.000 OA
BRANCH  15  17
ATOM     17  O   UNL     1       7.427   5.838  15.458  0.00  0.00    +0.000 OA
BRANCH  17  21
ATOM     18  C   UNL     1       6.003   3.519  12.285  0.00  0.00    +0.000 A 
ATOM     19  C   UNL     1       5.363   3.510  13.529  0.00  0.00    +0.000 A 
ATOM     20  C   UNL     1       5.873   4.253  14.595  0.00  0.00    +0.000 A 
ATOM     21  C   UNL     1       7.046   4.983  14.417  0.00  0.00    +0.000 A 
ATOM     22  C   UNL     1       7.700   4.988  13.184  0.00  0.00    +0.000 A 
ATOM     23  C   UNL     1       7.181   4.249  12.122  0.00  0.00    +0.000 A 
BRANCH  18  25
ATOM     24  C   UNL     1       4.009   2.993  11.127  0.00  0.00    +0.000 C 
ATOM     25  O   UNL     1       5.402   2.766  11.314  0.00  0.00    +0.000 OA
ENDBRANCH  18  25
ENDBRANCH  17  21
ENDBRANCH  15  17
ENDBRANCH  14  15
ENDBRANCH   1  14
TORSDOF 6
ENDMDL
MODEL 4
REMARK VINA RESULT:      -8.0      0.871      2.226
REMARK  Name = 
REMARK  7 active torsions:
REMARK  status: ('A' for Active; 'I' for Inactive)
REMARK    1  A    between atoms: C_1  and  O_2
REMARK    2  A    between atoms: O_2  and  C_3
REMARK    3  A    between atoms: C_6  and  O_7
REMARK    4  A    between atoms: O_7  and  C_8
REMARK    5  A    between atoms: C_8  and  C_10
REMARK    6  A    between atoms: C_10  and  C_11
REMARK    7  A    between atoms: C_11  and  N_12
REMARK                            x       y       z     vdW  Elec       q    Type
REMARK                         _______ _______ _______ _____ _____    ______ ____
ROOT
ATOM      1  C   UNL     1       6.087   5.526  18.983  0.00  0.00    +0.000 C 
ENDROOT
BRANCH   1   2
ATOM      2  N   UNL     1       4.756   4.964  19.159  0.00  0.00    +0.000 N 
ATOM      3  C   UNL     1       4.514   3.679  19.569  0.00  0.00    +0.000 C 
ATOM      4  O   UNL     1       5.350   2.806  19.744  0.00  0.00    +0.000 OA
ATOM      5  C   UNL     1       3.021   3.489  19.714  0.00  0.00    +0.000 C 
ATOM      6  C   UNL     1       2.460   2.340  18.852  0.00  0.00    +0.000 C 
ATOM      7  C   UNL     1       0.942   2.371  18.895  0.00  0.00    +0.000 C 
ATOM      8  C   UNL     1       0.542   3.458  18.207  0.00  0.00    +0.000 C 
ATOM      9  C   UNL     1       1.791   4.174  17.751  0.00  0.00    +0.000 C 
ATOM     10  C   UNL     1       2.632   2.925  17.443  0.00  0.00    +0.000 C 
ATOM     11  C   UNL     1       2.439   4.748  19.033  0.00  0.00    +0.000 C 
ATOM     12  C   UNL     1       3.625   5.623  18.776  0.00  0.00    +0.000 C 
ATOM     13  O   UNL     1       3.570   6.733  18.271  0.00  0.00    +0.000 OA
ENDBRANCH   1   2
BRANCH   1  14
ATOM     14  C   UNL     1       6.770   5.040  17.709  0.00  0.00    +0.000 C 
BRANCH  14  15
ATOM     15  C   UNL     1       6.820   6.083  16.619  0.00  0.00    +0.000 C 
ATOM     16  O   UNL     1       6.167   7.117  16.638  0.00  0.00    +0.000 OA
BRANCH  15  17
ATOM     17  O   UNL     1       7.586   5.638  15.550  0.00  0.00    +0.000 OA
BRANCH  17  21
ATOM     18  C   UNL     1       5.793   3.404  12.507  0.00  0.00    +0.000 A 
ATOM     19  C   UNL     1       7.021   4.042  12.305  0.00  0.00    +0.000 A 
ATOM     20  C   UNL     1       7.590   4.823  13.313  0.00  0.00    +0.000 A 
ATOM     21  C   UNL     1       6.905   4.986  14.515  0.00  0.00    +0.000 A 
ATOM     22  C   UNL     1       5.673   4.366  14.722  0.00  0.00    +0.000 A 
ATOM     23  C   UNL     1       5.114   3.581  13.713  0.00  0.00    +0.000 A 
BRANCH  18  25
ATOM     24  C   UNL     1       6.026   1.424  11.234  0.00  0.00    +0.000 C 
ATOM     25  O   UNL     1       5.345   2.654  11.453  0.00  0.00    +0.000 OA
ENDBRANCH  18  25
ENDBRANCH  17  21
ENDBRANCH  15  17
ENDBRANCH  14  15
ENDBRANCH   1  14
TORSDOF 6
ENDMDL
MODEL 5
REMARK VINA RESULT:      -7.8      1.093      1.234
REMARK  Name = 
REMARK  7 active torsions:
REMARK  status: ('A' for Active; 'I' for Inactive)
REMARK    1  A    between atoms: C_1  and  O_2
REMARK    2  A    between atoms: O_2  and  C_3
REMARK    3  A    between atoms: C_6  and  O_7
REMARK    4  A    between atoms: O_7  and  C_8
REMARK    5  A    between atoms: C_8  and  C_10
REMARK    6  A    between atoms: C_10  and  C_11
REMARK    7  A    between atoms: C_11  and  N_12
REMARK                            x       y       z     vdW  Elec       q    Type
REMARK                         _______ _______ _______ _____ _____    ______ ____
ROOT
ATOM      1  C   UNL     1       4.847   6.174  16.816  0.00  0.00    +0.000 C 
ENDROOT
BRANCH   1   2
ATOM      2  N   UNL     1       3.769   5.458  17.481  0.00  0.00    +0.000 N 
ATOM      3  C   UNL     1       2.806   6.062  18.247  0.00  0.00    +0.000 C 
ATOM      4  O   UNL     1       2.767   7.241  18.563  0.00  0.00    +0.000 OA
ATOM      5  C   UNL     1       1.816   5.012  18.699  0.00  0.00    +0.000 C 
ATOM      6  C   UNL     1       1.671   4.921  20.231  0.00  0.00    +0.000 C 
ATOM      7  C   UNL     1       0.834   3.704  20.588  0.00  0.00    +0.000 C 
ATOM      8  C   UNL     1       1.573   2.612  20.312  0.00  0.00    +0.000 C 
ATOM      9  C   UNL     1       2.877   3.100  19.727  0.00  0.00    +0.000 C 
ATOM     10  C   UNL     1       3.040   4.342  20.617  0.00  0.00    +0.000 C 
ATOM     11  C   UNL     1       2.523   3.685  18.340  0.00  0.00    +0.000 C 
ATOM     12  C   UNL     1       3.712   4.097  17.530  0.00  0.00    +0.000 C 
ATOM     13  O   UNL     1       4.513   3.321  17.032  0.00  0.00    +0.000 OA
ENDBRANCH   1   2
BRANCH   1  14
ATOM     14  C   UNL     1       6.170   6.081  17.569  0.00  0.00    +0.000 C 
BRANCH  14  15
ATOM     15  C   UNL     1       7.228   5.297  16.829  0.00  0.00    +0.000 C 
ATOM     16  O   UNL     1       7.904   4.416  17.342  0.00  0.00    +0.000 OA
BRANCH  15  17
ATOM     17  O   UNL     1       7.416   5.811  15.554  0.00  0.00    +0.000 OA
BRANCH  17  21
ATOM     18  C   UNL     1       6.094   3.522  12.316  0.00  0.00    +0.000 A 
ATOM     19  C   UNL     1       5.522   3.375  13.584  0.00  0.00    +0.000 A 
ATOM     20  C   UNL     1       6.001   4.112  14.669  0.00  0.00    +0.000 A 
ATOM     21  C   UNL     1       7.078   4.976  14.482  0.00  0.00    +0.000 A 
ATOM     22  C   UNL     1       7.665   5.120  13.224  0.00  0.00    +0.000 A 
ATOM     23  C   UNL     1       7.177   4.386  12.144  0.00  0.00    +0.000 A 
BRANCH  18  25
ATOM     24  C   UNL     1       4.143   2.979  11.094  0.00  0.00    +0.000 C 
ATOM     25  O   UNL     1       5.530   2.760  11.329  0.00  0.00    +0.000 OA
ENDBRANCH  18  25
ENDBRANCH  17  21
ENDBRANCH  15  17
ENDBRANCH  14  15
ENDBRANCH   1  14
TORSDOF 6
ENDMDL
MODEL 6
REMARK VINA RESULT:      -7.8      0.952      2.078
REMARK  Name = 
REMARK  7 active torsions:
REMARK  status: ('A' for Active; 'I' for Inactive)
REMARK    1  A    between atoms: C_1  and  O_2
REMARK    2  A    between atoms: O_2  and  C_3
REMARK    3  A    between atoms: C_6  and  O_7
REMARK    4  A    between atoms: O_7  and  C_8
REMARK    5  A    between atoms: C_8  and  C_10
REMARK    6  A    between atoms: C_10  and  C_11
REMARK    7  A    between atoms: C_11  and  N_12
REMARK                            x       y       z     vdW  Elec       q    Type
REMARK                         _______ _______ _______ _____ _____    ______ ____
ROOT
ATOM      1  C   UNL     1       5.827   6.095  18.706  0.00  0.00    +0.000 C 
ENDROOT
BRANCH   1   2
ATOM      2  N   UNL     1       4.597   5.369  18.986  0.00  0.00    +0.000 N 
ATOM      3  C   UNL     1       4.555   4.072  19.423  0.00  0.00    +0.000 C 
ATOM      4  O   UNL     1       5.508   3.316  19.541  0.00  0.00    +0.000 OA
ATOM      5  C   UNL     1       3.114   3.693  19.683  0.00  0.00    +0.000 C 
ATOM      6  C   UNL     1       2.643   2.467  18.876  0.00  0.00    +0.000 C 
ATOM      7  C   UNL     1       1.141   2.304  19.035  0.00  0.00    +0.000 C 
ATOM      8  C   UNL     1       0.554   3.318  18.371  0.00  0.00    +0.000 C 
ATOM      9  C   UNL     1       1.661   4.180  17.815  0.00  0.00    +0.000 C 
ATOM     10  C   UNL     1       2.632   3.045  17.454  0.00  0.00    +0.000 C 
ATOM     11  C   UNL     1       2.324   4.855  19.040  0.00  0.00    +0.000 C 
ATOM     12  C   UNL     1       3.365   5.871  18.687  0.00  0.00    +0.000 C 
ATOM     13  O   UNL     1       3.128   6.956  18.179  0.00  0.00    +0.000 OA
ENDBRANCH   1   2
BRANCH   1  14
ATOM     14  C   UNL     1       6.653   5.449  17.599  0.00  0.00    +0.000 C 
BRANCH  14  15
ATOM     15  C   UNL     1       6.579   6.189  16.284  0.00  0.00    +0.000 C 
ATOM     16  O   UNL     1       5.708   7.003  16.011  0.00  0.00    +0.000 OA
BRANCH  15  17
ATOM     17  O   UNL     1       7.536   5.713  15.399  0.00  0.00    +0.000 OA
BRANCH  17  21
ATOM     18  C   UNL     1       5.894   3.391  12.337  0.00  0.00    +0.000 A 
ATOM     19  C   UNL     1       5.390   3.326  13.640  0.00  0.00    +0.000 A 
ATOM     20  C   UNL     1       5.975   4.072  14.665  0.00  0.00    +0.000 A 
ATOM     21  C   UNL     1       7.088   4.861  14.383  0.00  0.00    +0.000 A 
ATOM     22  C   UNL     1       7.607   4.923  13.089  0.00  0.00    +0.000 A 
ATOM     23  C   UNL     1       7.013   4.180  12.069  0.00  0.00    +0.000 A 
BRANCH  18  25
ATOM     24  C   UNL     1       3.940   3.099  11.037  0.00  0.00    +0.000 C 
ATOM     25  O   UNL     1       5.229   2.628  11.415  0.00  0.00    +0.000 OA
ENDBRANCH  18  25
ENDBRANCH  17  21
ENDBRANCH  15  17
ENDBRANCH  14  15
ENDBRANCH   1  14
TORSDOF 6
ENDMDL
MODEL 7
REMARK VINA RESULT:      -7.8      0.949      2.053
REMARK  Name = 
REMARK  7 active torsions:
REMARK  status: ('A' for Active; 'I' for Inactive)
REMARK    1  A    between atoms: C_1  and  O_2
REMARK    2  A    between atoms: O_2  and  C_3
REMARK    3  A    between atoms: C_6  and  O_7
REMARK    4  A    between atoms: O_7  and  C_8
REMARK    5  A    between atoms: C_8  and  C_10
REMARK    6  A    between atoms: C_10  and  C_11
REMARK    7  A    between atoms: C_11  and  N_12
REMARK                            x       y       z     vdW  Elec       q    Type
REMARK                         _______ _______ _______ _____ _____    ______ ____
ROOT
ATOM      1  C   UNL     1       5.083   6.904  18.232  0.00  0.00    +0.000 C 
ENDROOT
BRANCH   1   2
ATOM      2  N   UNL     1       4.171   5.865  18.687  0.00  0.00    +0.000 N 
ATOM      3  C   UNL     1       4.574   4.636  19.140  0.00  0.00    +0.000 C 
ATOM      4  O   UNL     1       5.715   4.201  19.136  0.00  0.00    +0.000 OA
ATOM      5  C   UNL     1       3.356   3.866  19.600  0.00  0.00    +0.000 C 
ATOM      6  C   UNL     1       3.174   2.515  18.879  0.00  0.00    +0.000 C 
ATOM      7  C   UNL     1       1.822   1.927  19.244  0.00  0.00    +0.000 C 
ATOM      8  C   UNL     1       0.879   2.688  18.654  0.00  0.00    +0.000 C 
ATOM      9  C   UNL     1       1.600   3.807  17.942  0.00  0.00    +0.000 C 
ATOM     10  C   UNL     1       2.810   2.990  17.465  0.00  0.00    +0.000 C 
ATOM     11  C   UNL     1       2.181   4.709  19.056  0.00  0.00    +0.000 C 
ATOM     12  C   UNL     1       2.818   5.967  18.553  0.00  0.00    +0.000 C 
ATOM     13  O   UNL     1       2.207   6.906  18.068  0.00  0.00    +0.000 OA
ENDBRANCH   1   2
BRANCH   1  14
ATOM     14  C   UNL     1       5.638   6.633  16.837  0.00  0.00    +0.000 C 
BRANCH  14  15
ATOM     15  C   UNL     1       7.141   6.489  16.807  0.00  0.00    +0.000 C 
ATOM     16  O   UNL     1       7.916   7.432  16.886  0.00  0.00    +0.000 OA
BRANCH  15  17
ATOM     17  O   UNL     1       7.501   5.176  16.537  0.00  0.00    +0.000 OA
BRANCH  17  21
ATOM     18  C   UNL     1       5.995   3.830  12.879  0.00  0.00    +0.000 A 
ATOM     19  C   UNL     1       5.461   3.376  14.089  0.00  0.00    +0.000 A 
ATOM     20  C   UNL     1       6.001   3.797  15.306  0.00  0.00    +0.000 A 
ATOM     21  C   UNL     1       7.100   4.653  15.302  0.00  0.00    +0.000 A 
ATOM     22  C   UNL     1       7.650   5.101  14.101  0.00  0.00    +0.000 A 
ATOM     23  C   UNL     1       7.100   4.682  12.889  0.00  0.00    +0.000 A 
BRANCH  18  25
ATOM     24  C   UNL     1       5.541   1.973  11.486  0.00  0.00    +0.000 C 
ATOM     25  O   UNL     1       5.372   3.361  11.754  0.00  0.00    +0.000 OA
ENDBRANCH  18  25
ENDBRANCH  17  21
ENDBRANCH  15  17
ENDBRANCH  14  15
ENDBRANCH   1  14
TORSDOF 6
ENDMDL
MODEL 8
REMARK VINA RESULT:      -7.8      0.939      1.088
REMARK  Name = 
REMARK  7 active torsions:
REMARK  status: ('A' for Active; 'I' for Inactive)
REMARK    1  A    between atoms: C_1  and  O_2
REMARK    2  A    between atoms: O_2  and  C_3
REMARK    3  A    between atoms: C_6  and  O_7
REMARK    4  A    between atoms: O_7  and  C_8
REMARK    5  A    between atoms: C_8  and  C_10
REMARK    6  A    between atoms: C_10  and  C_11
REMARK    7  A    between atoms: C_11  and  N_12
REMARK                            x       y       z     vdW  Elec       q    Type
REMARK                         _______ _______ _______ _____ _____    ______ ____
ROOT
ATOM      1  C   UNL     1       6.170   5.168  18.783  0.00  0.00    +0.000 C 
ENDROOT
BRANCH   1   2
ATOM      2  N   UNL     1       4.837   4.597  18.913  0.00  0.00    +0.000 N 
ATOM      3  C   UNL     1       3.680   5.295  18.689  0.00  0.00    +0.000 C 
ATOM      4  O   UNL     1       3.588   6.490  18.454  0.00  0.00    +0.000 OA
ATOM      5  C   UNL     1       2.508   4.351  18.839  0.00  0.00    +0.000 C 
ATOM      6  C   UNL     1       1.486   4.802  19.902  0.00  0.00    +0.000 C 
ATOM      7  C   UNL     1       0.475   3.692  20.134  0.00  0.00    +0.000 C 
ATOM      8  C   UNL     1       1.116   2.690  20.768  0.00  0.00    +0.000 C 
ATOM      9  C   UNL     1       2.558   3.112  20.912  0.00  0.00    +0.000 C 
ATOM     10  C   UNL     1       2.301   4.602  21.188  0.00  0.00    +0.000 C 
ATOM     11  C   UNL     1       3.145   3.099  19.482  0.00  0.00    +0.000 C 
ATOM     12  C   UNL     1       4.619   3.352  19.425  0.00  0.00    +0.000 C 
ATOM     13  O   UNL     1       5.472   2.571  19.815  0.00  0.00    +0.000 OA
ENDBRANCH   1   2
BRANCH   1  14
ATOM     14  C   UNL     1       6.814   4.864  17.434  0.00  0.00    +0.000 C 
BRANCH  14  15
ATOM     15  C   UNL     1       6.851   6.054  16.505  0.00  0.00    +0.000 C 
ATOM     16  O   UNL     1       6.137   7.038  16.633  0.00  0.00    +0.000 OA
BRANCH  15  17
ATOM     17  O   UNL     1       7.693   5.808  15.429  0.00  0.00    +0.000 OA
BRANCH  17  21
ATOM     18  C   UNL     1       5.955   3.494  12.414  0.00  0.00    +0.000 A 
ATOM     19  C   UNL     1       5.435   3.495  13.712  0.00  0.00    +0.000 A 
ATOM     20  C   UNL     1       6.049   4.236  14.723  0.00  0.00    +0.000 A 
ATOM     21  C   UNL     1       7.208   4.953  14.432  0.00  0.00    +0.000 A 
ATOM     22  C   UNL     1       7.744   4.949  13.143  0.00  0.00    +0.000 A 
ATOM     23  C   UNL     1       7.120   4.212  12.137  0.00  0.00    +0.000 A 
BRANCH  18  25
ATOM     24  C   UNL     1       5.761   1.434  11.269  0.00  0.00    +0.000 C 
ATOM     25  O   UNL     1       5.258   2.744  11.506  0.00  0.00    +0.000 OA
ENDBRANCH  18  25
ENDBRANCH  17  21
ENDBRANCH  15  17
ENDBRANCH  14  15
ENDBRANCH   1  14
TORSDOF 6
ENDMDL
MODEL 9
REMARK VINA RESULT:      -7.7      1.041      1.521
REMARK  Name = 
REMARK  7 active torsions:
REMARK  status: ('A' for Active; 'I' for Inactive)
REMARK    1  A    between atoms: C_1  and  O_2
REMARK    2  A    between atoms: O_2  and  C_3
REMARK    3  A    between atoms: C_6  and  O_7
REMARK    4  A    between atoms: O_7  and  C_8
REMARK    5  A    between atoms: C_8  and  C_10
REMARK    6  A    between atoms: C_10  and  C_11
REMARK    7  A    between atoms: C_11  and  N_12
REMARK                            x       y       z     vdW  Elec       q    Type
REMARK                         _______ _______ _______ _____ _____    ______ ____
ROOT
ATOM      1  C   UNL     1       4.904   6.219  16.792  0.00  0.00    +0.000 C 
ENDROOT
BRANCH   1   2
ATOM      2  N   UNL     1       3.816   5.509  17.449  0.00  0.00    +0.000 N 
ATOM      3  C   UNL     1       2.868   6.114  18.230  0.00  0.00    +0.000 C 
ATOM      4  O   UNL     1       2.849   7.288  18.569  0.00  0.00    +0.000 OA
ATOM      5  C   UNL     1       1.861   5.072  18.666  0.00  0.00    +0.000 C 
ATOM      6  C   UNL     1       1.721   4.954  20.197  0.00  0.00    +0.000 C 
ATOM      7  C   UNL     1       0.865   3.746  20.534  0.00  0.00    +0.000 C 
ATOM      8  C   UNL     1       1.584   2.647  20.233  0.00  0.00    +0.000 C 
ATOM      9  C   UNL     1       2.893   3.123  19.652  0.00  0.00    +0.000 C 
ATOM     10  C   UNL     1       3.081   4.345  20.565  0.00  0.00    +0.000 C 
ATOM     11  C   UNL     1       2.543   3.741  18.278  0.00  0.00    +0.000 C 
ATOM     12  C   UNL     1       3.737   4.148  17.471  0.00  0.00    +0.000 C 
ATOM     13  O   UNL     1       4.522   3.369  16.955  0.00  0.00    +0.000 OA
ENDBRANCH   1   2
BRANCH   1  14
ATOM     14  C   UNL     1       6.260   5.946  17.434  0.00  0.00    +0.000 C 
BRANCH  14  15
ATOM     15  C   UNL     1       7.221   5.220  16.523  0.00  0.00    +0.000 C 
ATOM     16  O   UNL     1       7.965   4.325  16.895  0.00  0.00    +0.000 OA
BRANCH  15  17
ATOM     17  O   UNL     1       7.237   5.805  15.264  0.00  0.00    +0.000 OA
BRANCH  17  21
ATOM     18  C   UNL     1       6.058   3.220  12.199  0.00  0.00    +0.000 A 
ATOM     19  C   UNL     1       7.259   3.932  12.118  0.00  0.00    +0.000 A 
ATOM     20  C   UNL     1       7.622   4.827  13.127  0.00  0.00    +0.000 A 
ATOM     21  C   UNL     1       6.759   5.027  14.202  0.00  0.00    +0.000 A 
ATOM     22  C   UNL     1       5.552   4.333  14.285  0.00  0.00    +0.000 A 
ATOM     23  C   UNL     1       5.199   3.435  13.277  0.00  0.00    +0.000 A 
BRANCH  18  25
ATOM     24  C   UNL     1       6.738   1.284  11.022  0.00  0.00    +0.000 C 
ATOM     25  O   UNL     1       5.818   2.362  11.159  0.00  0.00    +0.000 OA
ENDBRANCH  18  25
ENDBRANCH  17  21
ENDBRANCH  15  17
ENDBRANCH  14  15
ENDBRANCH   1  14
TORSDOF 6
ENDMDL
