MODEL 1
REMARK VINA RESULT:      -7.1      0.000      0.000
REMARK  Name = 
REMARK  3 active torsions:
REMARK  status: ('A' for Active; 'I' for Inactive)
REMARK    1  A    between atoms: C_6  and  N_7
REMARK    2  A    between atoms: N_10  and  C_11
REMARK    3  A    between atoms: C_11  and  C_12
REMARK                            x       y       z     vdW  Elec       q    Type
REMARK                         _______ _______ _______ _____ _____    ______ ____
ROOT
ATOM      1  N   UNL     1       5.717   5.022  15.602  0.00  0.00    +0.000 N 
ATOM      2  C   UNL     1       4.995   4.057  16.445  0.00  0.00    +0.000 C 
ATOM      3  C   UNL     1       5.210   4.402  17.947  0.00  0.00    +0.000 C 
ATOM      4  N   UNL     1       4.951   5.816  18.333  0.00  0.00    +0.000 NA
ATOM      5  C   UNL     1       5.715   6.686  17.404  0.00  0.00    +0.000 C 
ATOM      6  C   UNL     1       5.431   6.434  15.908  0.00  0.00    +0.000 C 
ENDROOT
BRANCH   1  12
ATOM      7 CL   UNL     1       5.435   2.066  11.397  0.00  0.00    +0.000 Cl
ATOM      8  C   UNL     1       6.155   3.328  12.322  0.00  0.00    +0.000 A 
ATOM      9  C   UNL     1       7.275   3.990  11.828  0.00  0.00    +0.000 A 
ATOM     10  C   UNL     1       7.852   5.005  12.575  0.00  0.00    +0.000 A 
ATOM     11  C   UNL     1       7.305   5.347  13.813  0.00  0.00    +0.000 A 
ATOM     12  C   UNL     1       6.178   4.691  14.339  0.00  0.00    +0.000 A 
ATOM     13  C   UNL     1       5.612   3.670  13.565  0.00  0.00    +0.000 A 
ENDBRANCH   1  12
BRANCH   4  14
ATOM     14  C   UNL     1       3.504   6.092  18.327  0.00  0.00    +0.000 C 
BRANCH  14  15
ATOM     15  C   UNL     1       2.689   4.959  18.889  0.00  0.00    +0.000 A 
ATOM     16  C   UNL     1       2.697   4.446  20.174  0.00  0.00    +0.000 A 
ATOM     17  C   UNL     1       1.753   3.402  20.327  0.00  0.00    +0.000 A 
ATOM     18 BR   UNL     1       1.498   2.518  21.972  0.00  0.00    +0.000 Br
ATOM     19  C   UNL     1       1.058   3.124  19.178  0.00  0.00    +0.000 A 
ATOM     20  S   UNL     1       1.563   4.129  17.889  0.00  0.00    +0.000 S 
ENDBRANCH  14  15
ENDBRANCH   4  14
TORSDOF 3
ENDMDL
MODEL 2
REMARK VINA RESULT:      -6.9      1.267      1.359
REMARK  Name = 
REMARK  3 active torsions:
REMARK  status: ('A' for Active; 'I' for Inactive)
REMARK    1  A    between atoms: C_6  and  N_7
REMARK    2  A    between atoms: N_10  and  C_11
REMARK    3  A    between atoms: C_11  and  C_12
REMARK                            x       y       z     vdW  Elec       q    Type
REMARK                         _______ _______ _______ _____ _____    ______ ____
ROOT
ATOM      1  N   UNL     1       6.263   4.476  15.838  0.00  0.00    +0.000 N 
ATOM      2  C   UNL     1       5.003   4.031  16.451  0.00  0.00    +0.000 C 
ATOM      3  C   UNL     1       5.257   3.587  17.920  0.00  0.00    +0.000 C 
ATOM      4  N   UNL     1       6.006   4.550  18.771  0.00  0.00    +0.000 NA
ATOM      5  C   UNL     1       7.240   4.935  18.040  0.00  0.00    +0.000 C 
ATOM      6  C   UNL     1       6.999   5.485  16.618  0.00  0.00    +0.000 C 
ENDROOT
BRANCH   1  12
ATOM      7 CL   UNL     1       5.300   2.237  11.304  0.00  0.00    +0.000 Cl
ATOM      8  C   UNL     1       6.129   3.381  12.287  0.00  0.00    +0.000 A 
ATOM      9  C   UNL     1       7.101   4.201  11.719  0.00  0.00    +0.000 A 
ATOM     10  C   UNL     1       7.767   5.121  12.515  0.00  0.00    +0.000 A 
ATOM     11  C   UNL     1       7.456   5.212  13.873  0.00  0.00    +0.000 A 
ATOM     12  C   UNL     1       6.484   4.393  14.474  0.00  0.00    +0.000 A 
ATOM     13  C   UNL     1       5.824   3.472  13.649  0.00  0.00    +0.000 A 
ENDBRANCH   1  12
BRANCH   4  14
ATOM     14  C   UNL     1       5.154   5.703  19.114  0.00  0.00    +0.000 C 
BRANCH  14  15
ATOM     15  C   UNL     1       3.823   5.296  19.686  0.00  0.00    +0.000 A 
ATOM     16  C   UNL     1       3.481   4.113  20.317  0.00  0.00    +0.000 A 
ATOM     17  C   UNL     1       2.135   4.124  20.756  0.00  0.00    +0.000 A 
ATOM     18 BR   UNL     1       1.373   2.670  21.682  0.00  0.00    +0.000 Br
ATOM     19  C   UNL     1       1.471   5.285  20.449  0.00  0.00    +0.000 A 
ATOM     20  S   UNL     1       2.485   6.374  19.604  0.00  0.00    +0.000 S 
ENDBRANCH  14  15
ENDBRANCH   4  14
TORSDOF 3
ENDMDL
MODEL 3
REMARK VINA RESULT:      -6.8      2.244      2.624
REMARK  Name = 
REMARK  3 active torsions:
REMARK  status: ('A' for Active; 'I' for Inactive)
REMARK    1  A    between atoms: C_6  and  N_7
REMARK    2  A    between atoms: N_10  and  C_11
REMARK    3  A    between atoms: C_11  and  C_12
REMARK                            x       y       z     vdW  Elec       q    Type
REMARK                         _______ _______ _______ _____ _____    ______ ____
ROOT
ATOM      1  N   UNL     1       5.504   4.968  15.715  0.00  0.00    +0.000 N 
ATOM      2  C   UNL     1       4.979   3.922  16.605  0.00  0.00    +0.000 C 
ATOM      3  C   UNL     1       5.083   4.386  18.086  0.00  0.00    +0.000 C 
ATOM      4  N   UNL     1       4.527   5.734  18.386  0.00  0.00    +0.000 NA
ATOM      5  C   UNL     1       5.114   6.692  17.415  0.00  0.00    +0.000 C 
ATOM      6  C   UNL     1       4.924   6.304  15.934  0.00  0.00    +0.000 C 
ENDROOT
BRANCH   1  12
ATOM      7 CL   UNL     1       5.502   2.149  11.407  0.00  0.00    +0.000 Cl
ATOM      8  C   UNL     1       6.164   3.372  12.422  0.00  0.00    +0.000 A 
ATOM      9  C   UNL     1       7.324   4.037  12.032  0.00  0.00    +0.000 A 
ATOM     10  C   UNL     1       7.855   5.021  12.852  0.00  0.00    +0.000 A 
ATOM     11  C   UNL     1       7.221   5.330  14.057  0.00  0.00    +0.000 A 
ATOM     12  C   UNL     1       6.053   4.671  14.479  0.00  0.00    +0.000 A 
ATOM     13  C   UNL     1       5.536   3.682  13.633  0.00  0.00    +0.000 A 
ENDBRANCH   1  12
BRANCH   4  14
ATOM     14  C   UNL     1       3.054   5.701  18.347  0.00  0.00    +0.000 C 
BRANCH  14  15
ATOM     15  C   UNL     1       2.426   6.934  18.939  0.00  0.00    +0.000 A 
ATOM     16  C   UNL     1       2.056   7.168  20.251  0.00  0.00    +0.000 A 
ATOM     17  C   UNL     1       1.535   8.473  20.424  0.00  0.00    +0.000 A 
ATOM     18 BR   UNL     1       0.971   9.111  22.105  0.00  0.00    +0.000 Br
ATOM     19  C   UNL     1       1.498   9.202  19.262  0.00  0.00    +0.000 A 
ATOM     20  S   UNL     1       2.090   8.293  17.940  0.00  0.00    +0.000 S 
ENDBRANCH  14  15
ENDBRANCH   4  14
TORSDOF 3
ENDMDL
MODEL 4
REMARK VINA RESULT:      -6.8      4.068      7.278
REMARK  Name = 
REMARK  3 active torsions:
REMARK  status: ('A' for Active; 'I' for Inactive)
REMARK    1  A    between atoms: C_6  and  N_7
REMARK    2  A    between atoms: N_10  and  C_11
REMARK    3  A    between atoms: C_11  and  C_12
REMARK                            x       y       z     vdW  Elec       q    Type
REMARK                         _______ _______ _______ _____ _____    ______ ____
ROOT
ATOM      1  N   UNL     1       4.666   5.653  18.225  0.00  0.00    +0.000 N 
ATOM      2  C   UNL     1       4.404   5.440  16.794  0.00  0.00    +0.000 C 
ATOM      3  C   UNL     1       5.405   6.274  15.943  0.00  0.00    +0.000 C 
ATOM      4  N   UNL     1       6.842   6.124  16.298  0.00  0.00    +0.000 NA
ATOM      5  C   UNL     1       6.973   6.342  17.760  0.00  0.00    +0.000 C 
ATOM      6  C   UNL     1       6.066   5.443  18.628  0.00  0.00    +0.000 C 
ENDROOT
BRANCH   1  12
ATOM      7 CL   UNL     1       2.125   2.777  21.656  0.00  0.00    +0.000 Cl
ATOM      8  C   UNL     1       2.379   4.248  20.798  0.00  0.00    +0.000 A 
ATOM      9  C   UNL     1       1.521   5.324  21.008  0.00  0.00    +0.000 A 
ATOM     10  C   UNL     1       1.728   6.507  20.315  0.00  0.00    +0.000 A 
ATOM     11  C   UNL     1       2.792   6.602  19.415  0.00  0.00    +0.000 A 
ATOM     12  C   UNL     1       3.669   5.529  19.179  0.00  0.00    +0.000 A 
ATOM     13  C   UNL     1       3.440   4.346  19.892  0.00  0.00    +0.000 A 
ENDBRANCH   1  12
BRANCH   4  14
ATOM     14  C   UNL     1       7.343   4.808  15.862  0.00  0.00    +0.000 C 
BRANCH  14  15
ATOM     15  C   UNL     1       7.048   4.520  14.415  0.00  0.00    +0.000 A 
ATOM     16  C   UNL     1       6.039   3.739  13.879  0.00  0.00    +0.000 A 
ATOM     17  C   UNL     1       6.065   3.749  12.464  0.00  0.00    +0.000 A 
ATOM     18 BR   UNL     1       4.799   2.807  11.433  0.00  0.00    +0.000 Br
ATOM     19  C   UNL     1       7.082   4.508  11.943  0.00  0.00    +0.000 A 
ATOM     20  S   UNL     1       8.029   5.210  13.182  0.00  0.00    +0.000 S 
ENDBRANCH  14  15
ENDBRANCH   4  14
TORSDOF 3
ENDMDL
MODEL 5
REMARK VINA RESULT:      -6.7      1.460      1.634
REMARK  Name = 
REMARK  3 active torsions:
REMARK  status: ('A' for Active; 'I' for Inactive)
REMARK    1  A    between atoms: C_6  and  N_7
REMARK    2  A    between atoms: N_10  and  C_11
REMARK    3  A    between atoms: C_11  and  C_12
REMARK                            x       y       z     vdW  Elec       q    Type
REMARK                         _______ _______ _______ _____ _____    ______ ____
ROOT
ATOM      1  N   UNL     1       6.398   5.042  15.712  0.00  0.00    +0.000 N 
ATOM      2  C   UNL     1       7.407   4.770  16.747  0.00  0.00    +0.000 C 
ATOM      3  C   UNL     1       7.228   5.761  17.934  0.00  0.00    +0.000 C 
ATOM      4  N   UNL     1       5.850   5.873  18.484  0.00  0.00    +0.000 NA
ATOM      5  C   UNL     1       4.929   6.127  17.348  0.00  0.00    +0.000 C 
ATOM      6  C   UNL     1       5.013   5.090  16.208  0.00  0.00    +0.000 C 
ENDROOT
BRANCH   1  12
ATOM      7 CL   UNL     1       5.403   2.172  11.557  0.00  0.00    +0.000 Cl
ATOM      8  C   UNL     1       6.252   3.433  12.363  0.00  0.00    +0.000 A 
ATOM      9  C   UNL     1       7.243   4.139  11.686  0.00  0.00    +0.000 A 
ATOM     10  C   UNL     1       7.925   5.154  12.339  0.00  0.00    +0.000 A 
ATOM     11  C   UNL     1       7.612   5.453  13.666  0.00  0.00    +0.000 A 
ATOM     12  C   UNL     1       6.621   4.752  14.377  0.00  0.00    +0.000 A 
ATOM     13  C   UNL     1       5.945   3.733  13.695  0.00  0.00    +0.000 A 
ENDBRANCH   1  12
BRANCH   4  14
ATOM     14  C   UNL     1       5.504   4.663  19.251  0.00  0.00    +0.000 C 
BRANCH  14  15
ATOM     15  C   UNL     1       4.019   4.449  19.365  0.00  0.00    +0.000 A 
ATOM     16  C   UNL     1       3.273   3.354  18.970  0.00  0.00    +0.000 A 
ATOM     17  C   UNL     1       1.902   3.511  19.287  0.00  0.00    +0.000 A 
ATOM     18 BR   UNL     1       0.627   2.176  18.906  0.00  0.00    +0.000 Br
ATOM     19  C   UNL     1       1.618   4.707  19.896  0.00  0.00    +0.000 A 
ATOM     20  S   UNL     1       3.026   5.662  20.075  0.00  0.00    +0.000 S 
ENDBRANCH  14  15
ENDBRANCH   4  14
TORSDOF 3
ENDMDL
MODEL 6
REMARK VINA RESULT:      -6.7      5.105      8.030
REMARK  Name = 
REMARK  3 active torsions:
REMARK  status: ('A' for Active; 'I' for Inactive)
REMARK    1  A    between atoms: C_6  and  N_7
REMARK    2  A    between atoms: N_10  and  C_11
REMARK    3  A    between atoms: C_11  and  C_12
REMARK                            x       y       z     vdW  Elec       q    Type
REMARK                         _______ _______ _______ _____ _____    ______ ____
ROOT
ATOM      1  N   UNL     1       2.038   6.776  19.790  0.00  0.00    +0.000 N 
ATOM      2  C   UNL     1       2.258   5.664  20.725  0.00  0.00    +0.000 C 
ATOM      3  C   UNL     1       2.134   4.307  19.973  0.00  0.00    +0.000 C 
ATOM      4  N   UNL     1       2.935   4.180  18.725  0.00  0.00    +0.000 NA
ATOM      5  C   UNL     1       2.642   5.364  17.878  0.00  0.00    +0.000 C 
ATOM      6  C   UNL     1       2.866   6.724  18.573  0.00  0.00    +0.000 C 
ENDROOT
BRANCH   1  12
ATOM      7 CL   UNL     1      -0.138   9.679  23.442  0.00  0.00    +0.000 Cl
ATOM      8  C   UNL     1       0.479   9.449  21.851  0.00  0.00    +0.000 A 
ATOM      9  C   UNL     1       0.415  10.492  20.931  0.00  0.00    +0.000 A 
ATOM     10  C   UNL     1       0.914  10.303  19.651  0.00  0.00    +0.000 A 
ATOM     11  C   UNL     1       1.469   9.071  19.301  0.00  0.00    +0.000 A 
ATOM     12  C   UNL     1       1.541   7.998  20.208  0.00  0.00    +0.000 A 
ATOM     13  C   UNL     1       1.032   8.214  21.495  0.00  0.00    +0.000 A 
ENDBRANCH   1  12
BRANCH   4  14
ATOM     14  C   UNL     1       4.366   4.039  19.046  0.00  0.00    +0.000 C 
BRANCH  14  15
ATOM     15  C   UNL     1       5.258   4.279  17.858  0.00  0.00    +0.000 A 
ATOM     16  C   UNL     1       5.089   3.854  16.553  0.00  0.00    +0.000 A 
ATOM     17  C   UNL     1       6.127   4.321  15.711  0.00  0.00    +0.000 A 
ATOM     18 BR   UNL     1       6.167   3.939  13.866  0.00  0.00    +0.000 Br
ATOM     19  C   UNL     1       7.068   5.070  16.372  0.00  0.00    +0.000 A 
ATOM     20  S   UNL     1       6.700   5.200  18.037  0.00  0.00    +0.000 S 
ENDBRANCH  14  15
ENDBRANCH   4  14
TORSDOF 3
ENDMDL
MODEL 7
REMARK VINA RESULT:      -6.7      3.825      7.057
REMARK  Name = 
REMARK  3 active torsions:
REMARK  status: ('A' for Active; 'I' for Inactive)
REMARK    1  A    between atoms: C_6  and  N_7
REMARK    2  A    between atoms: N_10  and  C_11
REMARK    3  A    between atoms: C_11  and  C_12
REMARK                            x       y       z     vdW  Elec       q    Type
REMARK                         _______ _______ _______ _____ _____    ______ ____
ROOT
ATOM      1  N   UNL     1       4.402   5.211  17.938  0.00  0.00    +0.000 N 
ATOM      2  C   UNL     1       4.337   5.054  16.478  0.00  0.00    +0.000 C 
ATOM      3  C   UNL     1       5.263   6.099  15.791  0.00  0.00    +0.000 C 
ATOM      4  N   UNL     1       6.659   6.167  16.304  0.00  0.00    +0.000 NA
ATOM      5  C   UNL     1       6.591   6.305  17.781  0.00  0.00    +0.000 C 
ATOM      6  C   UNL     1       5.767   5.211  18.492  0.00  0.00    +0.000 C 
ENDROOT
BRANCH   1  12
ATOM      7 CL   UNL     1       0.397   2.145  18.970  0.00  0.00    +0.000 Cl
ATOM      8  C   UNL     1       1.411   3.492  19.324  0.00  0.00    +0.000 A 
ATOM      9  C   UNL     1       1.126   4.297  20.423  0.00  0.00    +0.000 A 
ATOM     10  C   UNL     1       1.944   5.380  20.705  0.00  0.00    +0.000 A 
ATOM     11  C   UNL     1       3.039   5.651  19.881  0.00  0.00    +0.000 A 
ATOM     12  C   UNL     1       3.346   4.858  18.761  0.00  0.00    +0.000 A 
ATOM     13  C   UNL     1       2.506   3.769  18.499  0.00  0.00    +0.000 A 
ENDBRANCH   1  12
BRANCH   4  14
ATOM     14  C   UNL     1       7.424   4.985  15.868  0.00  0.00    +0.000 C 
BRANCH  14  15
ATOM     15  C   UNL     1       7.176   4.627  14.428  0.00  0.00    +0.000 A 
ATOM     16  C   UNL     1       6.287   3.702  13.910  0.00  0.00    +0.000 A 
ATOM     17  C   UNL     1       6.315   3.684  12.495  0.00  0.00    +0.000 A 
ATOM     18 BR   UNL     1       5.195   2.552  11.486  0.00  0.00    +0.000 Br
ATOM     19  C   UNL     1       7.219   4.565  11.957  0.00  0.00    +0.000 A 
ATOM     20  S   UNL     1       8.055   5.419  13.180  0.00  0.00    +0.000 S 
ENDBRANCH  14  15
ENDBRANCH   4  14
TORSDOF 3
ENDMDL
MODEL 8
REMARK VINA RESULT:      -6.6      2.548      2.978
REMARK  Name = 
REMARK  3 active torsions:
REMARK  status: ('A' for Active; 'I' for Inactive)
REMARK    1  A    between atoms: C_6  and  N_7
REMARK    2  A    between atoms: N_10  and  C_11
REMARK    3  A    between atoms: C_11  and  C_12
REMARK                            x       y       z     vdW  Elec       q    Type
REMARK                         _______ _______ _______ _____ _____    ______ ____
ROOT
ATOM      1  N   UNL     1       5.521   4.922  15.699  0.00  0.00    +0.000 N 
ATOM      2  C   UNL     1       4.995   3.867  16.578  0.00  0.00    +0.000 C 
ATOM      3  C   UNL     1       5.108   4.312  18.065  0.00  0.00    +0.000 C 
ATOM      4  N   UNL     1       4.560   5.659  18.384  0.00  0.00    +0.000 NA
ATOM      5  C   UNL     1       5.148   6.626  17.423  0.00  0.00    +0.000 C 
ATOM      6  C   UNL     1       4.949   6.258  15.937  0.00  0.00    +0.000 C 
ENDROOT
BRANCH   1  12
ATOM      7 CL   UNL     1       5.529   2.114  11.385  0.00  0.00    +0.000 Cl
ATOM      8  C   UNL     1       6.178   3.347  12.396  0.00  0.00    +0.000 A 
ATOM      9  C   UNL     1       7.322   4.033  11.997  0.00  0.00    +0.000 A 
ATOM     10  C   UNL     1       7.842   5.025  12.814  0.00  0.00    +0.000 A 
ATOM     11  C   UNL     1       7.215   5.320  14.026  0.00  0.00    +0.000 A 
ATOM     12  C   UNL     1       6.063   4.639  14.457  0.00  0.00    +0.000 A 
ATOM     13  C   UNL     1       5.556   3.642  13.614  0.00  0.00    +0.000 A 
ENDBRANCH   1  12
BRANCH   4  14
ATOM     14  C   UNL     1       3.087   5.634  18.351  0.00  0.00    +0.000 C 
BRANCH  14  15
ATOM     15  C   UNL     1       2.468   6.864  18.960  0.00  0.00    +0.000 A 
ATOM     16  C   UNL     1       2.224   8.090  18.367  0.00  0.00    +0.000 A 
ATOM     17  C   UNL     1       1.585   8.984  19.259  0.00  0.00    +0.000 A 
ATOM     18 BR   UNL     1       1.089  10.728  18.742  0.00  0.00    +0.000 Br
ATOM     19  C   UNL     1       1.366   8.449  20.503  0.00  0.00    +0.000 A 
ATOM     20  S   UNL     1       1.953   6.846  20.601  0.00  0.00    +0.000 S 
ENDBRANCH  14  15
ENDBRANCH   4  14
TORSDOF 3
ENDMDL
MODEL 9
REMARK VINA RESULT:      -6.6      4.840      7.717
REMARK  Name = 
REMARK  3 active torsions:
REMARK  status: ('A' for Active; 'I' for Inactive)
REMARK    1  A    between atoms: C_6  and  N_7
REMARK    2  A    between atoms: N_10  and  C_11
REMARK    3  A    between atoms: C_11  and  C_12
REMARK                            x       y       z     vdW  Elec       q    Type
REMARK                         _______ _______ _______ _____ _____    ______ ____
ROOT
ATOM      1  N   UNL     1       2.619   6.465  19.206  0.00  0.00    +0.000 N 
ATOM      2  C   UNL     1       3.209   5.536  20.181  0.00  0.00    +0.000 C 
ATOM      3  C   UNL     1       3.194   4.089  19.610  0.00  0.00    +0.000 C 
ATOM      4  N   UNL     1       3.756   3.925  18.241  0.00  0.00    +0.000 NA
ATOM      5  C   UNL     1       3.100   4.923  17.360  0.00  0.00    +0.000 C 
ATOM      6  C   UNL     1       3.200   6.382  17.855  0.00  0.00    +0.000 C 
ENDROOT
BRANCH   1  12
ATOM      7 CL   UNL     1       0.184   9.228  22.802  0.00  0.00    +0.000 Cl
ATOM      8  C   UNL     1       0.803   9.016  21.210  0.00  0.00    +0.000 A 
ATOM      9  C   UNL     1       0.614  10.016  20.260  0.00  0.00    +0.000 A 
ATOM     10  C   UNL     1       1.113   9.842  18.978  0.00  0.00    +0.000 A 
ATOM     11  C   UNL     1       1.796   8.667  18.657  0.00  0.00    +0.000 A 
ATOM     12  C   UNL     1       1.996   7.638  19.595  0.00  0.00    +0.000 A 
ATOM     13  C   UNL     1       1.484   7.839  20.883  0.00  0.00    +0.000 A 
ENDBRANCH   1  12
BRANCH   4  14
ATOM     14  C   UNL     1       5.224   4.055  18.270  0.00  0.00    +0.000 C 
BRANCH  14  15
ATOM     15  C   UNL     1       5.817   4.293  16.908  0.00  0.00    +0.000 A 
ATOM     16  C   UNL     1       5.559   3.622  15.726  0.00  0.00    +0.000 A 
ATOM     17  C   UNL     1       6.286   4.172  14.643  0.00  0.00    +0.000 A 
ATOM     18 BR   UNL     1       6.129   3.499  12.889  0.00  0.00    +0.000 Br
ATOM     19  C   UNL     1       7.088   5.225  15.004  0.00  0.00    +0.000 A 
ATOM     20  S   UNL     1       6.970   5.548  16.679  0.00  0.00    +0.000 S 
ENDBRANCH  14  15
ENDBRANCH   4  14
TORSDOF 3
ENDMDL
