MODEL 1
REMARK VINA RESULT:      -7.2      0.000      0.000
REMARK  Name = 
REMARK  1 active torsions:
REMARK  status: ('A' for Active; 'I' for Inactive)
REMARK    1  A    between atoms: N_11  and  C_12
REMARK                            x       y       z     vdW  Elec       q    Type
REMARK                         _______ _______ _______ _____ _____    ______ ____
ROOT
ATOM      1  O   UNL     1       1.989   7.461  17.942  0.00  0.00    +0.000 OA
ATOM      2  C   UNL     1       3.111   6.980  17.876  0.00  0.00    +0.000 C 
ATOM      3  N   UNL     1       4.117   7.582  17.143  0.00  0.00    +0.000 N 
ATOM      4  C   UNL     1       5.386   7.011  17.456  0.00  0.00    +0.000 C 
ATOM      5  C   UNL     1       5.048   5.621  18.067  0.00  0.00    +0.000 C 
ATOM      6  C   UNL     1       6.088   5.300  19.155  0.00  0.00    +0.000 C 
ATOM      7  C   UNL     1       7.490   5.133  18.568  0.00  0.00    +0.000 C 
ATOM      8  N   UNL     1       7.511   4.066  17.570  0.00  0.00    +0.000 NA
ATOM      9  C   UNL     1       6.570   4.309  16.478  0.00  0.00    +0.000 C 
ATOM     10  C   UNL     1       5.134   4.535  16.966  0.00  0.00    +0.000 C 
ATOM     11  N   UNL     1       3.643   5.829  18.506  0.00  0.00    +0.000 N 
ATOM     12  H   UNL     1       3.958   8.520  16.797  0.00  0.00    +0.000 HD
ATOM     13  H   UNL     1       7.280   3.177  18.018  0.00  0.00    +0.000 HD
ENDROOT
BRANCH  11  14
ATOM     14  C   UNL     1       2.808   4.860  19.149  0.00  0.00    +0.000 A 
ATOM     15  C   UNL     1       2.038   3.963  18.389  0.00  0.00    +0.000 A 
ATOM     16  C   UNL     1       1.201   3.012  18.989  0.00  0.00    +0.000 A 
ATOM     17  C   UNL     1       1.112   2.937  20.372  0.00  0.00    +0.000 A 
ATOM     18  C   UNL     1       1.852   3.819  21.147  0.00  0.00    +0.000 A 
ATOM     19  C   UNL     1       2.682   4.771  20.539  0.00  0.00    +0.000 A 
ENDBRANCH  11  14
TORSDOF 1
ENDMDL
MODEL 2
REMARK VINA RESULT:      -7.2      0.283      1.191
REMARK  Name = 
REMARK  1 active torsions:
REMARK  status: ('A' for Active; 'I' for Inactive)
REMARK    1  A    between atoms: N_11  and  C_12
REMARK                            x       y       z     vdW  Elec       q    Type
REMARK                         _______ _______ _______ _____ _____    ______ ____
ROOT
ATOM      1  O   UNL     1       1.923   7.568  18.167  0.00  0.00    +0.000 OA
ATOM      2  C   UNL     1       3.009   7.041  17.974  0.00  0.00    +0.000 C 
ATOM      3  N   UNL     1       3.979   7.644  17.195  0.00  0.00    +0.000 N 
ATOM      4  C   UNL     1       5.239   6.995  17.361  0.00  0.00    +0.000 C 
ATOM      5  C   UNL     1       4.882   5.585  17.910  0.00  0.00    +0.000 C 
ATOM      6  C   UNL     1       5.992   5.144  18.882  0.00  0.00    +0.000 C 
ATOM      7  C   UNL     1       7.329   4.952  18.166  0.00  0.00    +0.000 C 
ATOM      8  N   UNL     1       7.211   3.954  17.105  0.00  0.00    +0.000 NA
ATOM      9  C   UNL     1       6.195   4.312  16.116  0.00  0.00    +0.000 C 
ATOM     10  C   UNL     1       4.819   4.571  16.741  0.00  0.00    +0.000 C 
ATOM     11  N   UNL     1       3.531   5.827  18.483  0.00  0.00    +0.000 N 
ATOM     12  H   UNL     1       3.841   8.608  16.923  0.00  0.00    +0.000 HD
ATOM     13  H   UNL     1       6.973   3.049  17.516  0.00  0.00    +0.000 HD
ENDROOT
BRANCH  11  14
ATOM     14  C   UNL     1       2.704   4.858  19.134  0.00  0.00    +0.000 A 
ATOM     15  C   UNL     1       2.714   4.734  20.534  0.00  0.00    +0.000 A 
ATOM     16  C   UNL     1       1.926   3.786  21.200  0.00  0.00    +0.000 A 
ATOM     17  C   UNL     1       1.104   2.932  20.477  0.00  0.00    +0.000 A 
ATOM     18  C   UNL     1       1.083   3.024  19.092  0.00  0.00    +0.000 A 
ATOM     19  C   UNL     1       1.881   3.971  18.433  0.00  0.00    +0.000 A 
ENDBRANCH  11  14
TORSDOF 1
ENDMDL
MODEL 3
REMARK VINA RESULT:      -7.1      2.236      4.808
REMARK  Name = 
REMARK  1 active torsions:
REMARK  status: ('A' for Active; 'I' for Inactive)
REMARK    1  A    between atoms: N_11  and  C_12
REMARK                            x       y       z     vdW  Elec       q    Type
REMARK                         _______ _______ _______ _____ _____    ______ ____
ROOT
ATOM      1  O   UNL     1       5.142   6.585  17.827  0.00  0.00    +0.000 OA
ATOM      2  C   UNL     1       4.421   5.772  18.387  0.00  0.00    +0.000 C 
ATOM      3  N   UNL     1       4.745   4.429  18.435  0.00  0.00    +0.000 N 
ATOM      4  C   UNL     1       3.925   3.742  19.379  0.00  0.00    +0.000 C 
ATOM      5  C   UNL     1       2.681   4.657  19.554  0.00  0.00    +0.000 C 
ATOM      6  C   UNL     1       2.197   4.552  21.011  0.00  0.00    +0.000 C 
ATOM      7  C   UNL     1       1.692   3.147  21.341  0.00  0.00    +0.000 C 
ATOM      8  N   UNL     1       0.593   2.769  20.455  0.00  0.00    +0.000 NA
ATOM      9  C   UNL     1       0.979   2.811  19.045  0.00  0.00    +0.000 C 
ATOM     10  C   UNL     1       1.543   4.172  18.620  0.00  0.00    +0.000 C 
ATOM     11  N   UNL     1       3.218   5.970  19.106  0.00  0.00    +0.000 N 
ATOM     12  H   UNL     1       5.674   4.152  18.145  0.00  0.00    +0.000 HD
ATOM     13  H   UNL     1      -0.196   3.401  20.604  0.00  0.00    +0.000 HD
ENDROOT
BRANCH  11  14
ATOM     14  C   UNL     1       2.495   7.204  19.053  0.00  0.00    +0.000 A 
ATOM     15  C   UNL     1       1.905   7.738  20.211  0.00  0.00    +0.000 A 
ATOM     16  C   UNL     1       1.180   8.936  20.188  0.00  0.00    +0.000 A 
ATOM     17  C   UNL     1       1.026   9.634  18.999  0.00  0.00    +0.000 A 
ATOM     18  C   UNL     1       1.588   9.124  17.837  0.00  0.00    +0.000 A 
ATOM     19  C   UNL     1       2.306   7.920  17.867  0.00  0.00    +0.000 A 
ENDBRANCH  11  14
TORSDOF 1
ENDMDL
MODEL 4
REMARK VINA RESULT:      -7.1      2.219      4.766
REMARK  Name = 
REMARK  1 active torsions:
REMARK  status: ('A' for Active; 'I' for Inactive)
REMARK    1  A    between atoms: N_11  and  C_12
REMARK                            x       y       z     vdW  Elec       q    Type
REMARK                         _______ _______ _______ _____ _____    ______ ____
ROOT
ATOM      1  O   UNL     1       5.421   6.195  18.312  0.00  0.00    +0.000 OA
ATOM      2  C   UNL     1       4.585   5.410  18.734  0.00  0.00    +0.000 C 
ATOM      3  N   UNL     1       4.835   4.052  18.802  0.00  0.00    +0.000 N 
ATOM      4  C   UNL     1       3.845   3.392  19.591  0.00  0.00    +0.000 C 
ATOM      5  C   UNL     1       2.632   4.365  19.587  0.00  0.00    +0.000 C 
ATOM      6  C   UNL     1       1.919   4.262  20.948  0.00  0.00    +0.000 C 
ATOM      7  C   UNL     1       1.305   2.879  21.163  0.00  0.00    +0.000 C 
ATOM      8  N   UNL     1       0.344   2.568  20.107  0.00  0.00    +0.000 NA
ATOM      9  C   UNL     1       0.949   2.612  18.776  0.00  0.00    +0.000 C 
ATOM     10  C   UNL     1       1.635   3.949  18.476  0.00  0.00    +0.000 C 
ATOM     11  N   UNL     1       3.293   5.656  19.258  0.00  0.00    +0.000 N 
ATOM     12  H   UNL     1       5.784   3.734  18.656  0.00  0.00    +0.000 HD
ATOM     13  H   UNL     1      -0.430   3.235  20.144  0.00  0.00    +0.000 HD
ENDROOT
BRANCH  11  14
ATOM     14  C   UNL     1       2.645   6.924  19.119  0.00  0.00    +0.000 A 
ATOM     15  C   UNL     1       2.687   7.619  17.898  0.00  0.00    +0.000 A 
ATOM     16  C   UNL     1       2.074   8.868  17.735  0.00  0.00    +0.000 A 
ATOM     17  C   UNL     1       1.400   9.457  18.796  0.00  0.00    +0.000 A 
ATOM     18  C   UNL     1       1.352   8.799  20.017  0.00  0.00    +0.000 A 
ATOM     19  C   UNL     1       1.975   7.552  20.174  0.00  0.00    +0.000 A 
ENDBRANCH  11  14
TORSDOF 1
ENDMDL
MODEL 5
REMARK VINA RESULT:      -7.1      2.274      4.590
REMARK  Name = 
REMARK  1 active torsions:
REMARK  status: ('A' for Active; 'I' for Inactive)
REMARK    1  A    between atoms: N_11  and  C_12
REMARK                            x       y       z     vdW  Elec       q    Type
REMARK                         _______ _______ _______ _____ _____    ______ ____
ROOT
ATOM      1  O   UNL     1       6.169   5.916  19.204  0.00  0.00    +0.000 OA
ATOM      2  C   UNL     1       5.309   5.048  19.221  0.00  0.00    +0.000 C 
ATOM      3  N   UNL     1       5.635   3.705  19.250  0.00  0.00    +0.000 N 
ATOM      4  C   UNL     1       4.491   2.911  19.564  0.00  0.00    +0.000 C 
ATOM      5  C   UNL     1       3.278   3.819  19.211  0.00  0.00    +0.000 C 
ATOM      6  C   UNL     1       2.142   3.524  20.208  0.00  0.00    +0.000 C 
ATOM      7  C   UNL     1       1.613   2.098  20.059  0.00  0.00    +0.000 C 
ATOM      8  N   UNL     1       1.119   1.866  18.703  0.00  0.00    +0.000 NA
ATOM      9  C   UNL     1       2.150   2.094  17.691  0.00  0.00    +0.000 C 
ATOM     10  C   UNL     1       2.780   3.488  17.782  0.00  0.00    +0.000 C 
ATOM     11  N   UNL     1       3.898   5.169  19.263  0.00  0.00    +0.000 N 
ATOM     12  H   UNL     1       6.598   3.452  19.429  0.00  0.00    +0.000 HD
ATOM     13  H   UNL     1       0.328   2.487  18.519  0.00  0.00    +0.000 HD
ENDROOT
BRANCH  11  14
ATOM     14  C   UNL     1       3.234   6.413  19.016  0.00  0.00    +0.000 A 
ATOM     15  C   UNL     1       2.356   6.957  19.969  0.00  0.00    +0.000 A 
ATOM     16  C   UNL     1       1.682   8.165  19.751  0.00  0.00    +0.000 A 
ATOM     17  C   UNL     1       1.870   8.863  18.566  0.00  0.00    +0.000 A 
ATOM     18  C   UNL     1       2.723   8.344  17.602  0.00  0.00    +0.000 A 
ATOM     19  C   UNL     1       3.388   7.130  17.826  0.00  0.00    +0.000 A 
ENDBRANCH  11  14
TORSDOF 1
ENDMDL
MODEL 6
REMARK VINA RESULT:      -7.0      2.275      4.495
REMARK  Name = 
REMARK  1 active torsions:
REMARK  status: ('A' for Active; 'I' for Inactive)
REMARK    1  A    between atoms: N_11  and  C_12
REMARK                            x       y       z     vdW  Elec       q    Type
REMARK                         _______ _______ _______ _____ _____    ______ ____
ROOT
ATOM      1  O   UNL     1       6.113   5.949  19.238  0.00  0.00    +0.000 OA
ATOM      2  C   UNL     1       5.264   5.070  19.246  0.00  0.00    +0.000 C 
ATOM      3  N   UNL     1       5.607   3.730  19.267  0.00  0.00    +0.000 N 
ATOM      4  C   UNL     1       4.473   2.920  19.571  0.00  0.00    +0.000 C 
ATOM      5  C   UNL     1       3.250   3.813  19.221  0.00  0.00    +0.000 C 
ATOM      6  C   UNL     1       2.114   3.497  20.211  0.00  0.00    +0.000 C 
ATOM      7  C   UNL     1       1.605   2.065  20.050  0.00  0.00    +0.000 C 
ATOM      8  N   UNL     1       1.118   1.836  18.691  0.00  0.00    +0.000 NA
ATOM      9  C   UNL     1       2.149   2.085  17.684  0.00  0.00    +0.000 C 
ATOM     10  C   UNL     1       2.760   3.487  17.788  0.00  0.00    +0.000 C 
ATOM     11  N   UNL     1       3.852   5.172  19.285  0.00  0.00    +0.000 N 
ATOM     12  H   UNL     1       6.573   3.489  19.447  0.00  0.00    +0.000 HD
ATOM     13  H   UNL     1       0.320   2.448  18.509  0.00  0.00    +0.000 HD
ENDROOT
BRANCH  11  14
ATOM     14  C   UNL     1       3.172   6.408  19.044  0.00  0.00    +0.000 A 
ATOM     15  C   UNL     1       3.352   7.100  17.834  0.00  0.00    +0.000 A 
ATOM     16  C   UNL     1       2.711   8.318  17.575  0.00  0.00    +0.000 A 
ATOM     17  C   UNL     1       1.871   8.879  18.526  0.00  0.00    +0.000 A 
ATOM     18  C   UNL     1       1.685   8.225  19.736  0.00  0.00    +0.000 A 
ATOM     19  C   UNL     1       2.335   7.009  19.990  0.00  0.00    +0.000 A 
ENDBRANCH  11  14
TORSDOF 1
ENDMDL
MODEL 7
REMARK VINA RESULT:      -6.9      1.970      3.501
REMARK  Name = 
REMARK  1 active torsions:
REMARK  status: ('A' for Active; 'I' for Inactive)
REMARK    1  A    between atoms: N_11  and  C_12
REMARK                            x       y       z     vdW  Elec       q    Type
REMARK                         _______ _______ _______ _____ _____    ______ ____
ROOT
ATOM      1  O   UNL     1       1.424   4.346  17.735  0.00  0.00    +0.000 OA
ATOM      2  C   UNL     1       2.615   4.622  17.705  0.00  0.00    +0.000 C 
ATOM      3  N   UNL     1       3.568   3.683  17.353  0.00  0.00    +0.000 N 
ATOM      4  C   UNL     1       4.826   4.307  17.103  0.00  0.00    +0.000 C 
ATOM      5  C   UNL     1       4.739   5.673  17.841  0.00  0.00    +0.000 C 
ATOM      6  C   UNL     1       5.526   6.718  17.029  0.00  0.00    +0.000 C 
ATOM      7  C   UNL     1       7.020   6.396  16.989  0.00  0.00    +0.000 C 
ATOM      8  N   UNL     1       7.576   6.336  18.339  0.00  0.00    +0.000 NA
ATOM      9  C   UNL     1       6.902   5.340  19.172  0.00  0.00    +0.000 C 
ATOM     10  C   UNL     1       5.385   5.548  19.243  0.00  0.00    +0.000 C 
ATOM     11  N   UNL     1       3.267   5.856  17.943  0.00  0.00    +0.000 N 
ATOM     12  H   UNL     1       3.251   2.808  16.956  0.00  0.00    +0.000 HD
ATOM     13  H   UNL     1       7.491   7.253  18.782  0.00  0.00    +0.000 HD
ENDROOT
BRANCH  11  14
ATOM     14  C   UNL     1       2.595   6.966  18.546  0.00  0.00    +0.000 A 
ATOM     15  C   UNL     1       2.230   6.931  19.903  0.00  0.00    +0.000 A 
ATOM     16  C   UNL     1       1.560   7.996  20.518  0.00  0.00    +0.000 A 
ATOM     17  C   UNL     1       1.234   9.130  19.786  0.00  0.00    +0.000 A 
ATOM     18  C   UNL     1       1.572   9.187  18.441  0.00  0.00    +0.000 A 
ATOM     19  C   UNL     1       2.236   8.114  17.831  0.00  0.00    +0.000 A 
ENDBRANCH  11  14
TORSDOF 1
ENDMDL
MODEL 8
REMARK VINA RESULT:      -6.9      1.970      3.379
REMARK  Name = 
REMARK  1 active torsions:
REMARK  status: ('A' for Active; 'I' for Inactive)
REMARK    1  A    between atoms: N_11  and  C_12
REMARK                            x       y       z     vdW  Elec       q    Type
REMARK                         _______ _______ _______ _____ _____    ______ ____
ROOT
ATOM      1  O   UNL     1       1.453   4.304  17.705  0.00  0.00    +0.000 OA
ATOM      2  C   UNL     1       2.640   4.597  17.685  0.00  0.00    +0.000 C 
ATOM      3  N   UNL     1       3.607   3.678  17.320  0.00  0.00    +0.000 N 
ATOM      4  C   UNL     1       4.858   4.323  17.087  0.00  0.00    +0.000 C 
ATOM      5  C   UNL     1       4.749   5.673  17.849  0.00  0.00    +0.000 C 
ATOM      6  C   UNL     1       5.525   6.744  17.060  0.00  0.00    +0.000 C 
ATOM      7  C   UNL     1       7.023   6.443  17.021  0.00  0.00    +0.000 C 
ATOM      8  N   UNL     1       7.574   6.366  18.372  0.00  0.00    +0.000 NA
ATOM      9  C   UNL     1       6.911   5.346  19.183  0.00  0.00    +0.000 C 
ATOM     10  C   UNL     1       5.391   5.532  19.252  0.00  0.00    +0.000 C 
ATOM     11  N   UNL     1       3.274   5.835  17.949  0.00  0.00    +0.000 N 
ATOM     12  H   UNL     1       3.304   2.806  16.906  0.00  0.00    +0.000 HD
ATOM     13  H   UNL     1       7.475   7.274  18.831  0.00  0.00    +0.000 HD
ENDROOT
BRANCH  11  14
ATOM     14  C   UNL     1       2.584   6.925  18.569  0.00  0.00    +0.000 A 
ATOM     15  C   UNL     1       2.258   8.077  17.832  0.00  0.00    +0.000 A 
ATOM     16  C   UNL     1       1.595   9.165  18.414  0.00  0.00    +0.000 A 
ATOM     17  C   UNL     1       1.241   9.128  19.756  0.00  0.00    +0.000 A 
ATOM     18  C   UNL     1       1.562   8.008  20.511  0.00  0.00    +0.000 A 
ATOM     19  C   UNL     1       2.232   6.926  19.922  0.00  0.00    +0.000 A 
ENDBRANCH  11  14
TORSDOF 1
ENDMDL
MODEL 9
REMARK VINA RESULT:      -6.8      1.890      2.991
REMARK  Name = 
REMARK  1 active torsions:
REMARK  status: ('A' for Active; 'I' for Inactive)
REMARK    1  A    between atoms: N_11  and  C_12
REMARK                            x       y       z     vdW  Elec       q    Type
REMARK                         _______ _______ _______ _____ _____    ______ ____
ROOT
ATOM      1  O   UNL     1       3.106   3.313  17.199  0.00  0.00    +0.000 OA
ATOM      2  C   UNL     1       4.123   3.982  17.319  0.00  0.00    +0.000 C 
ATOM      3  N   UNL     1       5.321   3.587  16.752  0.00  0.00    +0.000 N 
ATOM      4  C   UNL     1       6.268   4.654  16.772  0.00  0.00    +0.000 C 
ATOM      5  C   UNL     1       5.753   5.612  17.884  0.00  0.00    +0.000 C 
ATOM      6  C   UNL     1       6.080   7.059  17.473  0.00  0.00    +0.000 C 
ATOM      7  C   UNL     1       7.588   7.305  17.418  0.00  0.00    +0.000 C 
ATOM      8  N   UNL     1       8.206   7.036  18.715  0.00  0.00    +0.000 NA
ATOM      9  C   UNL     1       7.969   5.666  19.168  0.00  0.00    +0.000 C 
ATOM     10  C   UNL     1       6.481   5.301  19.215  0.00  0.00    +0.000 C 
ATOM     11  N   UNL     1       4.318   5.231  17.956  0.00  0.00    +0.000 N 
ATOM     12  H   UNL     1       5.306   2.821  16.091  0.00  0.00    +0.000 HD
ATOM     13  H   UNL     1       7.833   7.686  19.410  0.00  0.00    +0.000 HD
ENDROOT
BRANCH  11  14
ATOM     14  C   UNL     1       3.337   5.799  18.830  0.00  0.00    +0.000 A 
ATOM     15  C   UNL     1       2.905   7.125  18.655  0.00  0.00    +0.000 A 
ATOM     16  C   UNL     1       1.956   7.713  19.501  0.00  0.00    +0.000 A 
ATOM     17  C   UNL     1       1.414   6.985  20.552  0.00  0.00    +0.000 A 
ATOM     18  C   UNL     1       1.831   5.677  20.756  0.00  0.00    +0.000 A 
ATOM     19  C   UNL     1       2.786   5.098  19.908  0.00  0.00    +0.000 A 
ENDBRANCH  11  14
TORSDOF 1
ENDMDL
