MODEL 1
REMARK VINA RESULT:      -7.6      0.000      0.000
REMARK  Name = 
REMARK  8 active torsions:
REMARK  status: ('A' for Active; 'I' for Inactive)
REMARK    1  A    between atoms: C_1  and  C_2
REMARK    2  A    between atoms: C_4  and  C_5
REMARK    3  A    between atoms: C_8  and  C_9
REMARK    4  A    between atoms: C_9  and  C_10
REMARK    5  A    between atoms: C_9  and  C_11
REMARK    6  A    between atoms: C_9  and  C_12
REMARK    7  A    between atoms: C_16  and  C_17
REMARK    8  A    between atoms: N_22  and  C_23
REMARK                            x       y       z     vdW  Elec       q    Type
REMARK                         _______ _______ _______ _____ _____    ______ ____
ROOT
ATOM      1  C   UNL     1       0.458  13.704  19.201  0.00  0.00    +0.000 C 
ATOM      2  C   UNL     1       0.447  12.340  19.794  0.00  0.00    +0.000 A 
ATOM      3  N   UNL     1       1.215  11.366  19.165  0.00  0.00    +0.000 NA
ATOM      4  C   UNL     1       1.053  10.195  19.747  0.00  0.00    +0.000 A 
ATOM      5  S   UNL     1       0.072  10.226  21.146  0.00  0.00    +0.000 S 
ATOM      6  C   UNL     1      -0.243  11.907  20.916  0.00  0.00    +0.000 A 
ENDROOT
BRANCH   6   7
ATOM      7  C   UNL     1      -1.164  12.594  21.826  0.00  0.00    +0.000 A 
ATOM      8  C   UNL     1      -0.716  13.564  22.704  0.00  0.00    +0.000 A 
ATOM      9  C   UNL     1      -1.631  14.019  23.602  0.00  0.00    +0.000 A 
ATOM     10  N   UNL     1      -2.894  13.593  23.618  0.00  0.00    +0.000 NA
ATOM     11  C   UNL     1      -3.283  12.704  22.685  0.00  0.00    +0.000 A 
ATOM     12  N   UNL     1      -4.648  12.387  22.586  0.00  0.00    +0.000 N 
ATOM     13  N   UNL     1      -2.454  12.180  21.778  0.00  0.00    +0.000 NA
ATOM     14  H   UNL     1      -4.768  12.034  21.641  0.00  0.00    +0.000 HD
BRANCH  12  15
ATOM     15  C   UNL     1      -5.466  13.543  22.942  0.00  0.00    +0.000 C 
ATOM     16  C   UNL     1      -6.809  13.121  23.558  0.00  0.00    +0.000 C 
ATOM     17  C   UNL     1      -7.477  14.353  24.165  0.00  0.00    +0.000 C 
ATOM     18  C   UNL     1      -7.638  15.485  23.147  0.00  0.00    +0.000 C 
ATOM     19  C   UNL     1      -6.384  15.749  22.304  0.00  0.00    +0.000 C 
ATOM     20  C   UNL     1      -5.764  14.459  21.754  0.00  0.00    +0.000 C 
ENDBRANCH  12  15
ENDBRANCH   6   7
BRANCH   4  21
ATOM     21  C   UNL     1       1.675   8.948  19.284  0.00  0.00    +0.000 A 
ATOM     22  C   UNL     1       1.751   7.863  20.161  0.00  0.00    +0.000 A 
ATOM     23  C   UNL     1       2.359   6.662  19.777  0.00  0.00    +0.000 A 
ATOM     24  C   UNL     1       2.919   6.502  18.501  0.00  0.00    +0.000 A 
ATOM     25  C   UNL     1       2.844   7.602  17.625  0.00  0.00    +0.000 A 
ATOM     26  C   UNL     1       2.232   8.803  18.010  0.00  0.00    +0.000 A 
BRANCH  24  27
ATOM     27  C   UNL     1       3.586   5.193  18.050  0.00  0.00    +0.000 C 
ATOM     28  C   UNL     1       4.585   5.383  16.888  0.00  0.00    +0.000 C 
ATOM     29  C   UNL     1       4.369   4.580  19.231  0.00  0.00    +0.000 C 
ATOM     30  C   UNL     1       2.518   4.185  17.575  0.00  0.00    +0.000 C 
ENDBRANCH  24  27
ENDBRANCH   4  21
TORSDOF 4
ENDMDL
MODEL 2
REMARK VINA RESULT:      -7.6      4.685     12.842
REMARK  Name = 
REMARK  8 active torsions:
REMARK  status: ('A' for Active; 'I' for Inactive)
REMARK    1  A    between atoms: C_1  and  C_2
REMARK    2  A    between atoms: C_4  and  C_5
REMARK    3  A    between atoms: C_8  and  C_9
REMARK    4  A    between atoms: C_9  and  C_10
REMARK    5  A    between atoms: C_9  and  C_11
REMARK    6  A    between atoms: C_9  and  C_12
REMARK    7  A    between atoms: C_16  and  C_17
REMARK    8  A    between atoms: N_22  and  C_23
REMARK                            x       y       z     vdW  Elec       q    Type
REMARK                         _______ _______ _______ _____ _____    ______ ____
ROOT
ATOM      1  C   UNL     1       3.366   3.433  19.149  0.00  0.00    +0.000 C 
ATOM      2  C   UNL     1       3.398   4.881  18.813  0.00  0.00    +0.000 A 
ATOM      3  N   UNL     1       2.560   5.722  19.536  0.00  0.00    +0.000 NA
ATOM      4  C   UNL     1       2.634   6.958  19.085  0.00  0.00    +0.000 A 
ATOM      5  S   UNL     1       3.798   7.197  17.856  0.00  0.00    +0.000 S 
ATOM      6  C   UNL     1       4.174   5.514  17.851  0.00  0.00    +0.000 A 
ENDROOT
BRANCH   6   7
ATOM      7  C   UNL     1       5.141   4.998  16.879  0.00  0.00    +0.000 A 
ATOM      8  C   UNL     1       6.402   4.585  17.271  0.00  0.00    +0.000 A 
ATOM      9  C   UNL     1       7.263   4.273  16.264  0.00  0.00    +0.000 A 
ATOM     10  N   UNL     1       6.913   4.321  14.979  0.00  0.00    +0.000 NA
ATOM     11  C   UNL     1       5.646   4.658  14.673  0.00  0.00    +0.000 A 
ATOM     12  N   UNL     1       5.222   4.538  13.338  0.00  0.00    +0.000 N 
ATOM     13  N   UNL     1       4.735   5.004  15.586  0.00  0.00    +0.000 NA
ATOM     14  H   UNL     1       4.211   4.466  13.388  0.00  0.00    +0.000 HD
BRANCH  12  15
ATOM     15  C   UNL     1       5.908   3.426  12.684  0.00  0.00    +0.000 C 
ATOM     16  C   UNL     1       7.107   3.908  11.854  0.00  0.00    +0.000 C 
ATOM     17  C   UNL     1       7.938   2.693  11.444  0.00  0.00    +0.000 C 
ATOM     18  C   UNL     1       7.104   1.646  10.702  0.00  0.00    +0.000 C 
ATOM     19  C   UNL     1       5.752   1.344  11.360  0.00  0.00    +0.000 C 
ATOM     20  C   UNL     1       4.996   2.616  11.761  0.00  0.00    +0.000 C 
ENDBRANCH  12  15
ENDBRANCH   6   7
BRANCH   4  21
ATOM     21  C   UNL     1       1.826   8.074  19.592  0.00  0.00    +0.000 A 
ATOM     22  C   UNL     1       1.544   9.147  18.743  0.00  0.00    +0.000 A 
ATOM     23  C   UNL     1       0.802  10.247  19.188  0.00  0.00    +0.000 A 
ATOM     24  C   UNL     1       0.318  10.319  20.502  0.00  0.00    +0.000 A 
ATOM     25  C   UNL     1       0.610   9.237  21.353  0.00  0.00    +0.000 A 
ATOM     26  C   UNL     1       1.351   8.134  20.906  0.00  0.00    +0.000 A 
BRANCH  24  27
ATOM     27  C   UNL     1      -0.506  11.511  21.015  0.00  0.00    +0.000 C 
ATOM     28  C   UNL     1      -1.059  11.305  22.442  0.00  0.00    +0.000 C 
ATOM     29  C   UNL     1       0.381  12.774  21.045  0.00  0.00    +0.000 C 
ATOM     30  C   UNL     1      -1.714  11.764  20.089  0.00  0.00    +0.000 C 
ENDBRANCH  24  27
ENDBRANCH   4  21
TORSDOF 4
ENDMDL
MODEL 3
REMARK VINA RESULT:      -7.5      1.706      2.439
REMARK  Name = 
REMARK  8 active torsions:
REMARK  status: ('A' for Active; 'I' for Inactive)
REMARK    1  A    between atoms: C_1  and  C_2
REMARK    2  A    between atoms: C_4  and  C_5
REMARK    3  A    between atoms: C_8  and  C_9
REMARK    4  A    between atoms: C_9  and  C_10
REMARK    5  A    between atoms: C_9  and  C_11
REMARK    6  A    between atoms: C_9  and  C_12
REMARK    7  A    between atoms: C_16  and  C_17
REMARK    8  A    between atoms: N_22  and  C_23
REMARK                            x       y       z     vdW  Elec       q    Type
REMARK                         _______ _______ _______ _____ _____    ______ ____
ROOT
ATOM      1  C   UNL     1      -0.076   9.440  23.291  0.00  0.00    +0.000 C 
ATOM      2  C   UNL     1       0.265   9.455  21.844  0.00  0.00    +0.000 A 
ATOM      3  N   UNL     1       1.061   8.420  21.366  0.00  0.00    +0.000 NA
ATOM      4  C   UNL     1       1.347   8.600  20.092  0.00  0.00    +0.000 A 
ATOM      5  S   UNL     1       0.578   9.948  19.374  0.00  0.00    +0.000 S 
ATOM      6  C   UNL     1      -0.118  10.388  20.890  0.00  0.00    +0.000 A 
ENDROOT
BRANCH   6   7
ATOM      7  C   UNL     1      -0.913  11.615  20.984  0.00  0.00    +0.000 A 
ATOM      8  C   UNL     1      -1.193  12.377  19.864  0.00  0.00    +0.000 A 
ATOM      9  C   UNL     1      -1.804  13.570  20.098  0.00  0.00    +0.000 A 
ATOM     10  N   UNL     1      -2.153  13.972  21.319  0.00  0.00    +0.000 NA
ATOM     11  C   UNL     1      -1.920  13.145  22.356  0.00  0.00    +0.000 A 
ATOM     12  N   UNL     1      -2.443  13.483  23.616  0.00  0.00    +0.000 N 
ATOM     13  N   UNL     1      -1.304  11.966  22.234  0.00  0.00    +0.000 NA
ATOM     14  H   UNL     1      -2.491  12.605  24.125  0.00  0.00    +0.000 HD
BRANCH  12  15
ATOM     15  C   UNL     1      -3.706  14.202  23.467  0.00  0.00    +0.000 C 
ATOM     16  C   UNL     1      -3.885  15.268  24.558  0.00  0.00    +0.000 C 
ATOM     17  C   UNL     1      -5.064  16.163  24.178  0.00  0.00    +0.000 C 
ATOM     18  C   UNL     1      -6.345  15.361  23.937  0.00  0.00    +0.000 C 
ATOM     19  C   UNL     1      -6.145  14.110  23.072  0.00  0.00    +0.000 C 
ATOM     20  C   UNL     1      -4.929  13.283  23.505  0.00  0.00    +0.000 C 
ENDBRANCH  12  15
ENDBRANCH   6   7
BRANCH   4  21
ATOM     21  C   UNL     1       2.220   7.718  19.307  0.00  0.00    +0.000 A 
ATOM     22  C   UNL     1       2.509   6.442  19.796  0.00  0.00    +0.000 A 
ATOM     23  C   UNL     1       3.359   5.574  19.100  0.00  0.00    +0.000 A 
ATOM     24  C   UNL     1       3.957   5.953  17.889  0.00  0.00    +0.000 A 
ATOM     25  C   UNL     1       3.666   7.243  17.406  0.00  0.00    +0.000 A 
ATOM     26  C   UNL     1       2.813   8.110  18.103  0.00  0.00    +0.000 A 
BRANCH  24  27
ATOM     27  C   UNL     1       4.888   5.019  17.100  0.00  0.00    +0.000 C 
ATOM     28  C   UNL     1       5.263   5.563  15.705  0.00  0.00    +0.000 C 
ATOM     29  C   UNL     1       6.203   4.820  17.883  0.00  0.00    +0.000 C 
ATOM     30  C   UNL     1       4.214   3.647  16.889  0.00  0.00    +0.000 C 
ENDBRANCH  24  27
ENDBRANCH   4  21
TORSDOF 4
ENDMDL
MODEL 4
REMARK VINA RESULT:      -7.5      1.536      2.103
REMARK  Name = 
REMARK  8 active torsions:
REMARK  status: ('A' for Active; 'I' for Inactive)
REMARK    1  A    between atoms: C_1  and  C_2
REMARK    2  A    between atoms: C_4  and  C_5
REMARK    3  A    between atoms: C_8  and  C_9
REMARK    4  A    between atoms: C_9  and  C_10
REMARK    5  A    between atoms: C_9  and  C_11
REMARK    6  A    between atoms: C_9  and  C_12
REMARK    7  A    between atoms: C_16  and  C_17
REMARK    8  A    between atoms: N_22  and  C_23
REMARK                            x       y       z     vdW  Elec       q    Type
REMARK                         _______ _______ _______ _____ _____    ______ ____
ROOT
ATOM      1  C   UNL     1      -0.103   9.630  23.371  0.00  0.00    +0.000 C 
ATOM      2  C   UNL     1       0.170   9.614  21.910  0.00  0.00    +0.000 A 
ATOM      3  N   UNL     1       1.002   8.610  21.428  0.00  0.00    +0.000 NA
ATOM      4  C   UNL     1       1.218   8.761  20.137  0.00  0.00    +0.000 A 
ATOM      5  S   UNL     1       0.341  10.038  19.414  0.00  0.00    +0.000 S 
ATOM      6  C   UNL     1      -0.309  10.490  20.946  0.00  0.00    +0.000 A 
ENDROOT
BRANCH   6   7
ATOM      7  C   UNL     1      -1.169  11.673  21.039  0.00  0.00    +0.000 A 
ATOM      8  C   UNL     1      -0.891  12.822  20.319  0.00  0.00    +0.000 A 
ATOM      9  C   UNL     1      -1.668  13.902  20.603  0.00  0.00    +0.000 A 
ATOM     10  N   UNL     1      -2.663  13.857  21.488  0.00  0.00    +0.000 NA
ATOM     11  C   UNL     1      -2.928  12.686  22.097  0.00  0.00    +0.000 A 
ATOM     12  N   UNL     1      -4.081  12.587  22.893  0.00  0.00    +0.000 N 
ATOM     13  N   UNL     1      -2.208  11.577  21.904  0.00  0.00    +0.000 NA
ATOM     14  H   UNL     1      -4.291  11.594  22.932  0.00  0.00    +0.000 HD
BRANCH  12  15
ATOM     15  C   UNL     1      -5.141  13.442  22.363  0.00  0.00    +0.000 C 
ATOM     16  C   UNL     1      -5.808  14.273  23.469  0.00  0.00    +0.000 C 
ATOM     17  C   UNL     1      -6.689  15.338  22.817  0.00  0.00    +0.000 C 
ATOM     18  C   UNL     1      -7.711  14.732  21.852  0.00  0.00    +0.000 C 
ATOM     19  C   UNL     1      -7.127  13.672  20.908  0.00  0.00    +0.000 C 
ATOM     20  C   UNL     1      -6.239  12.659  21.639  0.00  0.00    +0.000 C 
ENDBRANCH  12  15
ENDBRANCH   6   7
BRANCH   4  21
ATOM     21  C   UNL     1       2.105   7.904  19.340  0.00  0.00    +0.000 A 
ATOM     22  C   UNL     1       2.474   6.655  19.847  0.00  0.00    +0.000 A 
ATOM     23  C   UNL     1       3.339   5.813  19.139  0.00  0.00    +0.000 A 
ATOM     24  C   UNL     1       3.872   6.190  17.898  0.00  0.00    +0.000 A 
ATOM     25  C   UNL     1       3.500   7.451  17.396  0.00  0.00    +0.000 A 
ATOM     26  C   UNL     1       2.631   8.292  18.105  0.00  0.00    +0.000 A 
BRANCH  24  27
ATOM     27  C   UNL     1       4.818   5.282  17.095  0.00  0.00    +0.000 C 
ATOM     28  C   UNL     1       5.260   5.895  15.749  0.00  0.00    +0.000 C 
ATOM     29  C   UNL     1       6.096   5.014  17.919  0.00  0.00    +0.000 C 
ATOM     30  C   UNL     1       4.130   3.937  16.782  0.00  0.00    +0.000 C 
ENDBRANCH  24  27
ENDBRANCH   4  21
TORSDOF 4
ENDMDL
MODEL 5
REMARK VINA RESULT:      -7.5      0.799      1.023
REMARK  Name = 
REMARK  8 active torsions:
REMARK  status: ('A' for Active; 'I' for Inactive)
REMARK    1  A    between atoms: C_1  and  C_2
REMARK    2  A    between atoms: C_4  and  C_5
REMARK    3  A    between atoms: C_8  and  C_9
REMARK    4  A    between atoms: C_9  and  C_10
REMARK    5  A    between atoms: C_9  and  C_11
REMARK    6  A    between atoms: C_9  and  C_12
REMARK    7  A    between atoms: C_16  and  C_17
REMARK    8  A    between atoms: N_22  and  C_23
REMARK                            x       y       z     vdW  Elec       q    Type
REMARK                         _______ _______ _______ _____ _____    ______ ____
ROOT
ATOM      1  C   UNL     1      -1.135  12.507  18.232  0.00  0.00    +0.000 C 
ATOM      2  C   UNL     1      -0.430  11.541  19.116  0.00  0.00    +0.000 A 
ATOM      3  N   UNL     1       0.389  10.598  18.505  0.00  0.00    +0.000 NA
ATOM      4  C   UNL     1       0.887   9.764  19.395  0.00  0.00    +0.000 A 
ATOM      5  S   UNL     1       0.498  10.139  21.017  0.00  0.00    +0.000 S 
ATOM      6  C   UNL     1      -0.486  11.459  20.500  0.00  0.00    +0.000 A 
ENDROOT
BRANCH   6   7
ATOM      7  C   UNL     1      -1.234  12.227  21.498  0.00  0.00    +0.000 A 
ATOM      8  C   UNL     1      -0.594  13.092  22.368  0.00  0.00    +0.000 A 
ATOM      9  C   UNL     1      -1.370  13.630  23.348  0.00  0.00    +0.000 A 
ATOM     10  N   UNL     1      -2.675  13.380  23.448  0.00  0.00    +0.000 NA
ATOM     11  C   UNL     1      -3.249  12.590  22.521  0.00  0.00    +0.000 A 
ATOM     12  N   UNL     1      -4.649  12.467  22.517  0.00  0.00    +0.000 N 
ATOM     13  N   UNL     1      -2.569  11.996  21.537  0.00  0.00    +0.000 NA
ATOM     14  H   UNL     1      -4.885  12.172  21.574  0.00  0.00    +0.000 HD
BRANCH  12  15
ATOM     15  C   UNL     1      -5.271  13.708  22.970  0.00  0.00    +0.000 C 
ATOM     16  C   UNL     1      -6.762  13.516  23.283  0.00  0.00    +0.000 C 
ATOM     17  C   UNL     1      -7.272  14.755  24.017  0.00  0.00    +0.000 C 
ATOM     18  C   UNL     1      -7.008  16.042  23.231  0.00  0.00    +0.000 C 
ATOM     19  C   UNL     1      -5.591  16.140  22.652  0.00  0.00    +0.000 C 
ATOM     20  C   UNL     1      -5.150  14.847  21.955  0.00  0.00    +0.000 C 
ENDBRANCH  12  15
ENDBRANCH   6   7
BRANCH   4  21
ATOM     21  C   UNL     1       1.738   8.614  19.065  0.00  0.00    +0.000 A 
ATOM     22  C   UNL     1       1.864   7.576  19.991  0.00  0.00    +0.000 A 
ATOM     23  C   UNL     1       2.685   6.472  19.737  0.00  0.00    +0.000 A 
ATOM     24  C   UNL     1       3.418   6.367  18.545  0.00  0.00    +0.000 A 
ATOM     25  C   UNL     1       3.292   7.419  17.619  0.00  0.00    +0.000 A 
ATOM     26  C   UNL     1       2.466   8.523  17.875  0.00  0.00    +0.000 A 
BRANCH  24  27
ATOM     27  C   UNL     1       4.322   5.163  18.236  0.00  0.00    +0.000 C 
ATOM     28  C   UNL     1       5.549   5.063  19.167  0.00  0.00    +0.000 C 
ATOM     29  C   UNL     1       3.515   3.857  18.399  0.00  0.00    +0.000 C 
ATOM     30  C   UNL     1       4.853   5.251  16.789  0.00  0.00    +0.000 C 
ENDBRANCH  24  27
ENDBRANCH   4  21
TORSDOF 4
ENDMDL
MODEL 6
REMARK VINA RESULT:      -7.5      4.647     12.794
REMARK  Name = 
REMARK  8 active torsions:
REMARK  status: ('A' for Active; 'I' for Inactive)
REMARK    1  A    between atoms: C_1  and  C_2
REMARK    2  A    between atoms: C_4  and  C_5
REMARK    3  A    between atoms: C_8  and  C_9
REMARK    4  A    between atoms: C_9  and  C_10
REMARK    5  A    between atoms: C_9  and  C_11
REMARK    6  A    between atoms: C_9  and  C_12
REMARK    7  A    between atoms: C_16  and  C_17
REMARK    8  A    between atoms: N_22  and  C_23
REMARK                            x       y       z     vdW  Elec       q    Type
REMARK                         _______ _______ _______ _____ _____    ______ ____
ROOT
ATOM      1  C   UNL     1       3.133   3.493  19.046  0.00  0.00    +0.000 C 
ATOM      2  C   UNL     1       3.256   4.946  18.752  0.00  0.00    +0.000 A 
ATOM      3  N   UNL     1       2.435   5.812  19.466  0.00  0.00    +0.000 NA
ATOM      4  C   UNL     1       2.593   7.053  19.053  0.00  0.00    +0.000 A 
ATOM      5  S   UNL     1       3.817   7.261  17.878  0.00  0.00    +0.000 S 
ATOM      6  C   UNL     1       4.103   5.560  17.840  0.00  0.00    +0.000 A 
ENDROOT
BRANCH   6   7
ATOM      7  C   UNL     1       5.080   5.019  16.893  0.00  0.00    +0.000 A 
ATOM      8  C   UNL     1       6.312   4.554  17.318  0.00  0.00    +0.000 A 
ATOM      9  C   UNL     1       7.191   4.221  16.335  0.00  0.00    +0.000 A 
ATOM     10  N   UNL     1       6.883   4.294  15.041  0.00  0.00    +0.000 NA
ATOM     11  C   UNL     1       5.639   4.681  14.699  0.00  0.00    +0.000 A 
ATOM     12  N   UNL     1       5.253   4.590  13.351  0.00  0.00    +0.000 N 
ATOM     13  N   UNL     1       4.714   5.052  15.588  0.00  0.00    +0.000 NA
ATOM     14  H   UNL     1       4.239   4.555  13.370  0.00  0.00    +0.000 HD
BRANCH  12  15
ATOM     15  C   UNL     1       5.918   3.460  12.706  0.00  0.00    +0.000 C 
ATOM     16  C   UNL     1       7.133   3.910  11.882  0.00  0.00    +0.000 C 
ATOM     17  C   UNL     1       7.938   2.675  11.483  0.00  0.00    +0.000 C 
ATOM     18  C   UNL     1       7.085   1.644  10.739  0.00  0.00    +0.000 C 
ATOM     19  C   UNL     1       5.722   1.376  11.390  0.00  0.00    +0.000 C 
ATOM     20  C   UNL     1       4.993   2.667  11.781  0.00  0.00    +0.000 C 
ENDBRANCH  12  15
ENDBRANCH   6   7
BRANCH   4  21
ATOM     21  C   UNL     1       1.826   8.197  19.560  0.00  0.00    +0.000 A 
ATOM     22  C   UNL     1       1.454   8.221  20.907  0.00  0.00    +0.000 A 
ATOM     23  C   UNL     1       0.698   9.275  21.432  0.00  0.00    +0.000 A 
ATOM     24  C   UNL     1       0.281  10.346  20.628  0.00  0.00    +0.000 A 
ATOM     25  C   UNL     1       0.655  10.313  19.271  0.00  0.00    +0.000 A 
ATOM     26  C   UNL     1       1.414   9.258  18.747  0.00  0.00    +0.000 A 
BRANCH  24  27
ATOM     27  C   UNL     1      -0.543  11.521  21.179  0.00  0.00    +0.000 C 
ATOM     28  C   UNL     1       0.278  12.817  21.351  0.00  0.00    +0.000 C 
ATOM     29  C   UNL     1      -1.702  11.837  20.210  0.00  0.00    +0.000 C 
ATOM     30  C   UNL     1      -1.125  11.162  22.562  0.00  0.00    +0.000 C 
ENDBRANCH  24  27
ENDBRANCH   4  21
TORSDOF 4
ENDMDL
MODEL 7
REMARK VINA RESULT:      -7.5      1.969      3.108
REMARK  Name = 
REMARK  8 active torsions:
REMARK  status: ('A' for Active; 'I' for Inactive)
REMARK    1  A    between atoms: C_1  and  C_2
REMARK    2  A    between atoms: C_4  and  C_5
REMARK    3  A    between atoms: C_8  and  C_9
REMARK    4  A    between atoms: C_9  and  C_10
REMARK    5  A    between atoms: C_9  and  C_11
REMARK    6  A    between atoms: C_9  and  C_12
REMARK    7  A    between atoms: C_16  and  C_17
REMARK    8  A    between atoms: N_22  and  C_23
REMARK                            x       y       z     vdW  Elec       q    Type
REMARK                         _______ _______ _______ _____ _____    ______ ____
ROOT
ATOM      1  C   UNL     1      -0.239   9.327  23.098  0.00  0.00    +0.000 C 
ATOM      2  C   UNL     1       0.295   9.431  21.714  0.00  0.00    +0.000 A 
ATOM      3  N   UNL     1       0.996   8.337  21.218  0.00  0.00    +0.000 NA
ATOM      4  C   UNL     1       1.474   8.594  20.017  0.00  0.00    +0.000 A 
ATOM      5  S   UNL     1       1.007  10.108  19.374  0.00  0.00    +0.000 S 
ATOM      6  C   UNL     1       0.180  10.500  20.837  0.00  0.00    +0.000 A 
ENDROOT
BRANCH   6   7
ATOM      7  C   UNL     1      -0.441  11.819  20.977  0.00  0.00    +0.000 A 
ATOM      8  C   UNL     1      -0.938  12.500  19.880  0.00  0.00    +0.000 A 
ATOM      9  C   UNL     1      -1.348  13.777  20.110  0.00  0.00    +0.000 A 
ATOM     10  N   UNL     1      -1.317  14.333  21.321  0.00  0.00    +0.000 NA
ATOM     11  C   UNL     1      -0.894  13.587  22.359  0.00  0.00    +0.000 A 
ATOM     12  N   UNL     1      -1.026  14.106  23.658  0.00  0.00    +0.000 N 
ATOM     13  N   UNL     1      -0.448  12.334  22.231  0.00  0.00    +0.000 NA
ATOM     14  H   UNL     1      -1.018  13.294  24.268  0.00  0.00    +0.000 HD
BRANCH  12  15
ATOM     15  C   UNL     1      -2.208  14.959  23.748  0.00  0.00    +0.000 C 
ATOM     16  C   UNL     1      -1.988  16.136  24.710  0.00  0.00    +0.000 C 
ATOM     17  C   UNL     1      -3.135  17.130  24.536  0.00  0.00    +0.000 C 
ATOM     18  C   UNL     1      -4.504  16.474  24.729  0.00  0.00    +0.000 C 
ATOM     19  C   UNL     1      -4.662  15.133  24.000  0.00  0.00    +0.000 C 
ATOM     20  C   UNL     1      -3.459  14.206  24.208  0.00  0.00    +0.000 C 
ENDBRANCH  12  15
ENDBRANCH   6   7
BRANCH   4  21
ATOM     21  C   UNL     1       2.314   7.669  19.246  0.00  0.00    +0.000 A 
ATOM     22  C   UNL     1       2.568   6.395  19.760  0.00  0.00    +0.000 A 
ATOM     23  C   UNL     1       3.385   5.487  19.077  0.00  0.00    +0.000 A 
ATOM     24  C   UNL     1       3.985   5.822  17.854  0.00  0.00    +0.000 A 
ATOM     25  C   UNL     1       3.730   7.109  17.345  0.00  0.00    +0.000 A 
ATOM     26  C   UNL     1       2.909   8.016  18.029  0.00  0.00    +0.000 A 
BRANCH  24  27
ATOM     27  C   UNL     1       4.881   4.842  17.079  0.00  0.00    +0.000 C 
ATOM     28  C   UNL     1       4.227   3.463  16.852  0.00  0.00    +0.000 C 
ATOM     29  C   UNL     1       5.206   5.431  15.689  0.00  0.00    +0.000 C 
ATOM     30  C   UNL     1       6.199   4.603  17.846  0.00  0.00    +0.000 C 
ENDBRANCH  24  27
ENDBRANCH   4  21
TORSDOF 4
ENDMDL
MODEL 8
REMARK VINA RESULT:      -7.5      2.513      3.559
REMARK  Name = 
REMARK  8 active torsions:
REMARK  status: ('A' for Active; 'I' for Inactive)
REMARK    1  A    between atoms: C_1  and  C_2
REMARK    2  A    between atoms: C_4  and  C_5
REMARK    3  A    between atoms: C_8  and  C_9
REMARK    4  A    between atoms: C_9  and  C_10
REMARK    5  A    between atoms: C_9  and  C_11
REMARK    6  A    between atoms: C_9  and  C_12
REMARK    7  A    between atoms: C_16  and  C_17
REMARK    8  A    between atoms: N_22  and  C_23
REMARK                            x       y       z     vdW  Elec       q    Type
REMARK                         _______ _______ _______ _____ _____    ______ ____
ROOT
ATOM      1  C   UNL     1      -0.183   9.409  23.358  0.00  0.00    +0.000 C 
ATOM      2  C   UNL     1       0.258   9.455  21.939  0.00  0.00    +0.000 A 
ATOM      3  N   UNL     1       1.012   8.384  21.472  0.00  0.00    +0.000 NA
ATOM      4  C   UNL     1       1.398   8.591  20.228  0.00  0.00    +0.000 A 
ATOM      5  S   UNL     1       0.776  10.017  19.519  0.00  0.00    +0.000 S 
ATOM      6  C   UNL     1       0.008  10.448  21.003  0.00  0.00    +0.000 A 
ENDROOT
BRANCH   6   7
ATOM      7  C   UNL     1      -0.705  11.724  21.096  0.00  0.00    +0.000 A 
ATOM      8  C   UNL     1      -1.782  12.008  20.274  0.00  0.00    +0.000 A 
ATOM      9  C   UNL     1      -2.263  13.278  20.345  0.00  0.00    +0.000 A 
ATOM     10  N   UNL     1      -1.764  14.190  21.179  0.00  0.00    +0.000 NA
ATOM     11  C   UNL     1      -0.767  13.823  22.006  0.00  0.00    +0.000 A 
ATOM     12  N   UNL     1      -0.358  14.722  23.006  0.00  0.00    +0.000 N 
ATOM     13  N   UNL     1      -0.210  12.609  21.996  0.00  0.00    +0.000 NA
ATOM     14  H   UNL     1       0.091  14.145  23.712  0.00  0.00    +0.000 HD
BRANCH  12  15
ATOM     15  C   UNL     1      -1.491  15.522  23.465  0.00  0.00    +0.000 C 
ATOM     16  C   UNL     1      -1.095  16.988  23.695  0.00  0.00    +0.000 C 
ATOM     17  C   UNL     1      -2.365  17.815  23.886  0.00  0.00    +0.000 C 
ATOM     18  C   UNL     1      -3.245  17.270  25.014  0.00  0.00    +0.000 C 
ATOM     19  C   UNL     1      -3.432  15.747  24.980  0.00  0.00    +0.000 C 
ATOM     20  C   UNL     1      -2.113  14.998  24.761  0.00  0.00    +0.000 C 
ENDBRANCH  12  15
ENDBRANCH   6   7
BRANCH   4  21
ATOM     21  C   UNL     1       2.261   7.679  19.467  0.00  0.00    +0.000 A 
ATOM     22  C   UNL     1       2.762   8.095  18.231  0.00  0.00    +0.000 A 
ATOM     23  C   UNL     1       3.566   7.252  17.455  0.00  0.00    +0.000 A 
ATOM     24  C   UNL     1       3.896   5.958  17.884  0.00  0.00    +0.000 A 
ATOM     25  C   UNL     1       3.383   5.545  19.127  0.00  0.00    +0.000 A 
ATOM     26  C   UNL     1       2.580   6.390  19.905  0.00  0.00    +0.000 A 
BRANCH  24  27
ATOM     27  C   UNL     1       4.783   5.015  17.055  0.00  0.00    +0.000 C 
ATOM     28  C   UNL     1       6.088   4.613  17.774  0.00  0.00    +0.000 C 
ATOM     29  C   UNL     1       4.008   3.715  16.751  0.00  0.00    +0.000 C 
ATOM     30  C   UNL     1       5.181   5.687  15.725  0.00  0.00    +0.000 C 
ENDBRANCH  24  27
ENDBRANCH   4  21
TORSDOF 4
ENDMDL
MODEL 9
REMARK VINA RESULT:      -7.4      1.589      2.450
REMARK  Name = 
REMARK  8 active torsions:
REMARK  status: ('A' for Active; 'I' for Inactive)
REMARK    1  A    between atoms: C_1  and  C_2
REMARK    2  A    between atoms: C_4  and  C_5
REMARK    3  A    between atoms: C_8  and  C_9
REMARK    4  A    between atoms: C_9  and  C_10
REMARK    5  A    between atoms: C_9  and  C_11
REMARK    6  A    between atoms: C_9  and  C_12
REMARK    7  A    between atoms: C_16  and  C_17
REMARK    8  A    between atoms: N_22  and  C_23
REMARK                            x       y       z     vdW  Elec       q    Type
REMARK                         _______ _______ _______ _____ _____    ______ ____
ROOT
ATOM      1  C   UNL     1      -0.057   9.538  23.374  0.00  0.00    +0.000 C 
ATOM      2  C   UNL     1       0.244   9.490  21.919  0.00  0.00    +0.000 A 
ATOM      3  N   UNL     1       1.088   8.477  21.476  0.00  0.00    +0.000 NA
ATOM      4  C   UNL     1       1.328   8.598  20.186  0.00  0.00    +0.000 A 
ATOM      5  S   UNL     1       0.462   9.855  19.417  0.00  0.00    +0.000 S 
ATOM      6  C   UNL     1      -0.219  10.341  20.926  0.00  0.00    +0.000 A 
ENDROOT
BRANCH   6   7
ATOM      7  C   UNL     1      -1.083  11.523  20.974  0.00  0.00    +0.000 A 
ATOM      8  C   UNL     1      -0.836  12.628  20.179  0.00  0.00    +0.000 A 
ATOM      9  C   UNL     1      -1.610  13.719  20.423  0.00  0.00    +0.000 A 
ATOM     10  N   UNL     1      -2.578  13.723  21.339  0.00  0.00    +0.000 NA
ATOM     11  C   UNL     1      -2.815  12.589  22.025  0.00  0.00    +0.000 A 
ATOM     12  N   UNL     1      -3.943  12.533  22.861  0.00  0.00    +0.000 N 
ATOM     13  N   UNL     1      -2.095  11.474  21.876  0.00  0.00    +0.000 NA
ATOM     14  H   UNL     1      -4.145  11.543  22.966  0.00  0.00    +0.000 HD
BRANCH  12  15
ATOM     15  C   UNL     1      -5.024  13.349  22.314  0.00  0.00    +0.000 C 
ATOM     16  C   UNL     1      -5.928  13.911  23.421  0.00  0.00    +0.000 C 
ATOM     17  C   UNL     1      -6.844  14.972  22.814  0.00  0.00    +0.000 C 
ATOM     18  C   UNL     1      -7.649  14.432  21.629  0.00  0.00    +0.000 C 
ATOM     19  C   UNL     1      -6.819  13.610  20.633  0.00  0.00    +0.000 C 
ATOM     20  C   UNL     1      -5.912  12.588  21.327  0.00  0.00    +0.000 C 
ENDBRANCH  12  15
ENDBRANCH   6   7
BRANCH   4  21
ATOM     21  C   UNL     1       2.231   7.725  19.427  0.00  0.00    +0.000 A 
ATOM     22  C   UNL     1       2.737   8.172  18.204  0.00  0.00    +0.000 A 
ATOM     23  C   UNL     1       3.579   7.367  17.429  0.00  0.00    +0.000 A 
ATOM     24  C   UNL     1       3.945   6.078  17.847  0.00  0.00    +0.000 A 
ATOM     25  C   UNL     1       3.427   5.632  19.077  0.00  0.00    +0.000 A 
ATOM     26  C   UNL     1       2.586   6.442  19.853  0.00  0.00    +0.000 A 
BRANCH  24  27
ATOM     27  C   UNL     1       4.874   5.175  17.020  0.00  0.00    +0.000 C 
ATOM     28  C   UNL     1       6.199   4.841  17.736  0.00  0.00    +0.000 C 
ATOM     29  C   UNL     1       4.162   3.837  16.725  0.00  0.00    +0.000 C 
ATOM     30  C   UNL     1       5.235   5.859  15.685  0.00  0.00    +0.000 C 
ENDBRANCH  24  27
ENDBRANCH   4  21
TORSDOF 4
ENDMDL
