MODEL 1
REMARK VINA RESULT:      -6.6      0.000      0.000
REMARK  Name = 
REMARK  2 active torsions:
REMARK  status: ('A' for Active; 'I' for Inactive)
REMARK    1  A    between atoms: C_2  and  C_3
REMARK    2  A    between atoms: C_9  and  N_10
REMARK                            x       y       z     vdW  Elec       q    Type
REMARK                         _______ _______ _______ _____ _____    ______ ____
ROOT
ATOM      1  C   UNL     1       5.450   4.497  16.615  0.00  0.00    +0.000 A 
ATOM      2  C   UNL     1       4.767   4.201  15.429  0.00  0.00    +0.000 A 
ATOM      3  C   UNL     1       5.431   4.235  14.197  0.00  0.00    +0.000 A 
ATOM      4  C   UNL     1       6.757   4.655  14.130  0.00  0.00    +0.000 A 
ATOM      5 CL   UNL     1       7.563   4.683  12.612  0.00  0.00    +0.000 Cl
ATOM      6  C   UNL     1       7.429   5.052  15.280  0.00  0.00    +0.000 A 
ATOM      7  C   UNL     1       6.766   4.964  16.516  0.00  0.00    +0.000 A 
ENDROOT
BRANCH   1   9
ATOM      8  O   UNL     1       4.852   3.308  18.503  0.00  0.00    +0.000 OA
ATOM      9  C   UNL     1       4.761   4.390  17.927  0.00  0.00    +0.000 C 
ATOM     10  N   UNL     1       4.042   5.470  18.445  0.00  0.00    +0.000 N 
ATOM     11  C   UNL     1       3.481   5.343  19.795  0.00  0.00    +0.000 C 
ATOM     12  C   UNL     1       2.133   6.063  19.913  0.00  0.00    +0.000 C 
ATOM     13  O   UNL     1       2.247   7.438  19.513  0.00  0.00    +0.000 OA
ATOM     14  C   UNL     1       2.647   7.516  18.141  0.00  0.00    +0.000 C 
ATOM     15  C   UNL     1       4.002   6.843  17.917  0.00  0.00    +0.000 C 
ENDBRANCH   1   9
BRANCH   7  16
ATOM     16  N   UNL     1       7.527   5.334  17.691  0.00  0.00    +0.000 N 
ATOM     17  O   UNL     1       8.126   4.420  18.278  0.00  0.00    +0.000 OA
ATOM     18  O   UNL     1       7.611   6.545  17.951  0.00  0.00    +0.000 OA
ENDBRANCH   7  16
TORSDOF 2
ENDMDL
MODEL 2
REMARK VINA RESULT:      -6.4      3.043      3.904
REMARK  Name = 
REMARK  2 active torsions:
REMARK  status: ('A' for Active; 'I' for Inactive)
REMARK    1  A    between atoms: C_2  and  C_3
REMARK    2  A    between atoms: C_9  and  N_10
REMARK                            x       y       z     vdW  Elec       q    Type
REMARK                         _______ _______ _______ _____ _____    ______ ____
ROOT
ATOM      1  C   UNL     1       6.254   5.380  17.680  0.00  0.00    +0.000 A 
ATOM      2  C   UNL     1       7.391   5.219  18.481  0.00  0.00    +0.000 A 
ATOM      3  C   UNL     1       8.183   6.320  18.826  0.00  0.00    +0.000 A 
ATOM      4  C   UNL     1       7.898   7.577  18.298  0.00  0.00    +0.000 A 
ATOM      5 CL   UNL     1       8.873   8.924  18.736  0.00  0.00    +0.000 Cl
ATOM      6  C   UNL     1       6.835   7.747  17.418  0.00  0.00    +0.000 A 
ATOM      7  C   UNL     1       6.019   6.643  17.121  0.00  0.00    +0.000 A 
ENDROOT
BRANCH   1   9
ATOM      8  O   UNL     1       5.684   3.547  16.394  0.00  0.00    +0.000 OA
ATOM      9  C   UNL     1       5.376   4.221  17.376  0.00  0.00    +0.000 C 
ATOM     10  N   UNL     1       4.259   3.947  18.167  0.00  0.00    +0.000 N 
ATOM     11  C   UNL     1       3.496   2.724  17.887  0.00  0.00    +0.000 C 
ATOM     12  C   UNL     1       1.997   2.930  18.124  0.00  0.00    +0.000 C 
ATOM     13  O   UNL     1       1.748   3.418  19.452  0.00  0.00    +0.000 OA
ATOM     14  C   UNL     1       2.380   4.689  19.633  0.00  0.00    +0.000 C 
ATOM     15  C   UNL     1       3.894   4.589  19.440  0.00  0.00    +0.000 C 
ENDBRANCH   1   9
BRANCH   7  16
ATOM     16  N   UNL     1       4.890   6.883  16.247  0.00  0.00    +0.000 N 
ATOM     17  O   UNL     1       3.826   7.218  16.789  0.00  0.00    +0.000 OA
ATOM     18  O   UNL     1       5.105   6.846  15.025  0.00  0.00    +0.000 OA
ENDBRANCH   7  16
TORSDOF 2
ENDMDL
MODEL 3
REMARK VINA RESULT:      -6.2      3.399      5.946
REMARK  Name = 
REMARK  2 active torsions:
REMARK  status: ('A' for Active; 'I' for Inactive)
REMARK    1  A    between atoms: C_2  and  C_3
REMARK    2  A    between atoms: C_9  and  N_10
REMARK                            x       y       z     vdW  Elec       q    Type
REMARK                         _______ _______ _______ _____ _____    ______ ____
ROOT
ATOM      1  C   UNL     1       3.000   4.971  19.200  0.00  0.00    +0.000 A 
ATOM      2  C   UNL     1       2.626   5.440  20.465  0.00  0.00    +0.000 A 
ATOM      3  C   UNL     1       2.072   4.572  21.413  0.00  0.00    +0.000 A 
ATOM      4  C   UNL     1       1.800   3.249  21.073  0.00  0.00    +0.000 A 
ATOM      5 CL   UNL     1       1.127   2.191  22.248  0.00  0.00    +0.000 Cl
ATOM      6  C   UNL     1       2.068   2.783  19.791  0.00  0.00    +0.000 A 
ATOM      7  C   UNL     1       2.671   3.651  18.866  0.00  0.00    +0.000 A 
ENDROOT
BRANCH   1   9
ATOM      8  O   UNL     1       2.911   6.632  17.598  0.00  0.00    +0.000 OA
ATOM      9  C   UNL     1       3.654   5.878  18.223  0.00  0.00    +0.000 C 
ATOM     10  N   UNL     1       5.037   5.843  18.033  0.00  0.00    +0.000 N 
ATOM     11  C   UNL     1       5.639   6.840  17.139  0.00  0.00    +0.000 C 
ATOM     12  C   UNL     1       6.823   6.257  16.361  0.00  0.00    +0.000 C 
ATOM     13  O   UNL     1       7.795   5.689  17.254  0.00  0.00    +0.000 OA
ATOM     14  C   UNL     1       7.209   4.615  17.995  0.00  0.00    +0.000 C 
ATOM     15  C   UNL     1       6.023   5.098  18.832  0.00  0.00    +0.000 C 
ENDBRANCH   1   9
BRANCH   7  16
ATOM     16  N   UNL     1       2.982   3.102  17.563  0.00  0.00    +0.000 N 
ATOM     17  O   UNL     1       4.051   2.479  17.462  0.00  0.00    +0.000 OA
ATOM     18  O   UNL     1       2.110   3.199  16.686  0.00  0.00    +0.000 OA
ENDBRANCH   7  16
TORSDOF 2
ENDMDL
MODEL 4
REMARK VINA RESULT:      -6.2      2.958      5.451
REMARK  Name = 
REMARK  2 active torsions:
REMARK  status: ('A' for Active; 'I' for Inactive)
REMARK    1  A    between atoms: C_2  and  C_3
REMARK    2  A    between atoms: C_9  and  N_10
REMARK                            x       y       z     vdW  Elec       q    Type
REMARK                         _______ _______ _______ _____ _____    ______ ____
ROOT
ATOM      1  C   UNL     1       4.904   6.401  17.741  0.00  0.00    +0.000 A 
ATOM      2  C   UNL     1       3.809   7.206  17.401  0.00  0.00    +0.000 A 
ATOM      3  C   UNL     1       2.718   7.329  18.269  0.00  0.00    +0.000 A 
ATOM      4  C   UNL     1       2.668   6.576  19.440  0.00  0.00    +0.000 A 
ATOM      5 CL   UNL     1       1.327   6.743  20.501  0.00  0.00    +0.000 Cl
ATOM      6  C   UNL     1       3.696   5.693  19.752  0.00  0.00    +0.000 A 
ATOM      7  C   UNL     1       4.808   5.618  18.898  0.00  0.00    +0.000 A 
ENDROOT
BRANCH   1   9
ATOM      8  O   UNL     1       6.967   7.172  17.044  0.00  0.00    +0.000 OA
ATOM      9  C   UNL     1       6.091   6.331  16.852  0.00  0.00    +0.000 C 
ATOM     10  N   UNL     1       6.173   5.362  15.849  0.00  0.00    +0.000 N 
ATOM     11  C   UNL     1       7.419   5.268  15.078  0.00  0.00    +0.000 C 
ATOM     12  C   UNL     1       7.149   4.893  13.618  0.00  0.00    +0.000 C 
ATOM     13  O   UNL     1       6.380   3.682  13.532  0.00  0.00    +0.000 OA
ATOM     14  C   UNL     1       5.108   3.866  14.160  0.00  0.00    +0.000 C 
ATOM     15  C   UNL     1       5.264   4.224  15.638  0.00  0.00    +0.000 C 
ENDBRANCH   1   9
BRANCH   7  16
ATOM     16  N   UNL     1       5.877   4.727  19.297  0.00  0.00    +0.000 N 
ATOM     17  O   UNL     1       6.870   5.249  19.825  0.00  0.00    +0.000 OA
ATOM     18  O   UNL     1       5.669   3.509  19.182  0.00  0.00    +0.000 OA
ENDBRANCH   7  16
TORSDOF 2
ENDMDL
MODEL 5
REMARK VINA RESULT:      -6.1      3.299      5.859
REMARK  Name = 
REMARK  2 active torsions:
REMARK  status: ('A' for Active; 'I' for Inactive)
REMARK    1  A    between atoms: C_2  and  C_3
REMARK    2  A    between atoms: C_9  and  N_10
REMARK                            x       y       z     vdW  Elec       q    Type
REMARK                         _______ _______ _______ _____ _____    ______ ____
ROOT
ATOM      1  C   UNL     1       2.985   5.728  18.340  0.00  0.00    +0.000 A 
ATOM      2  C   UNL     1       2.683   7.075  18.106  0.00  0.00    +0.000 A 
ATOM      3  C   UNL     1       2.121   7.866  19.115  0.00  0.00    +0.000 A 
ATOM      4  C   UNL     1       1.769   7.294  20.335  0.00  0.00    +0.000 A 
ATOM      5 CL   UNL     1       1.087   8.277  21.569  0.00  0.00    +0.000 Cl
ATOM      6  C   UNL     1       1.964   5.935  20.558  0.00  0.00    +0.000 A 
ATOM      7  C   UNL     1       2.577   5.166  19.555  0.00  0.00    +0.000 A 
ENDROOT
BRANCH   1   9
ATOM      8  O   UNL     1       3.050   3.900  16.929  0.00  0.00    +0.000 OA
ATOM      9  C   UNL     1       3.648   4.912  17.291  0.00  0.00    +0.000 C 
ATOM     10  N   UNL     1       4.891   5.287  16.776  0.00  0.00    +0.000 N 
ATOM     11  C   UNL     1       5.442   4.506  15.662  0.00  0.00    +0.000 C 
ATOM     12  C   UNL     1       6.968   4.395  15.754  0.00  0.00    +0.000 C 
ATOM     13  O   UNL     1       7.573   5.695  15.841  0.00  0.00    +0.000 OA
ATOM     14  C   UNL     1       7.129   6.363  17.026  0.00  0.00    +0.000 C 
ATOM     15  C   UNL     1       5.610   6.547  17.024  0.00  0.00    +0.000 C 
ENDBRANCH   1   9
BRANCH   7  16
ATOM     16  N   UNL     1       2.811   3.769  19.858  0.00  0.00    +0.000 N 
ATOM     17  O   UNL     1       3.972   3.450  20.156  0.00  0.00    +0.000 OA
ATOM     18  O   UNL     1       1.817   3.028  19.905  0.00  0.00    +0.000 OA
ENDBRANCH   7  16
TORSDOF 2
ENDMDL
MODEL 6
REMARK VINA RESULT:      -6.1      2.093      2.884
REMARK  Name = 
REMARK  2 active torsions:
REMARK  status: ('A' for Active; 'I' for Inactive)
REMARK    1  A    between atoms: C_2  and  C_3
REMARK    2  A    between atoms: C_9  and  N_10
REMARK                            x       y       z     vdW  Elec       q    Type
REMARK                         _______ _______ _______ _____ _____    ______ ____
ROOT
ATOM      1  C   UNL     1       4.545   5.567  17.609  0.00  0.00    +0.000 A 
ATOM      2  C   UNL     1       4.346   6.110  16.334  0.00  0.00    +0.000 A 
ATOM      3  C   UNL     1       5.291   5.914  15.320  0.00  0.00    +0.000 A 
ATOM      4  C   UNL     1       6.485   5.253  15.596  0.00  0.00    +0.000 A 
ATOM      5 CL   UNL     1       7.633   5.011  14.340  0.00  0.00    +0.000 Cl
ATOM      6  C   UNL     1       6.753   4.792  16.881  0.00  0.00    +0.000 A 
ATOM      7  C   UNL     1       5.774   4.951  17.875  0.00  0.00    +0.000 A 
ENDROOT
BRANCH   1   9
ATOM      8  O   UNL     1       3.561   6.740  19.339  0.00  0.00    +0.000 OA
ATOM      9  C   UNL     1       3.507   5.715  18.661  0.00  0.00    +0.000 C 
ATOM     10  N   UNL     1       2.546   4.721  18.859  0.00  0.00    +0.000 N 
ATOM     11  C   UNL     1       1.479   4.975  19.835  0.00  0.00    +0.000 C 
ATOM     12  C   UNL     1       1.076   3.695  20.573  0.00  0.00    +0.000 C 
ATOM     13  O   UNL     1       0.712   2.659  19.646  0.00  0.00    +0.000 OA
ATOM     14  C   UNL     1       1.830   2.331  18.816  0.00  0.00    +0.000 C 
ATOM     15  C   UNL     1       2.300   3.544  18.011  0.00  0.00    +0.000 C 
ENDBRANCH   1   9
BRANCH   7  16
ATOM     16  N   UNL     1       6.076   4.402  19.180  0.00  0.00    +0.000 N 
ATOM     17  O   UNL     1       6.800   5.088  19.919  0.00  0.00    +0.000 OA
ATOM     18  O   UNL     1       5.500   3.350  19.498  0.00  0.00    +0.000 OA
ENDBRANCH   7  16
TORSDOF 2
ENDMDL
MODEL 7
REMARK VINA RESULT:      -6.0      3.083      4.053
REMARK  Name = 
REMARK  2 active torsions:
REMARK  status: ('A' for Active; 'I' for Inactive)
REMARK    1  A    between atoms: C_2  and  C_3
REMARK    2  A    between atoms: C_9  and  N_10
REMARK                            x       y       z     vdW  Elec       q    Type
REMARK                         _______ _______ _______ _____ _____    ______ ____
ROOT
ATOM      1  C   UNL     1       4.007   4.767  17.537  0.00  0.00    +0.000 A 
ATOM      2  C   UNL     1       5.188   4.245  16.995  0.00  0.00    +0.000 A 
ATOM      3  C   UNL     1       6.341   5.033  16.904  0.00  0.00    +0.000 A 
ATOM      4  C   UNL     1       6.299   6.377  17.266  0.00  0.00    +0.000 A 
ATOM      5 CL   UNL     1       7.723   7.332  17.158  0.00  0.00    +0.000 Cl
ATOM      6  C   UNL     1       5.112   6.948  17.712  0.00  0.00    +0.000 A 
ATOM      7  C   UNL     1       3.976   6.132  17.847  0.00  0.00    +0.000 A 
ENDROOT
BRANCH   1   9
ATOM      8  O   UNL     1       2.162   3.675  16.678  0.00  0.00    +0.000 OA
ATOM      9  C   UNL     1       2.808   3.907  17.699  0.00  0.00    +0.000 C 
ATOM     10  N   UNL     1       2.446   3.418  18.955  0.00  0.00    +0.000 N 
ATOM     11  C   UNL     1       1.319   2.480  19.036  0.00  0.00    +0.000 C 
ATOM     12  C   UNL     1       0.508   2.685  20.319  0.00  0.00    +0.000 C 
ATOM     13  O   UNL     1       1.351   2.601  21.479  0.00  0.00    +0.000 OA
ATOM     14  C   UNL     1       2.341   3.633  21.440  0.00  0.00    +0.000 C 
ATOM     15  C   UNL     1       3.228   3.505  20.200  0.00  0.00    +0.000 C 
ENDBRANCH   1   9
BRANCH   7  16
ATOM     16  N   UNL     1       2.781   6.761  18.369  0.00  0.00    +0.000 N 
ATOM     17  O   UNL     1       2.667   6.801  19.604  0.00  0.00    +0.000 OA
ATOM     18  O   UNL     1       2.025   7.305  17.550  0.00  0.00    +0.000 OA
ENDBRANCH   7  16
TORSDOF 2
ENDMDL
MODEL 8
REMARK VINA RESULT:      -6.0      3.593      6.248
REMARK  Name = 
REMARK  2 active torsions:
REMARK  status: ('A' for Active; 'I' for Inactive)
REMARK    1  A    between atoms: C_2  and  C_3
REMARK    2  A    between atoms: C_9  and  N_10
REMARK                            x       y       z     vdW  Elec       q    Type
REMARK                         _______ _______ _______ _____ _____    ______ ____
ROOT
ATOM      1  C   UNL     1       2.639   5.112  19.202  0.00  0.00    +0.000 A 
ATOM      2  C   UNL     1       2.837   5.343  20.568  0.00  0.00    +0.000 A 
ATOM      3  C   UNL     1       2.373   4.430  21.521  0.00  0.00    +0.000 A 
ATOM      4  C   UNL     1       1.625   3.324  21.122  0.00  0.00    +0.000 A 
ATOM      5 CL   UNL     1       1.067   2.205  22.302  0.00  0.00    +0.000 Cl
ATOM      6  C   UNL     1       1.326   3.125  19.779  0.00  0.00    +0.000 A 
ATOM      7  C   UNL     1       1.843   4.022  18.830  0.00  0.00    +0.000 A 
ENDROOT
BRANCH   1   9
ATOM      8  O   UNL     1       2.588   7.102  18.030  0.00  0.00    +0.000 OA
ATOM      9  C   UNL     1       3.197   6.046  18.191  0.00  0.00    +0.000 C 
ATOM     10  N   UNL     1       4.342   5.710  17.465  0.00  0.00    +0.000 N 
ATOM     11  C   UNL     1       4.911   6.720  16.564  0.00  0.00    +0.000 C 
ATOM     12  C   UNL     1       5.502   6.079  15.304  0.00  0.00    +0.000 C 
ATOM     13  O   UNL     1       6.464   5.069  15.643  0.00  0.00    +0.000 OA
ATOM     14  C   UNL     1       5.833   4.023  16.389  0.00  0.00    +0.000 C 
ATOM     15  C   UNL     1       5.227   4.555  17.688  0.00  0.00    +0.000 C 
ENDBRANCH   1   9
BRANCH   7  16
ATOM     16  N   UNL     1       1.552   3.738  17.440  0.00  0.00    +0.000 N 
ATOM     17  O   UNL     1       0.686   4.441  16.897  0.00  0.00    +0.000 OA
ATOM     18  O   UNL     1       2.268   2.897  16.874  0.00  0.00    +0.000 OA
ENDBRANCH   7  16
TORSDOF 2
ENDMDL
MODEL 9
REMARK VINA RESULT:      -6.0      1.616      1.795
REMARK  Name = 
REMARK  2 active torsions:
REMARK  status: ('A' for Active; 'I' for Inactive)
REMARK    1  A    between atoms: C_2  and  C_3
REMARK    2  A    between atoms: C_9  and  N_10
REMARK                            x       y       z     vdW  Elec       q    Type
REMARK                         _______ _______ _______ _____ _____    ______ ____
ROOT
ATOM      1  C   UNL     1       5.797   4.507  16.959  0.00  0.00    +0.000 A 
ATOM      2  C   UNL     1       5.546   3.554  15.964  0.00  0.00    +0.000 A 
ATOM      3  C   UNL     1       6.101   3.695  14.687  0.00  0.00    +0.000 A 
ATOM      4  C   UNL     1       6.834   4.835  14.365  0.00  0.00    +0.000 A 
ATOM      5 CL   UNL     1       7.517   4.991  12.796  0.00  0.00    +0.000 Cl
ATOM      6  C   UNL     1       7.013   5.844  15.304  0.00  0.00    +0.000 A 
ATOM      7  C   UNL     1       6.494   5.666  16.597  0.00  0.00    +0.000 A 
ENDROOT
BRANCH   1   9
ATOM      8  O   UNL     1       6.096   4.078  19.209  0.00  0.00    +0.000 OA
ATOM      9  C   UNL     1       5.267   4.317  18.333  0.00  0.00    +0.000 C 
ATOM     10  N   UNL     1       3.895   4.394  18.585  0.00  0.00    +0.000 N 
ATOM     11  C   UNL     1       3.441   4.313  19.978  0.00  0.00    +0.000 C 
ATOM     12  C   UNL     1       2.103   3.575  20.091  0.00  0.00    +0.000 C 
ATOM     13  O   UNL     1       1.111   4.176  19.245  0.00  0.00    +0.000 OA
ATOM     14  C   UNL     1       1.521   4.095  17.877  0.00  0.00    +0.000 C 
ATOM     15  C   UNL     1       2.845   4.826  17.648  0.00  0.00    +0.000 C 
ENDBRANCH   1   9
BRANCH   7  16
ATOM     16  N   UNL     1       6.756   6.719  17.555  0.00  0.00    +0.000 N 
ATOM     17  O   UNL     1       7.830   6.656  18.173  0.00  0.00    +0.000 OA
ATOM     18  O   UNL     1       5.944   7.656  17.601  0.00  0.00    +0.000 OA
ENDBRANCH   7  16
TORSDOF 2
ENDMDL
