MODEL 1
REMARK VINA RESULT:      -7.7      0.000      0.000
REMARK  Name = 
REMARK  13 active torsions:
REMARK  status: ('A' for Active; 'I' for Inactive)
REMARK    1  A    between atoms: C_1  and  C_2
REMARK    2  A    between atoms: C_2  and  C_3
REMARK    3  A    between atoms: C_3  and  C_4
REMARK    4  A    between atoms: C_4  and  N_5
REMARK    5  A    between atoms: N_5  and  C_6
REMARK    6  A    between atoms: C_6  and  C_7
REMARK    7  A    between atoms: C_7  and  C_8
REMARK    8  A    between atoms: N_10  and  C_11
REMARK    9  A    between atoms: C_11  and  C_12
REMARK   10  A    between atoms: C_12  and  C_13
REMARK   11  A    between atoms: C_19  and  C_21
REMARK   12  A    between atoms: C_23  and  C_24
REMARK   13  A    between atoms: C_26  and  C_27
REMARK                            x       y       z     vdW  Elec       q    Type
REMARK                         _______ _______ _______ _____ _____    ______ ____
ROOT
ATOM      1  N   UNL     1       6.056   5.157  17.040  0.00  0.00    +0.000 N 
ATOM      2  C   UNL     1       6.938   4.560  16.116  0.00  0.00    +0.000 C 
ATOM      3  O   UNL     1       8.069   4.218  16.473  0.00  0.00    +0.000 OA
ENDROOT
BRANCH   2   4
ATOM      4  C   UNL     1       6.515   4.284  14.739  0.00  0.00    +0.000 A 
ATOM      5  C   UNL     1       5.372   3.613  14.209  0.00  0.00    +0.000 A 
ATOM      6  C   UNL     1       5.480   3.630  12.837  0.00  0.00    +0.000 A 
ATOM      7  C   UNL     1       4.643   3.078  11.754  0.00  0.00    +0.000 C 
ATOM      8  O   UNL     1       6.575   4.333  12.469  0.00  0.00    +0.000 OA
ATOM      9  C   UNL     1       7.178   4.766  13.611  0.00  0.00    +0.000 A 
ATOM     10  C   UNL     1       8.360   5.639  13.412  0.00  0.00    +0.000 C 
ENDBRANCH   2   4
BRANCH   1  11
ATOM     11  C   UNL     1       6.538   5.317  18.418  0.00  0.00    +0.000 C 
BRANCH  11  12
ATOM     12  C   UNL     1       7.630   6.383  18.576  0.00  0.00    +0.000 C 
BRANCH  12  14
ATOM     13  C   UNL     1       8.236   8.814  18.051  0.00  0.00    +0.000 C 
ATOM     14  C   UNL     1       7.616   7.518  17.547  0.00  0.00    +0.000 C 
ENDBRANCH  12  14
ENDBRANCH  11  12
ENDBRANCH   1  11
BRANCH   1  15
ATOM     15  C   UNL     1       4.637   5.473  16.811  0.00  0.00    +0.000 C 
BRANCH  15  16
ATOM     16  C   UNL     1       4.288   6.929  17.105  0.00  0.00    +0.000 C 
BRANCH  16  17
ATOM     17  C   UNL     1       3.158   7.028  18.112  0.00  0.00    +0.000 C 
ATOM     18  O   UNL     1       2.226   7.815  18.006  0.00  0.00    +0.000 OA
ATOM     19  N   UNL     1       3.289   6.140  19.161  0.00  0.00    +0.000 N 
ATOM     20  H   UNL     1       4.029   5.449  19.139  0.00  0.00    +0.000 HD
BRANCH  19  21
ATOM     21  C   UNL     1       2.270   6.057  20.193  0.00  0.00    +0.000 C 
BRANCH  21  22
ATOM     22  C   UNL     1       1.335   4.858  20.021  0.00  0.00    +0.000 C 
BRANCH  22  23
ATOM     23  C   UNL     1       2.083   3.706  19.395  0.00  0.00    +0.000 A 
ATOM     24  C   UNL     1       3.141   3.093  20.079  0.00  0.00    +0.000 A 
ATOM     25  C   UNL     1       3.929   2.132  19.443  0.00  0.00    +0.000 A 
ATOM     26  C   UNL     1       3.662   1.773  18.123  0.00  0.00    +0.000 A 
ATOM     27  C   UNL     1       2.591   2.353  17.446  0.00  0.00    +0.000 A 
ATOM     28  C   UNL     1       1.802   3.313  18.079  0.00  0.00    +0.000 A 
ENDBRANCH  22  23
ENDBRANCH  21  22
ENDBRANCH  19  21
ENDBRANCH  16  17
ENDBRANCH  15  16
ENDBRANCH   1  15
TORSDOF 10
ENDMDL
MODEL 2
REMARK VINA RESULT:      -7.7      3.482      5.985
REMARK  Name = 
REMARK  13 active torsions:
REMARK  status: ('A' for Active; 'I' for Inactive)
REMARK    1  A    between atoms: C_1  and  C_2
REMARK    2  A    between atoms: C_2  and  C_3
REMARK    3  A    between atoms: C_3  and  C_4
REMARK    4  A    between atoms: C_4  and  N_5
REMARK    5  A    between atoms: N_5  and  C_6
REMARK    6  A    between atoms: C_6  and  C_7
REMARK    7  A    between atoms: C_7  and  C_8
REMARK    8  A    between atoms: N_10  and  C_11
REMARK    9  A    between atoms: C_11  and  C_12
REMARK   10  A    between atoms: C_12  and  C_13
REMARK   11  A    between atoms: C_19  and  C_21
REMARK   12  A    between atoms: C_23  and  C_24
REMARK   13  A    between atoms: C_26  and  C_27
REMARK                            x       y       z     vdW  Elec       q    Type
REMARK                         _______ _______ _______ _____ _____    ______ ____
ROOT
ATOM      1  N   UNL     1       3.897   5.063  18.583  0.00  0.00    +0.000 N 
ATOM      2  C   UNL     1       4.547   3.982  17.954  0.00  0.00    +0.000 C 
ATOM      3  O   UNL     1       4.312   2.824  18.312  0.00  0.00    +0.000 OA
ENDROOT
BRANCH   2   4
ATOM      4  C   UNL     1       5.468   4.204  16.835  0.00  0.00    +0.000 A 
ATOM      5  C   UNL     1       5.270   4.200  15.420  0.00  0.00    +0.000 A 
ATOM      6  C   UNL     1       6.486   4.458  14.830  0.00  0.00    +0.000 A 
ATOM      7  C   UNL     1       6.923   4.547  13.423  0.00  0.00    +0.000 C 
ATOM      8  O   UNL     1       7.417   4.702  15.779  0.00  0.00    +0.000 OA
ATOM      9  C   UNL     1       6.799   4.592  16.988  0.00  0.00    +0.000 A 
ATOM     10  C   UNL     1       7.643   4.914  18.163  0.00  0.00    +0.000 C 
ENDBRANCH   2   4
BRANCH   1  11
ATOM     11  C   UNL     1       2.928   4.737  19.639  0.00  0.00    +0.000 C 
BRANCH  11  12
ATOM     12  C   UNL     1       1.584   4.218  19.112  0.00  0.00    +0.000 C 
BRANCH  12  14
ATOM     13  C   UNL     1       1.481   3.002  21.361  0.00  0.00    +0.000 C 
ATOM     14  C   UNL     1       0.896   3.147  19.963  0.00  0.00    +0.000 C 
ENDBRANCH  12  14
ENDBRANCH  11  12
ENDBRANCH   1  11
BRANCH   1  15
ATOM     15  C   UNL     1       3.953   6.474  18.170  0.00  0.00    +0.000 C 
BRANCH  15  16
ATOM     16  C   UNL     1       2.614   7.011  17.673  0.00  0.00    +0.000 C 
BRANCH  16  17
ATOM     17  C   UNL     1       2.078   8.087  18.598  0.00  0.00    +0.000 C 
ATOM     18  O   UNL     1       2.054   7.978  19.818  0.00  0.00    +0.000 OA
ATOM     19  N   UNL     1       1.619   9.201  17.923  0.00  0.00    +0.000 N 
ATOM     20  H   UNL     1       1.758   9.268  16.923  0.00  0.00    +0.000 HD
BRANCH  19  21
ATOM     21  C   UNL     1       1.119  10.353  18.651  0.00  0.00    +0.000 C 
BRANCH  21  22
ATOM     22  C   UNL     1      -0.365  10.242  19.009  0.00  0.00    +0.000 C 
BRANCH  22  23
ATOM     23  C   UNL     1      -0.573  10.593  20.462  0.00  0.00    +0.000 A 
ATOM     24  C   UNL     1      -0.268   9.665  21.466  0.00  0.00    +0.000 A 
ATOM     25  C   UNL     1      -0.601   9.929  22.796  0.00  0.00    +0.000 A 
ATOM     26  C   UNL     1      -1.235  11.124  23.132  0.00  0.00    +0.000 A 
ATOM     27  C   UNL     1      -1.512  12.067  22.145  0.00  0.00    +0.000 A 
ATOM     28  C   UNL     1      -1.181  11.806  20.815  0.00  0.00    +0.000 A 
ENDBRANCH  22  23
ENDBRANCH  21  22
ENDBRANCH  19  21
ENDBRANCH  16  17
ENDBRANCH  15  16
ENDBRANCH   1  15
TORSDOF 10
ENDMDL
MODEL 3
REMARK VINA RESULT:      -7.7      3.952      6.220
REMARK  Name = 
REMARK  13 active torsions:
REMARK  status: ('A' for Active; 'I' for Inactive)
REMARK    1  A    between atoms: C_1  and  C_2
REMARK    2  A    between atoms: C_2  and  C_3
REMARK    3  A    between atoms: C_3  and  C_4
REMARK    4  A    between atoms: C_4  and  N_5
REMARK    5  A    between atoms: N_5  and  C_6
REMARK    6  A    between atoms: C_6  and  C_7
REMARK    7  A    between atoms: C_7  and  C_8
REMARK    8  A    between atoms: N_10  and  C_11
REMARK    9  A    between atoms: C_11  and  C_12
REMARK   10  A    between atoms: C_12  and  C_13
REMARK   11  A    between atoms: C_19  and  C_21
REMARK   12  A    between atoms: C_23  and  C_24
REMARK   13  A    between atoms: C_26  and  C_27
REMARK                            x       y       z     vdW  Elec       q    Type
REMARK                         _______ _______ _______ _____ _____    ______ ____
ROOT
ATOM      1  N   UNL     1       3.306   4.946  17.767  0.00  0.00    +0.000 N 
ATOM      2  C   UNL     1       4.022   3.964  17.051  0.00  0.00    +0.000 C 
ATOM      3  O   UNL     1       3.631   2.794  17.045  0.00  0.00    +0.000 OA
ENDROOT
BRANCH   2   4
ATOM      4  C   UNL     1       5.206   4.320  16.261  0.00  0.00    +0.000 A 
ATOM      5  C   UNL     1       5.391   4.526  14.860  0.00  0.00    +0.000 A 
ATOM      6  C   UNL     1       6.717   4.833  14.658  0.00  0.00    +0.000 A 
ATOM      7  C   UNL     1       7.512   5.113  13.446  0.00  0.00    +0.000 C 
ATOM      8  O   UNL     1       7.359   4.910  15.845  0.00  0.00    +0.000 OA
ATOM      9  C   UNL     1       6.442   4.645  16.817  0.00  0.00    +0.000 A 
ATOM     10  C   UNL     1       6.940   4.768  18.208  0.00  0.00    +0.000 C 
ENDBRANCH   2   4
BRANCH   1  11
ATOM     11  C   UNL     1       2.086   4.510  18.459  0.00  0.00    +0.000 C 
BRANCH  11  12
ATOM     12  C   UNL     1       2.345   3.577  19.650  0.00  0.00    +0.000 C 
BRANCH  12  14
ATOM     13  C   UNL     1       1.512   2.509  21.821  0.00  0.00    +0.000 C 
ATOM     14  C   UNL     1       1.202   3.444  20.661  0.00  0.00    +0.000 C 
ENDBRANCH  12  14
ENDBRANCH  11  12
ENDBRANCH   1  11
BRANCH   1  15
ATOM     15  C   UNL     1       3.554   6.395  17.743  0.00  0.00    +0.000 C 
BRANCH  15  16
ATOM     16  C   UNL     1       2.735   7.165  18.775  0.00  0.00    +0.000 C 
BRANCH  16  17
ATOM     17  C   UNL     1       2.206   8.463  18.198  0.00  0.00    +0.000 C 
ATOM     18  O   UNL     1       2.561   8.916  17.116  0.00  0.00    +0.000 OA
ATOM     19  N   UNL     1       1.283   9.083  19.017  0.00  0.00    +0.000 N 
ATOM     20  H   UNL     1       0.959   8.608  19.850  0.00  0.00    +0.000 HD
BRANCH  19  21
ATOM     21  C   UNL     1       0.630  10.311  18.600  0.00  0.00    +0.000 C 
BRANCH  21  22
ATOM     22  C   UNL     1      -0.708  10.551  19.303  0.00  0.00    +0.000 C 
BRANCH  22  23
ATOM     23  C   UNL     1      -1.824  10.599  18.287  0.00  0.00    +0.000 A 
ATOM     24  C   UNL     1      -1.715   9.894  17.081  0.00  0.00    +0.000 A 
ATOM     25  C   UNL     1      -2.674  10.059  16.080  0.00  0.00    +0.000 A 
ATOM     26  C   UNL     1      -3.749  10.922  16.279  0.00  0.00    +0.000 A 
ATOM     27  C   UNL     1      -3.884  11.601  17.488  0.00  0.00    +0.000 A 
ATOM     28  C   UNL     1      -2.927  11.439  18.491  0.00  0.00    +0.000 A 
ENDBRANCH  22  23
ENDBRANCH  21  22
ENDBRANCH  19  21
ENDBRANCH  16  17
ENDBRANCH  15  16
ENDBRANCH   1  15
TORSDOF 10
ENDMDL
MODEL 4
REMARK VINA RESULT:      -7.6      2.700      8.220
REMARK  Name = 
REMARK  13 active torsions:
REMARK  status: ('A' for Active; 'I' for Inactive)
REMARK    1  A    between atoms: C_1  and  C_2
REMARK    2  A    between atoms: C_2  and  C_3
REMARK    3  A    between atoms: C_3  and  C_4
REMARK    4  A    between atoms: C_4  and  N_5
REMARK    5  A    between atoms: N_5  and  C_6
REMARK    6  A    between atoms: C_6  and  C_7
REMARK    7  A    between atoms: C_7  and  C_8
REMARK    8  A    between atoms: N_10  and  C_11
REMARK    9  A    between atoms: C_11  and  C_12
REMARK   10  A    between atoms: C_12  and  C_13
REMARK   11  A    between atoms: C_19  and  C_21
REMARK   12  A    between atoms: C_23  and  C_24
REMARK   13  A    between atoms: C_26  and  C_27
REMARK                            x       y       z     vdW  Elec       q    Type
REMARK                         _______ _______ _______ _____ _____    ______ ____
ROOT
ATOM      1  N   UNL     1       4.748   4.924  18.023  0.00  0.00    +0.000 N 
ATOM      2  C   UNL     1       3.344   5.026  18.092  0.00  0.00    +0.000 C 
ATOM      3  O   UNL     1       2.636   4.360  17.331  0.00  0.00    +0.000 OA
ENDROOT
BRANCH   2   4
ATOM      4  C   UNL     1       2.698   5.877  19.097  0.00  0.00    +0.000 A 
ATOM      5  C   UNL     1       2.403   7.274  19.116  0.00  0.00    +0.000 A 
ATOM      6  C   UNL     1       1.795   7.553  20.319  0.00  0.00    +0.000 A 
ATOM      7  C   UNL     1       1.296   8.801  20.930  0.00  0.00    +0.000 C 
ATOM      8  O   UNL     1       1.619   6.412  21.022  0.00  0.00    +0.000 OA
ATOM      9  C   UNL     1       2.122   5.394  20.271  0.00  0.00    +0.000 A 
ATOM     10  C   UNL     1       1.941   4.036  20.840  0.00  0.00    +0.000 C 
ENDBRANCH   2   4
BRANCH   1  11
ATOM     11  C   UNL     1       5.302   3.982  17.041  0.00  0.00    +0.000 C 
BRANCH  11  12
ATOM     12  C   UNL     1       5.353   4.533  15.609  0.00  0.00    +0.000 C 
BRANCH  12  14
ATOM     13  C   UNL     1       7.171   4.994  13.868  0.00  0.00    +0.000 C 
ATOM     14  C   UNL     1       6.443   3.951  14.704  0.00  0.00    +0.000 C 
ENDBRANCH  12  14
ENDBRANCH  11  12
ENDBRANCH   1  11
BRANCH   1  15
ATOM     15  C   UNL     1       5.713   5.528  18.955  0.00  0.00    +0.000 C 
BRANCH  15  16
ATOM     16  C   UNL     1       7.125   5.624  18.385  0.00  0.00    +0.000 C 
BRANCH  16  17
ATOM     17  C   UNL     1       7.394   7.004  17.818  0.00  0.00    +0.000 C 
ATOM     18  O   UNL     1       6.898   7.415  16.775  0.00  0.00    +0.000 OA
ATOM     19  N   UNL     1       8.255   7.751  18.596  0.00  0.00    +0.000 N 
ATOM     20  H   UNL     1       8.551   7.391  19.495  0.00  0.00    +0.000 HD
BRANCH  19  21
ATOM     21  C   UNL     1       8.585   9.118  18.235  0.00  0.00    +0.000 C 
BRANCH  21  22
ATOM     22  C   UNL     1       9.116   9.941  19.412  0.00  0.00    +0.000 C 
BRANCH  22  23
ATOM     23  C   UNL     1       9.620  11.276  18.922  0.00  0.00    +0.000 A 
ATOM     24  C   UNL     1       9.190  12.463  19.530  0.00  0.00    +0.000 A 
ATOM     25  C   UNL     1       9.535  13.700  18.983  0.00  0.00    +0.000 A 
ATOM     26  C   UNL     1      10.316  13.761  17.831  0.00  0.00    +0.000 A 
ATOM     27  C   UNL     1      10.777  12.586  17.239  0.00  0.00    +0.000 A 
ATOM     28  C   UNL     1      10.434  11.348  17.783  0.00  0.00    +0.000 A 
ENDBRANCH  22  23
ENDBRANCH  21  22
ENDBRANCH  19  21
ENDBRANCH  16  17
ENDBRANCH  15  16
ENDBRANCH   1  15
TORSDOF 10
ENDMDL
MODEL 5
REMARK VINA RESULT:      -7.6      3.648      6.112
REMARK  Name = 
REMARK  13 active torsions:
REMARK  status: ('A' for Active; 'I' for Inactive)
REMARK    1  A    between atoms: C_1  and  C_2
REMARK    2  A    between atoms: C_2  and  C_3
REMARK    3  A    between atoms: C_3  and  C_4
REMARK    4  A    between atoms: C_4  and  N_5
REMARK    5  A    between atoms: N_5  and  C_6
REMARK    6  A    between atoms: C_6  and  C_7
REMARK    7  A    between atoms: C_7  and  C_8
REMARK    8  A    between atoms: N_10  and  C_11
REMARK    9  A    between atoms: C_11  and  C_12
REMARK   10  A    between atoms: C_12  and  C_13
REMARK   11  A    between atoms: C_19  and  C_21
REMARK   12  A    between atoms: C_23  and  C_24
REMARK   13  A    between atoms: C_26  and  C_27
REMARK                            x       y       z     vdW  Elec       q    Type
REMARK                         _______ _______ _______ _____ _____    ______ ____
ROOT
ATOM      1  N   UNL     1       3.396   5.081  19.137  0.00  0.00    +0.000 N 
ATOM      2  C   UNL     1       4.534   4.280  18.910  0.00  0.00    +0.000 C 
ATOM      3  O   UNL     1       4.938   3.514  19.789  0.00  0.00    +0.000 OA
ENDROOT
BRANCH   2   4
ATOM      4  C   UNL     1       5.224   4.301  17.616  0.00  0.00    +0.000 A 
ATOM      5  C   UNL     1       4.797   3.941  16.301  0.00  0.00    +0.000 A 
ATOM      6  C   UNL     1       5.859   4.147  15.450  0.00  0.00    +0.000 A 
ATOM      7  C   UNL     1       6.044   3.931  14.001  0.00  0.00    +0.000 C 
ATOM      8  O   UNL     1       6.897   4.685  16.128  0.00  0.00    +0.000 OA
ATOM      9  C   UNL     1       6.504   4.820  17.425  0.00  0.00    +0.000 A 
ATOM     10  C   UNL     1       7.485   5.481  18.319  0.00  0.00    +0.000 C 
ENDBRANCH   2   4
BRANCH   1  11
ATOM     11  C   UNL     1       2.721   4.931  20.434  0.00  0.00    +0.000 C 
BRANCH  11  12
ATOM     12  C   UNL     1       1.278   4.421  20.330  0.00  0.00    +0.000 C 
BRANCH  12  14
ATOM     13  C   UNL     1       0.876   2.433  18.769  0.00  0.00    +0.000 C 
ATOM     14  C   UNL     1       1.107   2.905  20.198  0.00  0.00    +0.000 C 
ENDBRANCH  12  14
ENDBRANCH  11  12
ENDBRANCH   1  11
BRANCH   1  15
ATOM     15  C   UNL     1       2.707   5.919  18.143  0.00  0.00    +0.000 C 
BRANCH  15  16
ATOM     16  C   UNL     1       3.377   7.273  17.928  0.00  0.00    +0.000 C 
BRANCH  16  17
ATOM     17  C   UNL     1       2.396   8.409  18.140  0.00  0.00    +0.000 C 
ATOM     18  O   UNL     1       2.141   9.251  17.287  0.00  0.00    +0.000 OA
ATOM     19  N   UNL     1       1.818   8.399  19.395  0.00  0.00    +0.000 N 
ATOM     20  H   UNL     1       1.996   7.620  20.017  0.00  0.00    +0.000 HD
BRANCH  19  21
ATOM     21  C   UNL     1       0.814   9.382  19.756  0.00  0.00    +0.000 C 
BRANCH  21  22
ATOM     22  C   UNL     1       0.569  10.424  18.662  0.00  0.00    +0.000 C 
BRANCH  22  23
ATOM     23  C   UNL     1      -0.908  10.533  18.374  0.00  0.00    +0.000 A 
ATOM     24  C   UNL     1      -1.488   9.776  17.348  0.00  0.00    +0.000 A 
ATOM     25  C   UNL     1      -2.818   9.987  16.981  0.00  0.00    +0.000 A 
ATOM     26  C   UNL     1      -3.579  10.951  17.639  0.00  0.00    +0.000 A 
ATOM     27  C   UNL     1      -3.021  11.686  18.683  0.00  0.00    +0.000 A 
ATOM     28  C   UNL     1      -1.692  11.477  19.052  0.00  0.00    +0.000 A 
ENDBRANCH  22  23
ENDBRANCH  21  22
ENDBRANCH  19  21
ENDBRANCH  16  17
ENDBRANCH  15  16
ENDBRANCH   1  15
TORSDOF 10
ENDMDL
MODEL 6
REMARK VINA RESULT:      -7.6      3.997      6.194
REMARK  Name = 
REMARK  13 active torsions:
REMARK  status: ('A' for Active; 'I' for Inactive)
REMARK    1  A    between atoms: C_1  and  C_2
REMARK    2  A    between atoms: C_2  and  C_3
REMARK    3  A    between atoms: C_3  and  C_4
REMARK    4  A    between atoms: C_4  and  N_5
REMARK    5  A    between atoms: N_5  and  C_6
REMARK    6  A    between atoms: C_6  and  C_7
REMARK    7  A    between atoms: C_7  and  C_8
REMARK    8  A    between atoms: N_10  and  C_11
REMARK    9  A    between atoms: C_11  and  C_12
REMARK   10  A    between atoms: C_12  and  C_13
REMARK   11  A    between atoms: C_19  and  C_21
REMARK   12  A    between atoms: C_23  and  C_24
REMARK   13  A    between atoms: C_26  and  C_27
REMARK                            x       y       z     vdW  Elec       q    Type
REMARK                         _______ _______ _______ _____ _____    ______ ____
ROOT
ATOM      1  N   UNL     1       4.032   5.493  18.995  0.00  0.00    +0.000 N 
ATOM      2  C   UNL     1       5.049   4.614  18.568  0.00  0.00    +0.000 C 
ATOM      3  O   UNL     1       5.363   3.645  19.265  0.00  0.00    +0.000 OA
ENDROOT
BRANCH   2   4
ATOM      4  C   UNL     1       5.710   4.799  17.272  0.00  0.00    +0.000 A 
ATOM      5  C   UNL     1       5.447   4.253  15.980  0.00  0.00    +0.000 A 
ATOM      6  C   UNL     1       6.390   4.759  15.115  0.00  0.00    +0.000 A 
ATOM      7  C   UNL     1       6.657   4.545  13.679  0.00  0.00    +0.000 C 
ATOM      8  O   UNL     1       7.180   5.646  15.761  0.00  0.00    +0.000 OA
ATOM      9  C   UNL     1       6.746   5.706  17.051  0.00  0.00    +0.000 A 
ATOM     10  C   UNL     1       7.438   6.700  17.907  0.00  0.00    +0.000 C 
ENDBRANCH   2   4
BRANCH   1  11
ATOM     11  C   UNL     1       3.369   5.178  20.268  0.00  0.00    +0.000 C 
BRANCH  11  12
ATOM     12  C   UNL     1       1.965   4.579  20.108  0.00  0.00    +0.000 C 
BRANCH  12  14
ATOM     13  C   UNL     1       1.977   2.578  21.702  0.00  0.00    +0.000 C 
ATOM     14  C   UNL     1       1.861   3.059  20.263  0.00  0.00    +0.000 C 
ENDBRANCH  12  14
ENDBRANCH  11  12
ENDBRANCH   1  11
BRANCH   1  15
ATOM     15  C   UNL     1       3.443   6.589  18.212  0.00  0.00    +0.000 C 
BRANCH  15  16
ATOM     16  C   UNL     1       2.311   7.310  18.939  0.00  0.00    +0.000 C 
BRANCH  16  17
ATOM     17  C   UNL     1       1.991   8.636  18.277  0.00  0.00    +0.000 C 
ATOM     18  O   UNL     1       2.514   9.015  17.236  0.00  0.00    +0.000 OA
ATOM     19  N   UNL     1       1.052   9.374  18.970  0.00  0.00    +0.000 N 
ATOM     20  H   UNL     1       0.587   8.962  19.769  0.00  0.00    +0.000 HD
BRANCH  19  21
ATOM     21  C   UNL     1       0.584  10.649  18.455  0.00  0.00    +0.000 C 
BRANCH  21  22
ATOM     22  C   UNL     1      -0.731  11.109  19.089  0.00  0.00    +0.000 C 
BRANCH  22  23
ATOM     23  C   UNL     1      -1.880  10.831  18.151  0.00  0.00    +0.000 A 
ATOM     24  C   UNL     1      -1.702  10.002  17.036  0.00  0.00    +0.000 A 
ATOM     25  C   UNL     1      -2.717   9.867  16.088  0.00  0.00    +0.000 A 
ATOM     26  C   UNL     1      -3.919  10.553  16.250  0.00  0.00    +0.000 A 
ATOM     27  C   UNL     1      -4.119  11.353  17.373  0.00  0.00    +0.000 A 
ATOM     28  C   UNL     1      -3.106  11.490  18.322  0.00  0.00    +0.000 A 
ENDBRANCH  22  23
ENDBRANCH  21  22
ENDBRANCH  19  21
ENDBRANCH  16  17
ENDBRANCH  15  16
ENDBRANCH   1  15
TORSDOF 10
ENDMDL
MODEL 7
REMARK VINA RESULT:      -7.5      3.815      6.615
REMARK  Name = 
REMARK  13 active torsions:
REMARK  status: ('A' for Active; 'I' for Inactive)
REMARK    1  A    between atoms: C_1  and  C_2
REMARK    2  A    between atoms: C_2  and  C_3
REMARK    3  A    between atoms: C_3  and  C_4
REMARK    4  A    between atoms: C_4  and  N_5
REMARK    5  A    between atoms: N_5  and  C_6
REMARK    6  A    between atoms: C_6  and  C_7
REMARK    7  A    between atoms: C_7  and  C_8
REMARK    8  A    between atoms: N_10  and  C_11
REMARK    9  A    between atoms: C_11  and  C_12
REMARK   10  A    between atoms: C_12  and  C_13
REMARK   11  A    between atoms: C_19  and  C_21
REMARK   12  A    between atoms: C_23  and  C_24
REMARK   13  A    between atoms: C_26  and  C_27
REMARK                            x       y       z     vdW  Elec       q    Type
REMARK                         _______ _______ _______ _____ _____    ______ ____
ROOT
ATOM      1  N   UNL     1       2.602   4.650  18.179  0.00  0.00    +0.000 N 
ATOM      2  C   UNL     1       3.809   4.030  17.796  0.00  0.00    +0.000 C 
ATOM      3  O   UNL     1       3.810   2.852  17.427  0.00  0.00    +0.000 OA
ENDROOT
BRANCH   2   4
ATOM      4  C   UNL     1       5.069   4.780  17.778  0.00  0.00    +0.000 A 
ATOM      5  C   UNL     1       5.924   5.235  18.827  0.00  0.00    +0.000 A 
ATOM      6  C   UNL     1       6.976   5.904  18.244  0.00  0.00    +0.000 A 
ATOM      7  C   UNL     1       8.146   6.616  18.795  0.00  0.00    +0.000 C 
ATOM      8  O   UNL     1       6.879   5.832  16.897  0.00  0.00    +0.000 OA
ATOM      9  C   UNL     1       5.755   5.119  16.612  0.00  0.00    +0.000 A 
ATOM     10  C   UNL     1       5.521   4.854  15.172  0.00  0.00    +0.000 C 
ENDBRANCH   2   4
BRANCH   1  11
ATOM     11  C   UNL     1       1.377   3.844  18.085  0.00  0.00    +0.000 C 
BRANCH  11  12
ATOM     12  C   UNL     1       1.250   2.775  19.179  0.00  0.00    +0.000 C 
BRANCH  12  14
ATOM     13  C   UNL     1       2.236   2.898  21.537  0.00  0.00    +0.000 C 
ATOM     14  C   UNL     1       1.095   3.295  20.612  0.00  0.00    +0.000 C 
ENDBRANCH  12  14
ENDBRANCH  11  12
ENDBRANCH   1  11
BRANCH   1  15
ATOM     15  C   UNL     1       2.415   6.076  18.489  0.00  0.00    +0.000 C 
BRANCH  15  16
ATOM     16  C   UNL     1       2.476   6.380  19.983  0.00  0.00    +0.000 C 
BRANCH  16  17
ATOM     17  C   UNL     1       1.746   7.669  20.310  0.00  0.00    +0.000 C 
ATOM     18  O   UNL     1       1.366   7.964  21.436  0.00  0.00    +0.000 OA
ATOM     19  N   UNL     1       1.553   8.477  19.206  0.00  0.00    +0.000 N 
ATOM     20  H   UNL     1       1.979   8.221  18.323  0.00  0.00    +0.000 HD
BRANCH  19  21
ATOM     21  C   UNL     1       0.919   9.775  19.340  0.00  0.00    +0.000 C 
BRANCH  21  22
ATOM     22  C   UNL     1       0.406  10.335  18.011  0.00  0.00    +0.000 C 
BRANCH  22  23
ATOM     23  C   UNL     1      -1.087  10.545  18.082  0.00  0.00    +0.000 A 
ATOM     24  C   UNL     1      -1.940   9.875  17.195  0.00  0.00    +0.000 A 
ATOM     25  C   UNL     1      -3.301  10.182  17.158  0.00  0.00    +0.000 A 
ATOM     26  C   UNL     1      -3.820  11.156  18.010  0.00  0.00    +0.000 A 
ATOM     27  C   UNL     1      -2.986  11.804  18.918  0.00  0.00    +0.000 A 
ATOM     28  C   UNL     1      -1.625  11.499  18.958  0.00  0.00    +0.000 A 
ENDBRANCH  22  23
ENDBRANCH  21  22
ENDBRANCH  19  21
ENDBRANCH  16  17
ENDBRANCH  15  16
ENDBRANCH   1  15
TORSDOF 10
ENDMDL
MODEL 8
REMARK VINA RESULT:      -7.4      3.981      6.479
REMARK  Name = 
REMARK  13 active torsions:
REMARK  status: ('A' for Active; 'I' for Inactive)
REMARK    1  A    between atoms: C_1  and  C_2
REMARK    2  A    between atoms: C_2  and  C_3
REMARK    3  A    between atoms: C_3  and  C_4
REMARK    4  A    between atoms: C_4  and  N_5
REMARK    5  A    between atoms: N_5  and  C_6
REMARK    6  A    between atoms: C_6  and  C_7
REMARK    7  A    between atoms: C_7  and  C_8
REMARK    8  A    between atoms: N_10  and  C_11
REMARK    9  A    between atoms: C_11  and  C_12
REMARK   10  A    between atoms: C_12  and  C_13
REMARK   11  A    between atoms: C_19  and  C_21
REMARK   12  A    between atoms: C_23  and  C_24
REMARK   13  A    between atoms: C_26  and  C_27
REMARK                            x       y       z     vdW  Elec       q    Type
REMARK                         _______ _______ _______ _____ _____    ______ ____
ROOT
ATOM      1  N   UNL     1       3.876   5.198  18.707  0.00  0.00    +0.000 N 
ATOM      2  C   UNL     1       5.099   4.551  18.435  0.00  0.00    +0.000 C 
ATOM      3  O   UNL     1       5.610   3.813  19.282  0.00  0.00    +0.000 OA
ENDROOT
BRANCH   2   4
ATOM      4  C   UNL     1       5.756   4.697  17.133  0.00  0.00    +0.000 A 
ATOM      5  C   UNL     1       5.560   4.031  15.885  0.00  0.00    +0.000 A 
ATOM      6  C   UNL     1       6.463   4.554  14.988  0.00  0.00    +0.000 A 
ATOM      7  C   UNL     1       6.766   4.257  13.575  0.00  0.00    +0.000 C 
ATOM      8  O   UNL     1       7.159   5.558  15.567  0.00  0.00    +0.000 OA
ATOM      9  C   UNL     1       6.707   5.676  16.847  0.00  0.00    +0.000 A 
ATOM     10  C   UNL     1       7.293   6.793  17.626  0.00  0.00    +0.000 C 
ENDBRANCH   2   4
BRANCH   1  11
ATOM     11  C   UNL     1       3.251   4.926  20.008  0.00  0.00    +0.000 C 
BRANCH  11  12
ATOM     12  C   UNL     1       1.773   4.523  19.917  0.00  0.00    +0.000 C 
BRANCH  12  14
ATOM     13  C   UNL     1       0.780   2.433  18.823  0.00  0.00    +0.000 C 
ATOM     14  C   UNL     1       1.475   3.025  20.040  0.00  0.00    +0.000 C 
ENDBRANCH  12  14
ENDBRANCH  11  12
ENDBRANCH   1  11
BRANCH   1  15
ATOM     15  C   UNL     1       3.072   5.977  17.753  0.00  0.00    +0.000 C 
BRANCH  15  16
ATOM     16  C   UNL     1       3.344   7.477  17.817  0.00  0.00    +0.000 C 
BRANCH  16  17
ATOM     17  C   UNL     1       2.220   8.208  18.525  0.00  0.00    +0.000 C 
ATOM     18  O   UNL     1       1.956   8.054  19.712  0.00  0.00    +0.000 OA
ATOM     19  N   UNL     1       1.523   9.064  17.696  0.00  0.00    +0.000 N 
ATOM     20  H   UNL     1       1.854   9.220  16.752  0.00  0.00    +0.000 HD
BRANCH  19  21
ATOM     21  C   UNL     1       0.447   9.888  18.217  0.00  0.00    +0.000 C 
BRANCH  21  22
ATOM     22  C   UNL     1       0.932  10.979  19.173  0.00  0.00    +0.000 C 
BRANCH  22  23
ATOM     23  C   UNL     1      -0.249  11.724  19.748  0.00  0.00    +0.000 A 
ATOM     24  C   UNL     1      -1.542  11.482  19.267  0.00  0.00    +0.000 A 
ATOM     25  C   UNL     1      -2.611  12.274  19.688  0.00  0.00    +0.000 A 
ATOM     26  C   UNL     1      -2.397  13.309  20.597  0.00  0.00    +0.000 A 
ATOM     27  C   UNL     1      -1.120  13.536  21.107  0.00  0.00    +0.000 A 
ATOM     28  C   UNL     1      -0.050  12.745  20.687  0.00  0.00    +0.000 A 
ENDBRANCH  22  23
ENDBRANCH  21  22
ENDBRANCH  19  21
ENDBRANCH  16  17
ENDBRANCH  15  16
ENDBRANCH   1  15
TORSDOF 10
ENDMDL
MODEL 9
REMARK VINA RESULT:      -7.4      3.692      6.231
REMARK  Name = 
REMARK  13 active torsions:
REMARK  status: ('A' for Active; 'I' for Inactive)
REMARK    1  A    between atoms: C_1  and  C_2
REMARK    2  A    between atoms: C_2  and  C_3
REMARK    3  A    between atoms: C_3  and  C_4
REMARK    4  A    between atoms: C_4  and  N_5
REMARK    5  A    between atoms: N_5  and  C_6
REMARK    6  A    between atoms: C_6  and  C_7
REMARK    7  A    between atoms: C_7  and  C_8
REMARK    8  A    between atoms: N_10  and  C_11
REMARK    9  A    between atoms: C_11  and  C_12
REMARK   10  A    between atoms: C_12  and  C_13
REMARK   11  A    between atoms: C_19  and  C_21
REMARK   12  A    between atoms: C_23  and  C_24
REMARK   13  A    between atoms: C_26  and  C_27
REMARK                            x       y       z     vdW  Elec       q    Type
REMARK                         _______ _______ _______ _____ _____    ______ ____
ROOT
ATOM      1  N   UNL     1       3.227   5.376  17.862  0.00  0.00    +0.000 N 
ATOM      2  C   UNL     1       3.832   4.325  17.142  0.00  0.00    +0.000 C 
ATOM      3  O   UNL     1       3.299   3.213  17.104  0.00  0.00    +0.000 OA
ENDROOT
BRANCH   2   4
ATOM      4  C   UNL     1       5.069   4.544  16.385  0.00  0.00    +0.000 A 
ATOM      5  C   UNL     1       5.315   4.720  14.990  0.00  0.00    +0.000 A 
ATOM      6  C   UNL     1       6.672   4.878  14.824  0.00  0.00    +0.000 A 
ATOM      7  C   UNL     1       7.527   5.061  13.635  0.00  0.00    +0.000 C 
ATOM      8  O   UNL     1       7.285   4.890  16.029  0.00  0.00    +0.000 OA
ATOM      9  C   UNL     1       6.318   4.733  16.975  0.00  0.00    +0.000 A 
ATOM     10  C   UNL     1       6.787   4.809  18.380  0.00  0.00    +0.000 C 
ENDBRANCH   2   4
BRANCH   1  11
ATOM     11  C   UNL     1       1.946   5.084  18.520  0.00  0.00    +0.000 C 
BRANCH  11  12
ATOM     12  C   UNL     1       2.063   4.839  20.030  0.00  0.00    +0.000 C 
BRANCH  12  14
ATOM     13  C   UNL     1       1.965   2.869  21.660  0.00  0.00    +0.000 C 
ATOM     14  C   UNL     1       1.244   3.670  20.586  0.00  0.00    +0.000 C 
ENDBRANCH  12  14
ENDBRANCH  11  12
ENDBRANCH   1  11
BRANCH   1  15
ATOM     15  C   UNL     1       3.655   6.783  17.873  0.00  0.00    +0.000 C 
BRANCH  15  16
ATOM     16  C   UNL     1       2.607   7.737  17.307  0.00  0.00    +0.000 C 
BRANCH  16  17
ATOM     17  C   UNL     1       2.069   8.662  18.381  0.00  0.00    +0.000 C 
ATOM     18  O   UNL     1       1.975   8.345  19.561  0.00  0.00    +0.000 OA
ATOM     19  N   UNL     1       1.696   9.899  17.894  0.00  0.00    +0.000 N 
ATOM     20  H   UNL     1       1.891  10.132  16.928  0.00  0.00    +0.000 HD
BRANCH  19  21
ATOM     21  C   UNL     1       1.209  10.932  18.790  0.00  0.00    +0.000 C 
BRANCH  21  22
ATOM     22  C   UNL     1      -0.319  11.008  18.848  0.00  0.00    +0.000 C 
BRANCH  22  23
ATOM     23  C   UNL     1      -0.779  11.061  20.284  0.00  0.00    +0.000 A 
ATOM     24  C   UNL     1      -1.647  12.073  20.714  0.00  0.00    +0.000 A 
ATOM     25  C   UNL     1      -1.951  12.213  22.069  0.00  0.00    +0.000 A 
ATOM     26  C   UNL     1      -1.397  11.339  23.002  0.00  0.00    +0.000 A 
ATOM     27  C   UNL     1      -0.560  10.308  22.581  0.00  0.00    +0.000 A 
ATOM     28  C   UNL     1      -0.253  10.166  21.227  0.00  0.00    +0.000 A 
ENDBRANCH  22  23
ENDBRANCH  21  22
ENDBRANCH  19  21
ENDBRANCH  16  17
ENDBRANCH  15  16
ENDBRANCH   1  15
TORSDOF 10
ENDMDL
