MODEL 1
REMARK VINA RESULT:      -6.9      0.000      0.000
REMARK  Name = 
REMARK  4 active torsions:
REMARK  status: ('A' for Active; 'I' for Inactive)
REMARK    1  A    between atoms: C_1  and  O_2
REMARK    2  A    between atoms: O_2  and  C_3
REMARK    3  A    between atoms: C_6  and  N_7
REMARK    4  A    between atoms: C_11  and  C_12
REMARK                            x       y       z     vdW  Elec       q    Type
REMARK                         _______ _______ _______ _____ _____    ______ ____
ROOT
ATOM      1  N   UNL     1       2.712   7.118  18.330  0.00  0.00    +0.000 N 
ATOM      2  C   UNL     1       2.207   8.229  17.700  0.00  0.00    +0.000 A 
ATOM      3  N   UNL     1       1.771   9.308  18.253  0.00  0.00    +0.000 NA
ATOM      4  C   UNL     1       1.485   9.220  19.613  0.00  0.00    +0.000 A 
ATOM      5  C   UNL     1       0.784  10.286  20.178  0.00  0.00    +0.000 A 
ATOM      6  C   UNL     1       0.992  11.684  19.666  0.00  0.00    +0.000 C 
ATOM      7  C   UNL     1      -0.188   9.989  21.132  0.00  0.00    +0.000 A 
ATOM      8  C   UNL     1      -0.318   8.685  21.626  0.00  0.00    +0.000 A 
ATOM      9  C   UNL     1       0.603   7.698  21.263  0.00  0.00    +0.000 A 
ATOM     10  C   UNL     1       1.517   7.979  20.254  0.00  0.00    +0.000 A 
ATOM     11  C   UNL     1       2.437   6.962  19.696  0.00  0.00    +0.000 A 
ATOM     12  O   UNL     1       2.896   6.120  20.468  0.00  0.00    +0.000 OA
ENDROOT
BRANCH   1  16
ATOM     13  C   UNL     1       5.191   4.401  16.156  0.00  0.00    +0.000 A 
ATOM     14  C   UNL     1       5.466   5.770  16.109  0.00  0.00    +0.000 A 
ATOM     15  C   UNL     1       4.679   6.693  16.826  0.00  0.00    +0.000 A 
ATOM     16  C   UNL     1       3.589   6.261  17.587  0.00  0.00    +0.000 A 
ATOM     17  C   UNL     1       3.311   4.877  17.569  0.00  0.00    +0.000 A 
ATOM     18  C   UNL     1       4.100   3.962  16.884  0.00  0.00    +0.000 A 
BRANCH  13  20
ATOM     19  C   UNL     1       6.222   3.954  14.082  0.00  0.00    +0.000 C 
ATOM     20  O   UNL     1       6.016   3.576  15.445  0.00  0.00    +0.000 OA
ENDBRANCH  13  20
ENDBRANCH   1  16
TORSDOF 2
ENDMDL
MODEL 2
REMARK VINA RESULT:      -6.9      0.150      1.078
REMARK  Name = 
REMARK  4 active torsions:
REMARK  status: ('A' for Active; 'I' for Inactive)
REMARK    1  A    between atoms: C_1  and  O_2
REMARK    2  A    between atoms: O_2  and  C_3
REMARK    3  A    between atoms: C_6  and  N_7
REMARK    4  A    between atoms: C_11  and  C_12
REMARK                            x       y       z     vdW  Elec       q    Type
REMARK                         _______ _______ _______ _____ _____    ______ ____
ROOT
ATOM      1  N   UNL     1       2.590   7.058  18.408  0.00  0.00    +0.000 N 
ATOM      2  C   UNL     1       2.133   8.174  17.751  0.00  0.00    +0.000 A 
ATOM      3  N   UNL     1       1.756   9.288  18.276  0.00  0.00    +0.000 NA
ATOM      4  C   UNL     1       1.479   9.253  19.641  0.00  0.00    +0.000 A 
ATOM      5  C   UNL     1       0.837  10.367  20.181  0.00  0.00    +0.000 A 
ATOM      6  C   UNL     1       1.107  11.738  19.628  0.00  0.00    +0.000 C 
ATOM      7  C   UNL     1      -0.138  10.146  21.152  0.00  0.00    +0.000 A 
ATOM      8  C   UNL     1      -0.326   8.863  21.685  0.00  0.00    +0.000 A 
ATOM      9  C   UNL     1       0.542   7.823  21.342  0.00  0.00    +0.000 A 
ATOM     10  C   UNL     1       1.457   8.030  20.317  0.00  0.00    +0.000 A 
ATOM     11  C   UNL     1       2.322   6.954  19.780  0.00  0.00    +0.000 A 
ATOM     12  O   UNL     1       2.747   6.113  20.572  0.00  0.00    +0.000 OA
ENDROOT
BRANCH   1  16
ATOM     13  C   UNL     1       5.196   4.477  16.218  0.00  0.00    +0.000 A 
ATOM     14  C   UNL     1       4.080   3.939  16.863  0.00  0.00    +0.000 A 
ATOM     15  C   UNL     1       3.190   4.763  17.582  0.00  0.00    +0.000 A 
ATOM     16  C   UNL     1       3.416   6.138  17.682  0.00  0.00    +0.000 A 
ATOM     17  C   UNL     1       4.581   6.638  17.060  0.00  0.00    +0.000 A 
ATOM     18  C   UNL     1       5.446   5.832  16.330  0.00  0.00    +0.000 A 
BRANCH  13  20
ATOM     19  C   UNL     1       6.237   3.958  14.165  0.00  0.00    +0.000 C 
ATOM     20  O   UNL     1       5.994   3.607  15.529  0.00  0.00    +0.000 OA
ENDBRANCH  13  20
ENDBRANCH   1  16
TORSDOF 2
ENDMDL
MODEL 3
REMARK VINA RESULT:      -6.8      1.520      2.563
REMARK  Name = 
REMARK  4 active torsions:
REMARK  status: ('A' for Active; 'I' for Inactive)
REMARK    1  A    between atoms: C_1  and  O_2
REMARK    2  A    between atoms: O_2  and  C_3
REMARK    3  A    between atoms: C_6  and  N_7
REMARK    4  A    between atoms: C_11  and  C_12
REMARK                            x       y       z     vdW  Elec       q    Type
REMARK                         _______ _______ _______ _____ _____    ______ ____
ROOT
ATOM      1  N   UNL     1       2.373   7.614  18.992  0.00  0.00    +0.000 N 
ATOM      2  C   UNL     1       2.221   7.440  20.345  0.00  0.00    +0.000 A 
ATOM      3  N   UNL     1       1.362   8.016  21.113  0.00  0.00    +0.000 NA
ATOM      4  C   UNL     1       0.745   9.151  20.591  0.00  0.00    +0.000 A 
ATOM      5  C   UNL     1       0.006   9.930  21.481  0.00  0.00    +0.000 A 
ATOM      6  C   UNL     1      -0.727   9.285  22.624  0.00  0.00    +0.000 C 
ATOM      7  C   UNL     1       0.075  11.316  21.341  0.00  0.00    +0.000 A 
ATOM      8  C   UNL     1       0.721  11.882  20.234  0.00  0.00    +0.000 A 
ATOM      9  C   UNL     1       1.190  11.070  19.199  0.00  0.00    +0.000 A 
ATOM     10  C   UNL     1       1.190   9.692  19.382  0.00  0.00    +0.000 A 
ATOM     11  C   UNL     1       1.795   8.751  18.411  0.00  0.00    +0.000 A 
ATOM     12  O   UNL     1       1.702   9.025  17.214  0.00  0.00    +0.000 OA
ENDROOT
BRANCH   1  16
ATOM     13  C   UNL     1       4.405   4.615  16.727  0.00  0.00    +0.000 A 
ATOM     14  C   UNL     1       3.242   4.280  17.423  0.00  0.00    +0.000 A 
ATOM     15  C   UNL     1       2.537   5.246  18.168  0.00  0.00    +0.000 A 
ATOM     16  C   UNL     1       2.999   6.563  18.243  0.00  0.00    +0.000 A 
ATOM     17  C   UNL     1       4.205   6.853  17.569  0.00  0.00    +0.000 A 
ATOM     18  C   UNL     1       4.888   5.909  16.813  0.00  0.00    +0.000 A 
BRANCH  13  20
ATOM     19  C   UNL     1       6.078   4.046  15.164  0.00  0.00    +0.000 C 
ATOM     20  O   UNL     1       5.014   3.619  16.016  0.00  0.00    +0.000 OA
ENDBRANCH  13  20
ENDBRANCH   1  16
TORSDOF 2
ENDMDL
MODEL 4
REMARK VINA RESULT:      -6.8      3.301      4.672
REMARK  Name = 
REMARK  4 active torsions:
REMARK  status: ('A' for Active; 'I' for Inactive)
REMARK    1  A    between atoms: C_1  and  O_2
REMARK    2  A    between atoms: O_2  and  C_3
REMARK    3  A    between atoms: C_6  and  N_7
REMARK    4  A    between atoms: C_11  and  C_12
REMARK                            x       y       z     vdW  Elec       q    Type
REMARK                         _______ _______ _______ _____ _____    ______ ____
ROOT
ATOM      1  N   UNL     1       4.425   4.371  16.957  0.00  0.00    +0.000 N 
ATOM      2  C   UNL     1       4.048   3.104  17.327  0.00  0.00    +0.000 A 
ATOM      3  N   UNL     1       2.968   2.760  17.939  0.00  0.00    +0.000 NA
ATOM      4  C   UNL     1       2.272   3.789  18.568  0.00  0.00    +0.000 A 
ATOM      5  C   UNL     1       1.248   3.416  19.439  0.00  0.00    +0.000 A 
ATOM      6  C   UNL     1       0.435   2.181  19.165  0.00  0.00    +0.000 C 
ATOM      7  C   UNL     1       1.095   4.151  20.613  0.00  0.00    +0.000 A 
ATOM      8  C   UNL     1       1.831   5.327  20.811  0.00  0.00    +0.000 A 
ATOM      9  C   UNL     1       2.628   5.842  19.785  0.00  0.00    +0.000 A 
ATOM     10  C   UNL     1       2.838   5.064  18.652  0.00  0.00    +0.000 A 
ATOM     11  C   UNL     1       3.777   5.451  17.573  0.00  0.00    +0.000 A 
ATOM     12  O   UNL     1       3.869   6.647  17.296  0.00  0.00    +0.000 OA
ENDROOT
BRANCH   1  16
ATOM     13  C   UNL     1       7.059   4.713  13.610  0.00  0.00    +0.000 A 
ATOM     14  C   UNL     1       7.453   5.222  14.850  0.00  0.00    +0.000 A 
ATOM     15  C   UNL     1       6.616   5.114  15.979  0.00  0.00    +0.000 A 
ATOM     16  C   UNL     1       5.360   4.509  15.879  0.00  0.00    +0.000 A 
ATOM     17  C   UNL     1       4.975   4.052  14.600  0.00  0.00    +0.000 A 
ATOM     18  C   UNL     1       5.808   4.135  13.491  0.00  0.00    +0.000 A 
BRANCH  13  20
ATOM     19  C   UNL     1       8.730   6.037  12.602  0.00  0.00    +0.000 C 
ATOM     20  O   UNL     1       7.940   4.846  12.575  0.00  0.00    +0.000 OA
ENDBRANCH  13  20
ENDBRANCH   1  16
TORSDOF 2
ENDMDL
MODEL 5
REMARK VINA RESULT:      -6.8      3.254      4.713
REMARK  Name = 
REMARK  4 active torsions:
REMARK  status: ('A' for Active; 'I' for Inactive)
REMARK    1  A    between atoms: C_1  and  O_2
REMARK    2  A    between atoms: O_2  and  C_3
REMARK    3  A    between atoms: C_6  and  N_7
REMARK    4  A    between atoms: C_11  and  C_12
REMARK                            x       y       z     vdW  Elec       q    Type
REMARK                         _______ _______ _______ _____ _____    ______ ____
ROOT
ATOM      1  N   UNL     1       4.436   4.505  17.056  0.00  0.00    +0.000 N 
ATOM      2  C   UNL     1       4.115   3.211  17.387  0.00  0.00    +0.000 A 
ATOM      3  N   UNL     1       3.027   2.794  17.935  0.00  0.00    +0.000 NA
ATOM      4  C   UNL     1       2.238   3.770  18.539  0.00  0.00    +0.000 A 
ATOM      5  C   UNL     1       1.192   3.322  19.347  0.00  0.00    +0.000 A 
ATOM      6  C   UNL     1       0.470   2.047  19.012  0.00  0.00    +0.000 C 
ATOM      7  C   UNL     1       0.934   4.027  20.522  0.00  0.00    +0.000 A 
ATOM      8  C   UNL     1       1.587   5.240  20.776  0.00  0.00    +0.000 A 
ATOM      9  C   UNL     1       2.406   5.818  19.803  0.00  0.00    +0.000 A 
ATOM     10  C   UNL     1       2.722   5.074  18.672  0.00  0.00    +0.000 A 
ATOM     11  C   UNL     1       3.693   5.534  17.652  0.00  0.00    +0.000 A 
ATOM     12  O   UNL     1       3.730   6.738  17.398  0.00  0.00    +0.000 OA
ENDROOT
BRANCH   1  16
ATOM     13  C   UNL     1       7.488   5.229  14.156  0.00  0.00    +0.000 A 
ATOM     14  C   UNL     1       6.401   4.418  13.822  0.00  0.00    +0.000 A 
ATOM     15  C   UNL     1       5.369   4.169  14.748  0.00  0.00    +0.000 A 
ATOM     16  C   UNL     1       5.419   4.716  16.033  0.00  0.00    +0.000 A 
ATOM     17  C   UNL     1       6.557   5.488  16.352  0.00  0.00    +0.000 A 
ATOM     18  C   UNL     1       7.563   5.755  15.433  0.00  0.00    +0.000 A 
BRANCH  13  20
ATOM     19  C   UNL     1       7.925   5.856  11.924  0.00  0.00    +0.000 C 
ATOM     20  O   UNL     1       8.434   5.430  13.190  0.00  0.00    +0.000 OA
ENDBRANCH  13  20
ENDBRANCH   1  16
TORSDOF 2
ENDMDL
MODEL 6
REMARK VINA RESULT:      -6.7      1.442      2.273
REMARK  Name = 
REMARK  4 active torsions:
REMARK  status: ('A' for Active; 'I' for Inactive)
REMARK    1  A    between atoms: C_1  and  O_2
REMARK    2  A    between atoms: O_2  and  C_3
REMARK    3  A    between atoms: C_6  and  N_7
REMARK    4  A    between atoms: C_11  and  C_12
REMARK                            x       y       z     vdW  Elec       q    Type
REMARK                         _______ _______ _______ _____ _____    ______ ____
ROOT
ATOM      1  N   UNL     1       2.555   7.600  18.874  0.00  0.00    +0.000 N 
ATOM      2  C   UNL     1       2.349   7.365  20.211  0.00  0.00    +0.000 A 
ATOM      3  N   UNL     1       1.432   7.873  20.960  0.00  0.00    +0.000 NA
ATOM      4  C   UNL     1       0.792   9.003  20.454  0.00  0.00    +0.000 A 
ATOM      5  C   UNL     1      -0.020   9.713  21.339  0.00  0.00    +0.000 A 
ATOM      6  C   UNL     1      -0.775   8.991  22.419  0.00  0.00    +0.000 C 
ATOM      7  C   UNL     1      -0.003  11.105  21.258  0.00  0.00    +0.000 A 
ATOM      8  C   UNL     1       0.667  11.743  20.205  0.00  0.00    +0.000 A 
ATOM      9  C   UNL     1       1.218  10.994  19.162  0.00  0.00    +0.000 A 
ATOM     10  C   UNL     1       1.268   9.611  19.290  0.00  0.00    +0.000 A 
ATOM     11  C   UNL     1       1.956   8.736  18.312  0.00  0.00    +0.000 A 
ATOM     12  O   UNL     1       1.906   9.056  17.124  0.00  0.00    +0.000 OA
ENDROOT
BRANCH   1  16
ATOM     13  C   UNL     1       4.490   4.507  16.652  0.00  0.00    +0.000 A 
ATOM     14  C   UNL     1       5.005   5.804  16.615  0.00  0.00    +0.000 A 
ATOM     15  C   UNL     1       4.402   6.846  17.347  0.00  0.00    +0.000 A 
ATOM     16  C   UNL     1       3.259   6.608  18.115  0.00  0.00    +0.000 A 
ATOM     17  C   UNL     1       2.736   5.296  18.088  0.00  0.00    +0.000 A 
ATOM     18  C   UNL     1       3.344   4.262  17.387  0.00  0.00    +0.000 A 
BRANCH  13  20
ATOM     19  C   UNL     1       6.126   4.060  15.012  0.00  0.00    +0.000 C 
ATOM     20  O   UNL     1       5.149   3.555  15.925  0.00  0.00    +0.000 OA
ENDBRANCH  13  20
ENDBRANCH   1  16
TORSDOF 2
ENDMDL
MODEL 7
REMARK VINA RESULT:      -6.6      1.119      1.877
REMARK  Name = 
REMARK  4 active torsions:
REMARK  status: ('A' for Active; 'I' for Inactive)
REMARK    1  A    between atoms: C_1  and  O_2
REMARK    2  A    between atoms: O_2  and  C_3
REMARK    3  A    between atoms: C_6  and  N_7
REMARK    4  A    between atoms: C_11  and  C_12
REMARK                            x       y       z     vdW  Elec       q    Type
REMARK                         _______ _______ _______ _____ _____    ______ ____
ROOT
ATOM      1  N   UNL     1       2.045   8.063  18.588  0.00  0.00    +0.000 N 
ATOM      2  C   UNL     1       1.925   9.142  17.747  0.00  0.00    +0.000 A 
ATOM      3  N   UNL     1       1.741  10.372  18.080  0.00  0.00    +0.000 NA
ATOM      4  C   UNL     1       1.304  10.590  19.385  0.00  0.00    +0.000 A 
ATOM      5  C   UNL     1       0.861  11.876  19.694  0.00  0.00    +0.000 A 
ATOM      6  C   UNL     1       1.489  13.071  19.031  0.00  0.00    +0.000 C 
ATOM      7  C   UNL     1      -0.247  11.997  20.530  0.00  0.00    +0.000 A 
ATOM      8  C   UNL     1      -0.773  10.868  21.173  0.00  0.00    +0.000 A 
ATOM      9  C   UNL     1      -0.120   9.637  21.084  0.00  0.00    +0.000 A 
ATOM     10  C   UNL     1       0.935   9.506  20.186  0.00  0.00    +0.000 A 
ATOM     11  C   UNL     1       1.600   8.212  19.909  0.00  0.00    +0.000 A 
ATOM     12  O   UNL     1       1.734   7.425  20.846  0.00  0.00    +0.000 OA
ENDROOT
BRANCH   1  16
ATOM     13  C   UNL     1       4.261   4.725  17.104  0.00  0.00    +0.000 A 
ATOM     14  C   UNL     1       3.014   4.513  17.695  0.00  0.00    +0.000 A 
ATOM     15  C   UNL     1       2.248   5.592  18.182  0.00  0.00    +0.000 A 
ATOM     16  C   UNL     1       2.731   6.901  18.101  0.00  0.00    +0.000 A 
ATOM     17  C   UNL     1       4.017   7.072  17.544  0.00  0.00    +0.000 A 
ATOM     18  C   UNL     1       4.762   6.013  17.041  0.00  0.00    +0.000 A 
BRANCH  13  20
ATOM     19  C   UNL     1       5.950   3.891  15.684  0.00  0.00    +0.000 C 
ATOM     20  O   UNL     1       4.926   3.624  16.644  0.00  0.00    +0.000 OA
ENDBRANCH  13  20
ENDBRANCH   1  16
TORSDOF 2
ENDMDL
MODEL 8
REMARK VINA RESULT:      -6.6      2.077      3.256
REMARK  Name = 
REMARK  4 active torsions:
REMARK  status: ('A' for Active; 'I' for Inactive)
REMARK    1  A    between atoms: C_1  and  O_2
REMARK    2  A    between atoms: O_2  and  C_3
REMARK    3  A    between atoms: C_6  and  N_7
REMARK    4  A    between atoms: C_11  and  C_12
REMARK                            x       y       z     vdW  Elec       q    Type
REMARK                         _______ _______ _______ _____ _____    ______ ____
ROOT
ATOM      1  N   UNL     1       1.839   8.042  19.875  0.00  0.00    +0.000 N 
ATOM      2  C   UNL     1       1.680   8.121  21.237  0.00  0.00    +0.000 A 
ATOM      3  N   UNL     1       0.875   8.891  21.884  0.00  0.00    +0.000 NA
ATOM      4  C   UNL     1       0.351   9.963  21.166  0.00  0.00    +0.000 A 
ATOM      5  C   UNL     1      -0.317  10.944  21.900  0.00  0.00    +0.000 A 
ATOM      6  C   UNL     1      -1.094  10.570  23.131  0.00  0.00    +0.000 C 
ATOM      7  C   UNL     1      -0.135  12.273  21.522  0.00  0.00    +0.000 A 
ATOM      8  C   UNL     1       0.549  12.583  20.338  0.00  0.00    +0.000 A 
ATOM      9  C   UNL     1       0.945  11.567  19.465  0.00  0.00    +0.000 A 
ATOM     10  C   UNL     1       0.832  10.246  19.885  0.00  0.00    +0.000 A 
ATOM     11  C   UNL     1       1.353   9.104  19.099  0.00  0.00    +0.000 A 
ATOM     12  O   UNL     1       1.277   9.172  17.873  0.00  0.00    +0.000 OA
ENDROOT
BRANCH   1  16
ATOM     13  C   UNL     1       3.315   4.319  18.389  0.00  0.00    +0.000 A 
ATOM     14  C   UNL     1       3.580   5.494  17.683  0.00  0.00    +0.000 A 
ATOM     15  C   UNL     1       3.122   6.742  18.151  0.00  0.00    +0.000 A 
ATOM     16  C   UNL     1       2.372   6.829  19.327  0.00  0.00    +0.000 A 
ATOM     17  C   UNL     1       2.080   5.615  19.986  0.00  0.00    +0.000 A 
ATOM     18  C   UNL     1       2.552   4.388  19.540  0.00  0.00    +0.000 A 
BRANCH  13  20
ATOM     19  C   UNL     1       3.050   1.985  18.168  0.00  0.00    +0.000 C 
ATOM     20  O   UNL     1       3.813   3.157  17.870  0.00  0.00    +0.000 OA
ENDBRANCH  13  20
ENDBRANCH   1  16
TORSDOF 2
ENDMDL
MODEL 9
REMARK VINA RESULT:      -6.5      1.638      2.262
REMARK  Name = 
REMARK  4 active torsions:
REMARK  status: ('A' for Active; 'I' for Inactive)
REMARK    1  A    between atoms: C_1  and  O_2
REMARK    2  A    between atoms: O_2  and  C_3
REMARK    3  A    between atoms: C_6  and  N_7
REMARK    4  A    between atoms: C_11  and  C_12
REMARK                            x       y       z     vdW  Elec       q    Type
REMARK                         _______ _______ _______ _____ _____    ______ ____
ROOT
ATOM      1  N   UNL     1       2.043   7.930  18.610  0.00  0.00    +0.000 N 
ATOM      2  C   UNL     1       2.080   8.883  17.623  0.00  0.00    +0.000 A 
ATOM      3  N   UNL     1       1.988  10.160  17.769  0.00  0.00    +0.000 NA
ATOM      4  C   UNL     1       1.484  10.596  18.992  0.00  0.00    +0.000 A 
ATOM      5  C   UNL     1       1.142  11.946  19.086  0.00  0.00    +0.000 A 
ATOM      6  C   UNL     1       1.920  12.979  18.319  0.00  0.00    +0.000 C 
ATOM      7  C   UNL     1      -0.005  12.274  19.806  0.00  0.00    +0.000 A 
ATOM      8  C   UNL     1      -0.675  11.296  20.553  0.00  0.00    +0.000 A 
ATOM      9  C   UNL     1      -0.133  10.015  20.685  0.00  0.00    +0.000 A 
ATOM     10  C   UNL     1       0.964   9.672  19.902  0.00  0.00    +0.000 A 
ATOM     11  C   UNL     1       1.525   8.302  19.858  0.00  0.00    +0.000 A 
ATOM     12  O   UNL     1       1.522   7.649  20.902  0.00  0.00    +0.000 OA
ENDROOT
BRANCH   1  16
ATOM     13  C   UNL     1       3.659   4.051  17.835  0.00  0.00    +0.000 A 
ATOM     14  C   UNL     1       4.464   5.179  17.656  0.00  0.00    +0.000 A 
ATOM     15  C   UNL     1       3.969   6.473  17.917  0.00  0.00    +0.000 A 
ATOM     16  C   UNL     1       2.651   6.658  18.343  0.00  0.00    +0.000 A 
ATOM     17  C   UNL     1       1.853   5.500  18.464  0.00  0.00    +0.000 A 
ATOM     18  C   UNL     1       2.346   4.223  18.232  0.00  0.00    +0.000 A 
BRANCH  13  20
ATOM     19  C   UNL     1       3.494   1.709  18.062  0.00  0.00    +0.000 C 
ATOM     20  O   UNL     1       4.227   2.836  17.576  0.00  0.00    +0.000 OA
ENDBRANCH  13  20
ENDBRANCH   1  16
TORSDOF 2
ENDMDL
