MODEL 1
REMARK VINA RESULT:      -8.5      0.000      0.000
REMARK  Name = 
REMARK  3 active torsions:
REMARK  status: ('A' for Active; 'I' for Inactive)
REMARK    1  A    between atoms: O_1  and  C_2
REMARK    2  A    between atoms: C_2  and  C_3
REMARK    3  A    between atoms: C_3  and  C_4
REMARK                            x       y       z     vdW  Elec       q    Type
REMARK                         _______ _______ _______ _____ _____    ______ ____
ROOT
ATOM      1  C   UNL     1       3.909   4.168  18.699  0.00  0.00    +0.000 C 
ATOM      2  C   UNL     1       3.304   5.427  19.348  0.00  0.00    +0.000 A 
ATOM      3  C   UNL     1       3.164   6.711  18.840  0.00  0.00    +0.000 A 
ATOM      4  C   UNL     1       2.261   7.605  19.440  0.00  0.00    +0.000 A 
ATOM      5  C   UNL     1       1.484   7.223  20.544  0.00  0.00    +0.000 A 
ATOM      6  C   UNL     1       1.467   5.895  20.944  0.00  0.00    +0.000 A 
ATOM      7  C   UNL     1       2.294   5.035  20.246  0.00  0.00    +0.000 A 
ATOM      8  C   UNL     1       1.822   3.809  19.609  0.00  0.00    +0.000 C 
ATOM      9  N   UNL     1       0.778   3.080  19.857  0.00  0.00    +0.000 NA
ATOM     10  C   UNL     1       0.807   2.156  18.670  0.00  0.00    +0.000 C 
ATOM     11  C   UNL     1       2.251   2.212  18.071  0.00  0.00    +0.000 C 
ATOM     12  N   UNL     1       2.632   3.503  18.535  0.00  0.00    +0.000 N 
ENDROOT
BRANCH   1  13
ATOM     13  O   UNL     1       4.655   3.385  19.638  0.00  0.00    +0.000 OA
ATOM     14  H   UNL     1       5.562   3.726  19.653  0.00  0.00    +0.000 HD
ENDBRANCH   1  13
BRANCH   1  15
ATOM     15  C   UNL     1       4.813   4.353  17.458  0.00  0.00    +0.000 C 
BRANCH  15  16
ATOM     16  C   UNL     1       5.962   5.354  17.675  0.00  0.00    +0.000 A 
ATOM     17  C   UNL     1       6.947   5.129  18.653  0.00  0.00    +0.000 A 
ATOM     18  C   UNL     1       7.909   6.099  18.937  0.00  0.00    +0.000 A 
ATOM     19  C   UNL     1       7.902   7.301  18.251  0.00  0.00    +0.000 A 
ATOM     20  F   UNL     1       8.816   8.249  18.552  0.00  0.00    +0.000 F 
ATOM     21  C   UNL     1       6.976   7.545  17.254  0.00  0.00    +0.000 A 
ATOM     22  C   UNL     1       6.037   6.560  16.961  0.00  0.00    +0.000 A 
ATOM     23  F   UNL     1       5.194   6.795  15.953  0.00  0.00    +0.000 F 
ENDBRANCH  15  16
ENDBRANCH   1  15
TORSDOF 3
ENDMDL
MODEL 2
REMARK VINA RESULT:      -8.4      1.708      2.925
REMARK  Name = 
REMARK  3 active torsions:
REMARK  status: ('A' for Active; 'I' for Inactive)
REMARK    1  A    between atoms: O_1  and  C_2
REMARK    2  A    between atoms: C_2  and  C_3
REMARK    3  A    between atoms: C_3  and  C_4
REMARK                            x       y       z     vdW  Elec       q    Type
REMARK                         _______ _______ _______ _____ _____    ______ ____
ROOT
ATOM      1  C   UNL     1       2.815   4.415  17.943  0.00  0.00    +0.000 C 
ATOM      2  C   UNL     1       2.779   3.459  19.151  0.00  0.00    +0.000 A 
ATOM      3  C   UNL     1       3.778   2.653  19.678  0.00  0.00    +0.000 A 
ATOM      4  C   UNL     1       3.653   2.152  20.985  0.00  0.00    +0.000 A 
ATOM      5  C   UNL     1       2.538   2.460  21.779  0.00  0.00    +0.000 A 
ATOM      6  C   UNL     1       1.629   3.413  21.345  0.00  0.00    +0.000 A 
ATOM      7  C   UNL     1       1.861   3.955  20.095  0.00  0.00    +0.000 A 
ATOM      8  C   UNL     1       1.964   5.391  19.849  0.00  0.00    +0.000 C 
ATOM      9  N   UNL     1       1.501   6.395  20.526  0.00  0.00    +0.000 NA
ATOM     10  C   UNL     1       2.199   7.533  19.831  0.00  0.00    +0.000 C 
ATOM     11  C   UNL     1       2.681   7.004  18.441  0.00  0.00    +0.000 C 
ATOM     12  N   UNL     1       2.768   5.617  18.751  0.00  0.00    +0.000 N 
ENDROOT
BRANCH   1  13
ATOM     13  O   UNL     1       1.595   4.381  17.195  0.00  0.00    +0.000 OA
ATOM     14  H   UNL     1       1.805   4.608  16.276  0.00  0.00    +0.000 HD
ENDBRANCH   1  13
BRANCH   1  15
ATOM     15  C   UNL     1       3.967   4.253  16.923  0.00  0.00    +0.000 C 
BRANCH  15  16
ATOM     16  C   UNL     1       5.237   5.039  17.297  0.00  0.00    +0.000 A 
ATOM     17  C   UNL     1       6.093   4.594  18.319  0.00  0.00    +0.000 A 
ATOM     18  C   UNL     1       7.169   5.375  18.744  0.00  0.00    +0.000 A 
ATOM     19  C   UNL     1       7.404   6.605  18.155  0.00  0.00    +0.000 A 
ATOM     20  F   UNL     1       8.426   7.371  18.592  0.00  0.00    +0.000 F 
ATOM     21  C   UNL     1       6.610   7.061  17.119  0.00  0.00    +0.000 A 
ATOM     22  C   UNL     1       5.555   6.262  16.686  0.00  0.00    +0.000 A 
ATOM     23  F   UNL     1       4.843   6.696  15.644  0.00  0.00    +0.000 F 
ENDBRANCH  15  16
ENDBRANCH   1  15
TORSDOF 3
ENDMDL
MODEL 3
REMARK VINA RESULT:      -8.0      3.681      5.527
REMARK  Name = 
REMARK  3 active torsions:
REMARK  status: ('A' for Active; 'I' for Inactive)
REMARK    1  A    between atoms: O_1  and  C_2
REMARK    2  A    between atoms: C_2  and  C_3
REMARK    3  A    between atoms: C_3  and  C_4
REMARK                            x       y       z     vdW  Elec       q    Type
REMARK                         _______ _______ _______ _____ _____    ______ ____
ROOT
ATOM      1  C   UNL     1       5.800   4.504  16.085  0.00  0.00    +0.000 C 
ATOM      2  C   UNL     1       6.794   5.440  16.795  0.00  0.00    +0.000 A 
ATOM      3  C   UNL     1       7.020   6.798  16.619  0.00  0.00    +0.000 A 
ATOM      4  C   UNL     1       7.695   7.528  17.612  0.00  0.00    +0.000 A 
ATOM      5  C   UNL     1       8.141   6.913  18.791  0.00  0.00    +0.000 A 
ATOM      6  C   UNL     1       7.759   5.609  19.071  0.00  0.00    +0.000 A 
ATOM      7  C   UNL     1       7.001   4.974  18.107  0.00  0.00    +0.000 A 
ATOM      8  C   UNL     1       5.709   4.351  18.382  0.00  0.00    +0.000 C 
ATOM      9  N   UNL     1       5.211   3.904  19.493  0.00  0.00    +0.000 NA
ATOM     10  C   UNL     1       3.789   3.653  19.068  0.00  0.00    +0.000 C 
ATOM     11  C   UNL     1       3.775   3.581  17.506  0.00  0.00    +0.000 C 
ATOM     12  N   UNL     1       4.936   4.361  17.239  0.00  0.00    +0.000 N 
ENDROOT
BRANCH   1  13
ATOM     13  O   UNL     1       6.362   3.210  15.838  0.00  0.00    +0.000 OA
ATOM     14  H   UNL     1       5.935   2.582  16.441  0.00  0.00    +0.000 HD
ENDBRANCH   1  13
BRANCH   1  15
ATOM     15  C   UNL     1       5.179   4.980  14.750  0.00  0.00    +0.000 C 
BRANCH  15  16
ATOM     16  C   UNL     1       5.702   4.217  13.519  0.00  0.00    +0.000 A 
ATOM     17  C   UNL     1       4.900   3.274  12.854  0.00  0.00    +0.000 A 
ATOM     18  C   UNL     1       5.421   2.490  11.824  0.00  0.00    +0.000 A 
ATOM     19  C   UNL     1       6.743   2.638  11.443  0.00  0.00    +0.000 A 
ATOM     20  F   UNL     1       7.251   1.855  10.468  0.00  0.00    +0.000 F 
ATOM     21  C   UNL     1       7.554   3.583  12.044  0.00  0.00    +0.000 A 
ATOM     22  C   UNL     1       7.017   4.377  13.054  0.00  0.00    +0.000 A 
ATOM     23  F   UNL     1       7.801   5.324  13.575  0.00  0.00    +0.000 F 
ENDBRANCH  15  16
ENDBRANCH   1  15
TORSDOF 3
ENDMDL
MODEL 4
REMARK VINA RESULT:      -8.0      3.450      6.047
REMARK  Name = 
REMARK  3 active torsions:
REMARK  status: ('A' for Active; 'I' for Inactive)
REMARK    1  A    between atoms: O_1  and  C_2
REMARK    2  A    between atoms: C_2  and  C_3
REMARK    3  A    between atoms: C_3  and  C_4
REMARK                            x       y       z     vdW  Elec       q    Type
REMARK                         _______ _______ _______ _____ _____    ______ ____
ROOT
ATOM      1  C   UNL     1       5.202   4.226  17.133  0.00  0.00    +0.000 C 
ATOM      2  C   UNL     1       6.095   5.195  17.930  0.00  0.00    +0.000 A 
ATOM      3  C   UNL     1       6.908   4.956  19.029  0.00  0.00    +0.000 A 
ATOM      4  C   UNL     1       7.912   5.880  19.368  0.00  0.00    +0.000 A 
ATOM      5  C   UNL     1       8.120   7.041  18.609  0.00  0.00    +0.000 A 
ATOM      6  C   UNL     1       7.451   7.200  17.404  0.00  0.00    +0.000 A 
ATOM      7  C   UNL     1       6.554   6.206  17.066  0.00  0.00    +0.000 A 
ATOM      8  C   UNL     1       6.597   5.482  15.798  0.00  0.00    +0.000 C 
ATOM      9  N   UNL     1       7.113   5.817  14.656  0.00  0.00    +0.000 NA
ATOM     10  C   UNL     1       7.005   4.510  13.918  0.00  0.00    +0.000 C 
ATOM     11  C   UNL     1       5.948   3.637  14.670  0.00  0.00    +0.000 C 
ATOM     12  N   UNL     1       6.056   4.224  15.963  0.00  0.00    +0.000 N 
ENDROOT
BRANCH   1  13
ATOM     13  O   UNL     1       3.969   4.836  16.734  0.00  0.00    +0.000 OA
ATOM     14  H   UNL     1       3.682   5.420  17.453  0.00  0.00    +0.000 HD
ENDBRANCH   1  13
BRANCH   1  15
ATOM     15  C   UNL     1       4.836   2.871  17.785  0.00  0.00    +0.000 C 
BRANCH  15  16
ATOM     16  C   UNL     1       3.628   2.951  18.737  0.00  0.00    +0.000 A 
ATOM     17  C   UNL     1       3.734   3.569  19.995  0.00  0.00    +0.000 A 
ATOM     18  C   UNL     1       2.678   3.522  20.907  0.00  0.00    +0.000 A 
ATOM     19  C   UNL     1       1.507   2.863  20.575  0.00  0.00    +0.000 A 
ATOM     20  F   UNL     1       0.501   2.793  21.473  0.00  0.00    +0.000 F 
ATOM     21  C   UNL     1       1.348   2.278  19.332  0.00  0.00    +0.000 A 
ATOM     22  C   UNL     1       2.399   2.352  18.422  0.00  0.00    +0.000 A 
ATOM     23  F   UNL     1       2.197   1.834  17.208  0.00  0.00    +0.000 F 
ENDBRANCH  15  16
ENDBRANCH   1  15
TORSDOF 3
ENDMDL
MODEL 5
REMARK VINA RESULT:      -7.9      2.881      5.148
REMARK  Name = 
REMARK  3 active torsions:
REMARK  status: ('A' for Active; 'I' for Inactive)
REMARK    1  A    between atoms: O_1  and  C_2
REMARK    2  A    between atoms: C_2  and  C_3
REMARK    3  A    between atoms: C_3  and  C_4
REMARK                            x       y       z     vdW  Elec       q    Type
REMARK                         _______ _______ _______ _____ _____    ______ ____
ROOT
ATOM      1  C   UNL     1       3.134   5.290  18.460  0.00  0.00    +0.000 C 
ATOM      2  C   UNL     1       4.292   5.451  17.457  0.00  0.00    +0.000 A 
ATOM      3  C   UNL     1       5.481   6.156  17.576  0.00  0.00    +0.000 A 
ATOM      4  C   UNL     1       6.551   5.873  16.710  0.00  0.00    +0.000 A 
ATOM      5  C   UNL     1       6.448   4.877  15.728  0.00  0.00    +0.000 A 
ATOM      6  C   UNL     1       5.346   4.035  15.719  0.00  0.00    +0.000 A 
ATOM      7  C   UNL     1       4.372   4.290  16.665  0.00  0.00    +0.000 A 
ATOM      8  C   UNL     1       3.879   3.285  17.602  0.00  0.00    +0.000 C 
ATOM      9  N   UNL     1       3.885   1.990  17.526  0.00  0.00    +0.000 NA
ATOM     10  C   UNL     1       3.461   1.637  18.926  0.00  0.00    +0.000 C 
ATOM     11  C   UNL     1       2.792   2.907  19.545  0.00  0.00    +0.000 C 
ATOM     12  N   UNL     1       3.431   3.902  18.752  0.00  0.00    +0.000 N 
ENDROOT
BRANCH   1  13
ATOM     13  O   UNL     1       1.857   5.302  17.812  0.00  0.00    +0.000 OA
ATOM     14  H   UNL     1       1.873   4.630  17.113  0.00  0.00    +0.000 HD
ENDBRANCH   1  13
BRANCH   1  15
ATOM     15  C   UNL     1       3.046   6.291  19.635  0.00  0.00    +0.000 C 
BRANCH  15  16
ATOM     16  C   UNL     1       2.284   7.584  19.289  0.00  0.00    +0.000 A 
ATOM     17  C   UNL     1       2.467   8.226  18.052  0.00  0.00    +0.000 A 
ATOM     18  C   UNL     1       1.879   9.465  17.794  0.00  0.00    +0.000 A 
ATOM     19  C   UNL     1       1.102  10.076  18.762  0.00  0.00    +0.000 A 
ATOM     20  F   UNL     1       0.561  11.289  18.519  0.00  0.00    +0.000 F 
ATOM     21  C   UNL     1       0.864   9.459  19.976  0.00  0.00    +0.000 A 
ATOM     22  C   UNL     1       1.435   8.212  20.214  0.00  0.00    +0.000 A 
ATOM     23  F   UNL     1       1.140   7.609  21.368  0.00  0.00    +0.000 F 
ENDBRANCH  15  16
ENDBRANCH   1  15
TORSDOF 3
ENDMDL
MODEL 6
REMARK VINA RESULT:      -7.8      3.177      6.192
REMARK  Name = 
REMARK  3 active torsions:
REMARK  status: ('A' for Active; 'I' for Inactive)
REMARK    1  A    between atoms: O_1  and  C_2
REMARK    2  A    between atoms: C_2  and  C_3
REMARK    3  A    between atoms: C_3  and  C_4
REMARK                            x       y       z     vdW  Elec       q    Type
REMARK                         _______ _______ _______ _____ _____    ______ ____
ROOT
ATOM      1  C   UNL     1       4.887   3.900  17.301  0.00  0.00    +0.000 C 
ATOM      2  C   UNL     1       5.715   3.910  16.003  0.00  0.00    +0.000 A 
ATOM      3  C   UNL     1       5.444   3.332  14.770  0.00  0.00    +0.000 A 
ATOM      4  C   UNL     1       6.137   3.768  13.628  0.00  0.00    +0.000 A 
ATOM      5  C   UNL     1       7.095   4.788  13.703  0.00  0.00    +0.000 A 
ATOM      6  C   UNL     1       7.241   5.507  14.881  0.00  0.00    +0.000 A 
ATOM      7  C   UNL     1       6.454   5.105  15.943  0.00  0.00    +0.000 A 
ATOM      8  C   UNL     1       5.571   6.009  16.675  0.00  0.00    +0.000 C 
ATOM      9  N   UNL     1       5.608   7.299  16.805  0.00  0.00    +0.000 NA
ATOM     10  C   UNL     1       4.275   7.543  17.460  0.00  0.00    +0.000 C 
ATOM     11  C   UNL     1       3.796   6.181  18.062  0.00  0.00    +0.000 C 
ATOM     12  N   UNL     1       4.515   5.297  17.207  0.00  0.00    +0.000 N 
ENDROOT
BRANCH   1  13
ATOM     13  O   UNL     1       5.713   3.778  18.464  0.00  0.00    +0.000 OA
ATOM     14  H   UNL     1       5.418   2.996  18.956  0.00  0.00    +0.000 HD
ENDBRANCH   1  13
BRANCH   1  15
ATOM     15  C   UNL     1       3.765   2.844  17.440  0.00  0.00    +0.000 C 
BRANCH  15  16
ATOM     16  C   UNL     1       3.010   2.918  18.781  0.00  0.00    +0.000 A 
ATOM     17  C   UNL     1       3.605   2.479  19.976  0.00  0.00    +0.000 A 
ATOM     18  C   UNL     1       2.873   2.424  21.163  0.00  0.00    +0.000 A 
ATOM     19  C   UNL     1       1.544   2.808  21.173  0.00  0.00    +0.000 A 
ATOM     20  F   UNL     1       0.831   2.723  22.317  0.00  0.00    +0.000 F 
ATOM     21  C   UNL     1       0.932   3.285  20.028  0.00  0.00    +0.000 A 
ATOM     22  C   UNL     1       1.679   3.359  18.855  0.00  0.00    +0.000 A 
ATOM     23  F   UNL     1       1.085   3.881  17.780  0.00  0.00    +0.000 F 
ENDBRANCH  15  16
ENDBRANCH   1  15
TORSDOF 3
ENDMDL
MODEL 7
REMARK VINA RESULT:      -7.7      3.341      6.066
REMARK  Name = 
REMARK  3 active torsions:
REMARK  status: ('A' for Active; 'I' for Inactive)
REMARK    1  A    between atoms: O_1  and  C_2
REMARK    2  A    between atoms: C_2  and  C_3
REMARK    3  A    between atoms: C_3  and  C_4
REMARK                            x       y       z     vdW  Elec       q    Type
REMARK                         _______ _______ _______ _____ _____    ______ ____
ROOT
ATOM      1  C   UNL     1       5.128   4.165  16.839  0.00  0.00    +0.000 C 
ATOM      2  C   UNL     1       5.988   5.048  17.761  0.00  0.00    +0.000 A 
ATOM      3  C   UNL     1       6.695   4.714  18.908  0.00  0.00    +0.000 A 
ATOM      4  C   UNL     1       7.703   5.572  19.381  0.00  0.00    +0.000 A 
ATOM      5  C   UNL     1       8.020   6.762  18.710  0.00  0.00    +0.000 A 
ATOM      6  C   UNL     1       7.463   7.017  17.465  0.00  0.00    +0.000 A 
ATOM      7  C   UNL     1       6.559   6.084  16.997  0.00  0.00    +0.000 A 
ATOM      8  C   UNL     1       6.681   5.429  15.698  0.00  0.00    +0.000 C 
ATOM      9  N   UNL     1       7.305   5.802  14.623  0.00  0.00    +0.000 NA
ATOM     10  C   UNL     1       7.207   4.543  13.805  0.00  0.00    +0.000 C 
ATOM     11  C   UNL     1       6.056   3.678  14.415  0.00  0.00    +0.000 C 
ATOM     12  N   UNL     1       6.078   4.189  15.744  0.00  0.00    +0.000 N 
ENDROOT
BRANCH   1  13
ATOM     13  O   UNL     1       3.959   4.850  16.375  0.00  0.00    +0.000 OA
ATOM     14  H   UNL     1       3.287   4.792  17.072  0.00  0.00    +0.000 HD
ENDBRANCH   1  13
BRANCH   1  15
ATOM     15  C   UNL     1       4.655   2.794  17.379  0.00  0.00    +0.000 C 
BRANCH  15  16
ATOM     16  C   UNL     1       3.547   2.900  18.443  0.00  0.00    +0.000 A 
ATOM     17  C   UNL     1       2.260   3.354  18.109  0.00  0.00    +0.000 A 
ATOM     18  C   UNL     1       1.299   3.573  19.098  0.00  0.00    +0.000 A 
ATOM     19  C   UNL     1       1.609   3.342  20.426  0.00  0.00    +0.000 A 
ATOM     20  F   UNL     1       0.687   3.587  21.381  0.00  0.00    +0.000 F 
ATOM     21  C   UNL     1       2.851   2.856  20.793  0.00  0.00    +0.000 A 
ATOM     22  C   UNL     1       3.793   2.617  19.796  0.00  0.00    +0.000 A 
ATOM     23  F   UNL     1       4.962   2.089  20.168  0.00  0.00    +0.000 F 
ENDBRANCH  15  16
ENDBRANCH   1  15
TORSDOF 3
ENDMDL
MODEL 8
REMARK VINA RESULT:      -7.6      3.312      6.439
REMARK  Name = 
REMARK  3 active torsions:
REMARK  status: ('A' for Active; 'I' for Inactive)
REMARK    1  A    between atoms: O_1  and  C_2
REMARK    2  A    between atoms: C_2  and  C_3
REMARK    3  A    between atoms: C_3  and  C_4
REMARK                            x       y       z     vdW  Elec       q    Type
REMARK                         _______ _______ _______ _____ _____    ______ ____
ROOT
ATOM      1  C   UNL     1       4.530   4.006  16.787  0.00  0.00    +0.000 C 
ATOM      2  C   UNL     1       5.475   3.929  15.574  0.00  0.00    +0.000 A 
ATOM      3  C   UNL     1       5.206   3.586  14.256  0.00  0.00    +0.000 A 
ATOM      4  C   UNL     1       6.117   3.936  13.244  0.00  0.00    +0.000 A 
ATOM      5  C   UNL     1       7.295   4.638  13.536  0.00  0.00    +0.000 A 
ATOM      6  C   UNL     1       7.487   5.155  14.809  0.00  0.00    +0.000 A 
ATOM      7  C   UNL     1       6.506   4.873  15.738  0.00  0.00    +0.000 A 
ATOM      8  C   UNL     1       5.814   5.900  16.512  0.00  0.00    +0.000 C 
ATOM      9  N   UNL     1       6.175   7.107  16.819  0.00  0.00    +0.000 NA
ATOM     10  C   UNL     1       4.886   7.636  17.390  0.00  0.00    +0.000 C 
ATOM     11  C   UNL     1       3.999   6.403  17.760  0.00  0.00    +0.000 C 
ATOM     12  N   UNL     1       4.554   5.454  16.854  0.00  0.00    +0.000 N 
ENDROOT
BRANCH   1  13
ATOM     13  O   UNL     1       5.155   3.535  17.986  0.00  0.00    +0.000 OA
ATOM     14  H   UNL     1       5.548   2.669  17.794  0.00  0.00    +0.000 HD
ENDBRANCH   1  13
BRANCH   1  15
ATOM     15  C   UNL     1       3.161   3.292  16.689  0.00  0.00    +0.000 C 
BRANCH  15  16
ATOM     16  C   UNL     1       2.470   3.092  18.051  0.00  0.00    +0.000 A 
ATOM     17  C   UNL     1       1.589   4.058  18.567  0.00  0.00    +0.000 A 
ATOM     18  C   UNL     1       1.069   3.936  19.857  0.00  0.00    +0.000 A 
ATOM     19  C   UNL     1       1.419   2.854  20.643  0.00  0.00    +0.000 A 
ATOM     20  F   UNL     1       0.939   2.758  21.902  0.00  0.00    +0.000 F 
ATOM     21  C   UNL     1       2.251   1.861  20.158  0.00  0.00    +0.000 A 
ATOM     22  C   UNL     1       2.744   1.980  18.861  0.00  0.00    +0.000 A 
ATOM     23  F   UNL     1       3.493   0.978  18.394  0.00  0.00    +0.000 F 
ENDBRANCH  15  16
ENDBRANCH   1  15
TORSDOF 3
ENDMDL
MODEL 9
REMARK VINA RESULT:      -7.6      1.960      3.250
REMARK  Name = 
REMARK  3 active torsions:
REMARK  status: ('A' for Active; 'I' for Inactive)
REMARK    1  A    between atoms: O_1  and  C_2
REMARK    2  A    between atoms: C_2  and  C_3
REMARK    3  A    between atoms: C_3  and  C_4
REMARK                            x       y       z     vdW  Elec       q    Type
REMARK                         _______ _______ _______ _____ _____    ______ ____
ROOT
ATOM      1  C   UNL     1       2.723   4.512  18.116  0.00  0.00    +0.000 C 
ATOM      2  C   UNL     1       2.597   3.505  19.274  0.00  0.00    +0.000 A 
ATOM      3  C   UNL     1       3.551   2.664  19.830  0.00  0.00    +0.000 A 
ATOM      4  C   UNL     1       3.334   2.107  21.102  0.00  0.00    +0.000 A 
ATOM      5  C   UNL     1       2.172   2.392  21.833  0.00  0.00    +0.000 A 
ATOM      6  C   UNL     1       1.303   3.376  21.383  0.00  0.00    +0.000 A 
ATOM      7  C   UNL     1       1.623   3.969  20.177  0.00  0.00    +0.000 A 
ATOM      8  C   UNL     1       1.756   5.413  20.003  0.00  0.00    +0.000 C 
ATOM      9  N   UNL     1       1.258   6.392  20.693  0.00  0.00    +0.000 NA
ATOM     10  C   UNL     1       2.011   7.551  20.098  0.00  0.00    +0.000 C 
ATOM     11  C   UNL     1       2.580   7.078  18.720  0.00  0.00    +0.000 C 
ATOM     12  N   UNL     1       2.633   5.678  18.972  0.00  0.00    +0.000 N 
ENDROOT
BRANCH   1  13
ATOM     13  O   UNL     1       1.555   4.527  17.287  0.00  0.00    +0.000 OA
ATOM     14  H   UNL     1       1.846   4.451  16.366  0.00  0.00    +0.000 HD
ENDBRANCH   1  13
BRANCH   1  15
ATOM     15  C   UNL     1       3.939   4.382  17.168  0.00  0.00    +0.000 C 
BRANCH  15  16
ATOM     16  C   UNL     1       5.115   5.304  17.543  0.00  0.00    +0.000 A 
ATOM     17  C   UNL     1       5.348   6.502  16.847  0.00  0.00    +0.000 A 
ATOM     18  C   UNL     1       6.488   7.267  17.100  0.00  0.00    +0.000 A 
ATOM     19  C   UNL     1       7.405   6.848  18.048  0.00  0.00    +0.000 A 
ATOM     20  F   UNL     1       8.522   7.574  18.266  0.00  0.00    +0.000 F 
ATOM     21  C   UNL     1       7.191   5.696  18.783  0.00  0.00    +0.000 A 
ATOM     22  C   UNL     1       6.039   4.954  18.540  0.00  0.00    +0.000 A 
ATOM     23  F   UNL     1       5.825   3.882  19.306  0.00  0.00    +0.000 F 
ENDBRANCH  15  16
ENDBRANCH   1  15
TORSDOF 3
ENDMDL
