MODEL 1
REMARK VINA RESULT:      -7.5      0.000      0.000
REMARK  Name = 
REMARK  7 active torsions:
REMARK  status: ('A' for Active; 'I' for Inactive)
REMARK    1  A    between atoms: C_1  and  O_2
REMARK    2  A    between atoms: O_2  and  C_3
REMARK    3  A    between atoms: C_6  and  C_7
REMARK    4  A    between atoms: C_7  and  O_9
REMARK    5  A    between atoms: C_10  and  N_11
REMARK    6  A    between atoms: N_11  and  C_12
REMARK    7  A    between atoms: C_15  and  N_16
REMARK                            x       y       z     vdW  Elec       q    Type
REMARK                         _______ _______ _______ _____ _____    ______ ____
ROOT
ATOM      1  C   UNL     1       1.718   5.886  20.526  0.00  0.00    +0.000 A 
ATOM      2  C   UNL     1       1.195   4.597  20.569  0.00  0.00    +0.000 A 
ATOM      3  C   UNL     1       1.965   3.506  20.155  0.00  0.00    +0.000 A 
ATOM      4  C   UNL     1       3.274   3.686  19.674  0.00  0.00    +0.000 A 
ATOM      5  C   UNL     1       3.805   4.991  19.606  0.00  0.00    +0.000 A 
ATOM      6  C   UNL     1       3.022   6.069  20.072  0.00  0.00    +0.000 A 
ENDROOT
BRANCH   1   8
ATOM      7  C   UNL     1       1.355   8.214  20.842  0.00  0.00    +0.000 C 
ATOM      8  O   UNL     1       0.884   6.876  20.963  0.00  0.00    +0.000 OA
ENDBRANCH   1   8
BRANCH   4   9
ATOM      9  C   UNL     1       4.001   2.451  19.248  0.00  0.00    +0.000 C 
ATOM     10  O   UNL     1       3.622   1.753  18.322  0.00  0.00    +0.000 OA
BRANCH   9  11
ATOM     11  O   UNL     1       5.110   2.159  19.959  0.00  0.00    +0.000 OA
ATOM     12  H   UNL     1       5.182   2.678  20.789  0.00  0.00    +0.000 HD
ENDBRANCH   9  11
ENDBRANCH   4   9
BRANCH   5  13
ATOM     13  N   UNL     1       5.166   5.230  19.224  0.00  0.00    +0.000 N 
ATOM     14  H   UNL     1       5.439   6.136  19.627  0.00  0.00    +0.000 HD
BRANCH  13  15
ATOM     15  C   UNL     1       5.655   5.169  17.885  0.00  0.00    +0.000 A 
ATOM     16  C   UNL     1       6.853   4.491  17.616  0.00  0.00    +0.000 A 
ATOM     17  C   UNL     1       7.346   4.401  16.308  0.00  0.00    +0.000 A 
ATOM     18  C   UNL     1       6.625   4.972  15.255  0.00  0.00    +0.000 A 
ATOM     19  C   UNL     1       5.402   5.603  15.495  0.00  0.00    +0.000 A 
ATOM     20  C   UNL     1       4.910   5.666  16.803  0.00  0.00    +0.000 A 
BRANCH  18  21
ATOM     21  N   UNL     1       7.147   4.902  13.881  0.00  0.00    +0.000 N 
ATOM     22  O   UNL     1       8.069   5.670  13.579  0.00  0.00    +0.000 OA
ATOM     23  O   UNL     1       6.627   4.086  13.110  0.00  0.00    +0.000 OA
ENDBRANCH  18  21
ENDBRANCH  13  15
ENDBRANCH   5  13
TORSDOF 6
ENDMDL
MODEL 2
REMARK VINA RESULT:      -7.3      0.231      1.276
REMARK  Name = 
REMARK  7 active torsions:
REMARK  status: ('A' for Active; 'I' for Inactive)
REMARK    1  A    between atoms: C_1  and  O_2
REMARK    2  A    between atoms: O_2  and  C_3
REMARK    3  A    between atoms: C_6  and  C_7
REMARK    4  A    between atoms: C_7  and  O_9
REMARK    5  A    between atoms: C_10  and  N_11
REMARK    6  A    between atoms: N_11  and  C_12
REMARK    7  A    between atoms: C_15  and  N_16
REMARK                            x       y       z     vdW  Elec       q    Type
REMARK                         _______ _______ _______ _____ _____    ______ ____
ROOT
ATOM      1  C   UNL     1       1.803   5.813  20.508  0.00  0.00    +0.000 A 
ATOM      2  C   UNL     1       1.265   4.539  20.661  0.00  0.00    +0.000 A 
ATOM      3  C   UNL     1       2.026   3.408  20.355  0.00  0.00    +0.000 A 
ATOM      4  C   UNL     1       3.342   3.530  19.874  0.00  0.00    +0.000 A 
ATOM      5  C   UNL     1       3.888   4.818  19.695  0.00  0.00    +0.000 A 
ATOM      6  C   UNL     1       3.113   5.941  20.054  0.00  0.00    +0.000 A 
ENDROOT
BRANCH   1   8
ATOM      7  C   UNL     1       1.489   8.165  20.673  0.00  0.00    +0.000 C 
ATOM      8  O   UNL     1       0.976   6.847  20.847  0.00  0.00    +0.000 OA
ENDBRANCH   1   8
BRANCH   4   9
ATOM      9  C   UNL     1       4.059   2.254  19.567  0.00  0.00    +0.000 C 
ATOM     10  O   UNL     1       5.034   1.881  20.198  0.00  0.00    +0.000 OA
BRANCH   9  11
ATOM     11  O   UNL     1       3.553   1.539  18.541  0.00  0.00    +0.000 OA
ATOM     12  H   UNL     1       4.247   1.155  17.962  0.00  0.00    +0.000 HD
ENDBRANCH   9  11
ENDBRANCH   4   9
BRANCH   5  13
ATOM     13  N   UNL     1       5.256   5.008  19.306  0.00  0.00    +0.000 N 
ATOM     14  H   UNL     1       5.568   5.894  19.724  0.00  0.00    +0.000 HD
BRANCH  13  15
ATOM     15  C   UNL     1       5.732   4.951  17.963  0.00  0.00    +0.000 A 
ATOM     16  C   UNL     1       4.897   5.365  16.915  0.00  0.00    +0.000 A 
ATOM     17  C   UNL     1       5.346   5.334  15.588  0.00  0.00    +0.000 A 
ATOM     18  C   UNL     1       6.648   4.910  15.307  0.00  0.00    +0.000 A 
ATOM     19  C   UNL     1       7.514   4.547  16.342  0.00  0.00    +0.000 A 
ATOM     20  C   UNL     1       7.060   4.603  17.663  0.00  0.00    +0.000 A 
BRANCH  18  21
ATOM     21  N   UNL     1       7.120   4.855  13.914  0.00  0.00    +0.000 N 
ATOM     22  O   UNL     1       8.007   5.651  13.578  0.00  0.00    +0.000 OA
ATOM     23  O   UNL     1       6.597   4.023  13.163  0.00  0.00    +0.000 OA
ENDBRANCH  18  21
ENDBRANCH  13  15
ENDBRANCH   5  13
TORSDOF 6
ENDMDL
MODEL 3
REMARK VINA RESULT:      -7.3      1.170      1.376
REMARK  Name = 
REMARK  7 active torsions:
REMARK  status: ('A' for Active; 'I' for Inactive)
REMARK    1  A    between atoms: C_1  and  O_2
REMARK    2  A    between atoms: O_2  and  C_3
REMARK    3  A    between atoms: C_6  and  C_7
REMARK    4  A    between atoms: C_7  and  O_9
REMARK    5  A    between atoms: C_10  and  N_11
REMARK    6  A    between atoms: N_11  and  C_12
REMARK    7  A    between atoms: C_15  and  N_16
REMARK                            x       y       z     vdW  Elec       q    Type
REMARK                         _______ _______ _______ _____ _____    ______ ____
ROOT
ATOM      1  C   UNL     1       2.319   6.868  19.723  0.00  0.00    +0.000 A 
ATOM      2  C   UNL     1       1.457   6.151  20.547  0.00  0.00    +0.000 A 
ATOM      3  C   UNL     1       1.747   4.828  20.894  0.00  0.00    +0.000 A 
ATOM      4  C   UNL     1       2.902   4.190  20.408  0.00  0.00    +0.000 A 
ATOM      5  C   UNL     1       3.770   4.903  19.554  0.00  0.00    +0.000 A 
ATOM      6  C   UNL     1       3.476   6.250  19.257  0.00  0.00    +0.000 A 
ENDROOT
BRANCH   1   8
ATOM      7  C   UNL     1       1.209   8.835  20.470  0.00  0.00    +0.000 C 
ATOM      8  O   UNL     1       1.944   8.155  19.457  0.00  0.00    +0.000 OA
ENDBRANCH   1   8
BRANCH   4   9
ATOM      9  C   UNL     1       3.107   2.771  20.832  0.00  0.00    +0.000 C 
ATOM     10  O   UNL     1       2.802   2.368  21.942  0.00  0.00    +0.000 OA
BRANCH   9  11
ATOM     11  O   UNL     1       3.653   1.962  19.901  0.00  0.00    +0.000 OA
ATOM     12  H   UNL     1       4.616   1.823  20.031  0.00  0.00    +0.000 HD
ENDBRANCH   9  11
ENDBRANCH   4   9
BRANCH   5  13
ATOM     13  N   UNL     1       5.014   4.344  19.110  0.00  0.00    +0.000 N 
ATOM     14  H   UNL     1       5.739   4.658  19.769  0.00  0.00    +0.000 HD
BRANCH  13  15
ATOM     15  C   UNL     1       5.529   4.464  17.785  0.00  0.00    +0.000 A 
ATOM     16  C   UNL     1       6.887   4.757  17.594  0.00  0.00    +0.000 A 
ATOM     17  C   UNL     1       7.422   4.865  16.303  0.00  0.00    +0.000 A 
ATOM     18  C   UNL     1       6.599   4.652  15.193  0.00  0.00    +0.000 A 
ATOM     19  C   UNL     1       5.257   4.303  15.363  0.00  0.00    +0.000 A 
ATOM     20  C   UNL     1       4.742   4.179  16.657  0.00  0.00    +0.000 A 
BRANCH  18  21
ATOM     21  N   UNL     1       7.148   4.784  13.834  0.00  0.00    +0.000 N 
ATOM     22  O   UNL     1       8.049   5.613  13.658  0.00  0.00    +0.000 OA
ATOM     23  O   UNL     1       6.669   4.064  12.949  0.00  0.00    +0.000 OA
ENDBRANCH  18  21
ENDBRANCH  13  15
ENDBRANCH   5  13
TORSDOF 6
ENDMDL
MODEL 4
REMARK VINA RESULT:      -7.1      0.871      1.125
REMARK  Name = 
REMARK  7 active torsions:
REMARK  status: ('A' for Active; 'I' for Inactive)
REMARK    1  A    between atoms: C_1  and  O_2
REMARK    2  A    between atoms: O_2  and  C_3
REMARK    3  A    between atoms: C_6  and  C_7
REMARK    4  A    between atoms: C_7  and  O_9
REMARK    5  A    between atoms: C_10  and  N_11
REMARK    6  A    between atoms: N_11  and  C_12
REMARK    7  A    between atoms: C_15  and  N_16
REMARK                            x       y       z     vdW  Elec       q    Type
REMARK                         _______ _______ _______ _____ _____    ______ ____
ROOT
ATOM      1  C   UNL     1       2.259   6.061  20.122  0.00  0.00    +0.000 A 
ATOM      2  C   UNL     1       1.525   4.925  20.450  0.00  0.00    +0.000 A 
ATOM      3  C   UNL     1       2.066   3.652  20.252  0.00  0.00    +0.000 A 
ATOM      4  C   UNL     1       3.352   3.490  19.706  0.00  0.00    +0.000 A 
ATOM      5  C   UNL     1       4.094   4.635  19.350  0.00  0.00    +0.000 A 
ATOM      6  C   UNL     1       3.542   5.908  19.602  0.00  0.00    +0.000 A 
ENDROOT
BRANCH   1   8
ATOM      7  C   UNL     1       1.854   8.297  19.419  0.00  0.00    +0.000 C 
ATOM      8  O   UNL     1       1.639   7.255  20.366  0.00  0.00    +0.000 OA
ENDBRANCH   1   8
BRANCH   4   9
ATOM      9  C   UNL     1       3.825   2.082  19.527  0.00  0.00    +0.000 C 
ATOM     10  O   UNL     1       4.819   1.648  20.085  0.00  0.00    +0.000 OA
BRANCH   9  11
ATOM     11  O   UNL     1       3.075   1.320  18.704  0.00  0.00    +0.000 OA
ATOM     12  H   UNL     1       2.826   1.782  17.875  0.00  0.00    +0.000 HD
ENDBRANCH   9  11
ENDBRANCH   4   9
BRANCH   5  13
ATOM     13  N   UNL     1       5.448   4.539  18.886  0.00  0.00    +0.000 N 
ATOM     14  H   UNL     1       5.994   5.241  19.403  0.00  0.00    +0.000 HD
BRANCH  13  15
ATOM     15  C   UNL     1       5.840   4.584  17.516  0.00  0.00    +0.000 A 
ATOM     16  C   UNL     1       7.015   5.258  17.153  0.00  0.00    +0.000 A 
ATOM     17  C   UNL     1       7.431   5.303  15.816  0.00  0.00    +0.000 A 
ATOM     18  C   UNL     1       6.681   4.648  14.835  0.00  0.00    +0.000 A 
ATOM     19  C   UNL     1       5.538   3.924  15.183  0.00  0.00    +0.000 A 
ATOM     20  C   UNL     1       5.146   3.869  16.525  0.00  0.00    +0.000 A 
BRANCH  18  21
ATOM     21  N   UNL     1       7.099   4.709  13.425  0.00  0.00    +0.000 N 
ATOM     22  O   UNL     1       7.956   5.547  13.118  0.00  0.00    +0.000 OA
ATOM     23  O   UNL     1       6.563   3.925  12.633  0.00  0.00    +0.000 OA
ENDBRANCH  18  21
ENDBRANCH  13  15
ENDBRANCH   5  13
TORSDOF 6
ENDMDL
MODEL 5
REMARK VINA RESULT:      -7.1      0.421      1.317
REMARK  Name = 
REMARK  7 active torsions:
REMARK  status: ('A' for Active; 'I' for Inactive)
REMARK    1  A    between atoms: C_1  and  O_2
REMARK    2  A    between atoms: O_2  and  C_3
REMARK    3  A    between atoms: C_6  and  C_7
REMARK    4  A    between atoms: C_7  and  O_9
REMARK    5  A    between atoms: C_10  and  N_11
REMARK    6  A    between atoms: N_11  and  C_12
REMARK    7  A    between atoms: C_15  and  N_16
REMARK                            x       y       z     vdW  Elec       q    Type
REMARK                         _______ _______ _______ _____ _____    ______ ____
ROOT
ATOM      1  C   UNL     1       2.130   6.077  20.387  0.00  0.00    +0.000 A 
ATOM      2  C   UNL     1       1.471   4.859  20.524  0.00  0.00    +0.000 A 
ATOM      3  C   UNL     1       2.098   3.669  20.144  0.00  0.00    +0.000 A 
ATOM      4  C   UNL     1       3.396   3.677  19.603  0.00  0.00    +0.000 A 
ATOM      5  C   UNL     1       4.063   4.909  19.440  0.00  0.00    +0.000 A 
ATOM      6  C   UNL     1       3.424   6.089  19.874  0.00  0.00    +0.000 A 
ENDROOT
BRANCH   1   8
ATOM      7  C   UNL     1       1.621   8.377  20.057  0.00  0.00    +0.000 C 
ATOM      8  O   UNL     1       1.429   7.176  20.799  0.00  0.00    +0.000 OA
ENDBRANCH   1   8
BRANCH   4   9
ATOM      9  C   UNL     1       3.964   2.347  19.220  0.00  0.00    +0.000 C 
ATOM     10  O   UNL     1       3.366   1.559  18.507  0.00  0.00    +0.000 OA
BRANCH   9  11
ATOM     11  O   UNL     1       5.188   2.076  19.719  0.00  0.00    +0.000 OA
ATOM     12  H   UNL     1       5.395   1.117  19.728  0.00  0.00    +0.000 HD
ENDBRANCH   9  11
ENDBRANCH   4   9
BRANCH   5  13
ATOM     13  N   UNL     1       5.424   4.974  18.992  0.00  0.00    +0.000 N 
ATOM     14  H   UNL     1       5.841   5.814  19.415  0.00  0.00    +0.000 HD
BRANCH  13  15
ATOM     15  C   UNL     1       5.832   4.906  17.627  0.00  0.00    +0.000 A 
ATOM     16  C   UNL     1       4.989   5.415  16.628  0.00  0.00    +0.000 A 
ATOM     17  C   UNL     1       5.373   5.376  15.280  0.00  0.00    +0.000 A 
ATOM     18  C   UNL     1       6.618   4.847  14.930  0.00  0.00    +0.000 A 
ATOM     19  C   UNL     1       7.495   4.387  15.916  0.00  0.00    +0.000 A 
ATOM     20  C   UNL     1       7.109   4.452  17.258  0.00  0.00    +0.000 A 
BRANCH  18  21
ATOM     21  N   UNL     1       7.020   4.783  13.515  0.00  0.00    +0.000 N 
ATOM     22  O   UNL     1       6.557   3.861  12.831  0.00  0.00    +0.000 OA
ATOM     23  O   UNL     1       7.801   5.647  13.100  0.00  0.00    +0.000 OA
ENDBRANCH  18  21
ENDBRANCH  13  15
ENDBRANCH   5  13
TORSDOF 6
ENDMDL
MODEL 6
REMARK VINA RESULT:      -7.1      1.363      1.787
REMARK  Name = 
REMARK  7 active torsions:
REMARK  status: ('A' for Active; 'I' for Inactive)
REMARK    1  A    between atoms: C_1  and  O_2
REMARK    2  A    between atoms: O_2  and  C_3
REMARK    3  A    between atoms: C_6  and  C_7
REMARK    4  A    between atoms: C_7  and  O_9
REMARK    5  A    between atoms: C_10  and  N_11
REMARK    6  A    between atoms: N_11  and  C_12
REMARK    7  A    between atoms: C_15  and  N_16
REMARK                            x       y       z     vdW  Elec       q    Type
REMARK                         _______ _______ _______ _____ _____    ______ ____
ROOT
ATOM      1  C   UNL     1       2.352   6.903  19.698  0.00  0.00    +0.000 A 
ATOM      2  C   UNL     1       1.418   6.284  20.523  0.00  0.00    +0.000 A 
ATOM      3  C   UNL     1       1.544   4.930  20.843  0.00  0.00    +0.000 A 
ATOM      4  C   UNL     1       2.603   4.161  20.329  0.00  0.00    +0.000 A 
ATOM      5  C   UNL     1       3.542   4.774  19.474  0.00  0.00    +0.000 A 
ATOM      6  C   UNL     1       3.417   6.153  19.204  0.00  0.00    +0.000 A 
ENDROOT
BRANCH   1   8
ATOM      7  C   UNL     1       2.077   8.639  18.096  0.00  0.00    +0.000 C 
ATOM      8  O   UNL     1       2.139   8.232  19.459  0.00  0.00    +0.000 OA
ENDBRANCH   1   8
BRANCH   4   9
ATOM      9  C   UNL     1       2.633   2.720  20.727  0.00  0.00    +0.000 C 
ATOM     10  O   UNL     1       3.468   2.267  21.492  0.00  0.00    +0.000 OA
BRANCH   9  11
ATOM     11  O   UNL     1       1.669   1.949  20.180  0.00  0.00    +0.000 OA
ATOM     12  H   UNL     1       0.983   2.469  19.709  0.00  0.00    +0.000 HD
ENDBRANCH   9  11
ENDBRANCH   4   9
BRANCH   5  13
ATOM     13  N   UNL     1       4.700   4.072  19.001  0.00  0.00    +0.000 N 
ATOM     14  H   UNL     1       5.423   4.157  19.728  0.00  0.00    +0.000 HD
BRANCH  13  15
ATOM     15  C   UNL     1       5.313   4.283  17.731  0.00  0.00    +0.000 A 
ATOM     16  C   UNL     1       6.680   4.591  17.665  0.00  0.00    +0.000 A 
ATOM     17  C   UNL     1       7.311   4.788  16.429  0.00  0.00    +0.000 A 
ATOM     18  C   UNL     1       6.576   4.651  15.247  0.00  0.00    +0.000 A 
ATOM     19  C   UNL     1       5.227   4.290  15.290  0.00  0.00    +0.000 A 
ATOM     20  C   UNL     1       4.616   4.075  16.529  0.00  0.00    +0.000 A 
BRANCH  18  21
ATOM     21  N   UNL     1       7.225   4.877  13.946  0.00  0.00    +0.000 N 
ATOM     22  O   UNL     1       6.748   4.300  12.961  0.00  0.00    +0.000 OA
ATOM     23  O   UNL     1       8.213   5.621  13.918  0.00  0.00    +0.000 OA
ENDBRANCH  18  21
ENDBRANCH  13  15
ENDBRANCH   5  13
TORSDOF 6
ENDMDL
MODEL 7
REMARK VINA RESULT:      -7.1      1.348      1.922
REMARK  Name = 
REMARK  7 active torsions:
REMARK  status: ('A' for Active; 'I' for Inactive)
REMARK    1  A    between atoms: C_1  and  O_2
REMARK    2  A    between atoms: O_2  and  C_3
REMARK    3  A    between atoms: C_6  and  C_7
REMARK    4  A    between atoms: C_7  and  O_9
REMARK    5  A    between atoms: C_10  and  N_11
REMARK    6  A    between atoms: N_11  and  C_12
REMARK    7  A    between atoms: C_15  and  N_16
REMARK                            x       y       z     vdW  Elec       q    Type
REMARK                         _______ _______ _______ _____ _____    ______ ____
ROOT
ATOM      1  C   UNL     1       2.375   6.916  19.622  0.00  0.00    +0.000 A 
ATOM      2  C   UNL     1       1.477   6.346  20.520  0.00  0.00    +0.000 A 
ATOM      3  C   UNL     1       1.641   5.024  20.942  0.00  0.00    +0.000 A 
ATOM      4  C   UNL     1       2.702   4.238  20.459  0.00  0.00    +0.000 A 
ATOM      5  C   UNL     1       3.604   4.799  19.532  0.00  0.00    +0.000 A 
ATOM      6  C   UNL     1       3.441   6.150  19.158  0.00  0.00    +0.000 A 
ENDROOT
BRANCH   1   8
ATOM      7  C   UNL     1       1.169   8.915  20.075  0.00  0.00    +0.000 C 
ATOM      8  O   UNL     1       2.127   8.217  19.286  0.00  0.00    +0.000 OA
ENDBRANCH   1   8
BRANCH   4   9
ATOM      9  C   UNL     1       2.773   2.833  20.969  0.00  0.00    +0.000 C 
ATOM     10  O   UNL     1       3.788   2.159  20.897  0.00  0.00    +0.000 OA
BRANCH   9  11
ATOM     11  O   UNL     1       1.635   2.358  21.516  0.00  0.00    +0.000 OA
ATOM     12  H   UNL     1       1.687   2.268  22.492  0.00  0.00    +0.000 HD
ENDBRANCH   9  11
ENDBRANCH   4   9
BRANCH   5  13
ATOM     13  N   UNL     1       4.763   4.084  19.082  0.00  0.00    +0.000 N 
ATOM     14  H   UNL     1       5.485   4.193  19.807  0.00  0.00    +0.000 HD
BRANCH  13  15
ATOM     15  C   UNL     1       5.377   4.255  17.806  0.00  0.00    +0.000 A 
ATOM     16  C   UNL     1       4.618   4.063  16.642  0.00  0.00    +0.000 A 
ATOM     17  C   UNL     1       5.192   4.241  15.376  0.00  0.00    +0.000 A 
ATOM     18  C   UNL     1       6.528   4.638  15.271  0.00  0.00    +0.000 A 
ATOM     19  C   UNL     1       7.285   4.889  16.419  0.00  0.00    +0.000 A 
ATOM     20  C   UNL     1       6.693   4.729  17.676  0.00  0.00    +0.000 A 
BRANCH  18  21
ATOM     21  N   UNL     1       7.145   4.806  13.946  0.00  0.00    +0.000 N 
ATOM     22  O   UNL     1       6.731   4.088  13.027  0.00  0.00    +0.000 OA
ATOM     23  O   UNL     1       8.044   5.648  13.833  0.00  0.00    +0.000 OA
ENDBRANCH  18  21
ENDBRANCH  13  15
ENDBRANCH   5  13
TORSDOF 6
ENDMDL
MODEL 8
REMARK VINA RESULT:      -7.1      1.407      1.795
REMARK  Name = 
REMARK  7 active torsions:
REMARK  status: ('A' for Active; 'I' for Inactive)
REMARK    1  A    between atoms: C_1  and  O_2
REMARK    2  A    between atoms: O_2  and  C_3
REMARK    3  A    between atoms: C_6  and  C_7
REMARK    4  A    between atoms: C_7  and  O_9
REMARK    5  A    between atoms: C_10  and  N_11
REMARK    6  A    between atoms: N_11  and  C_12
REMARK    7  A    between atoms: C_15  and  N_16
REMARK                            x       y       z     vdW  Elec       q    Type
REMARK                         _______ _______ _______ _____ _____    ______ ____
ROOT
ATOM      1  C   UNL     1       2.815   6.069  19.285  0.00  0.00    +0.000 A 
ATOM      2  C   UNL     1       2.148   5.162  20.103  0.00  0.00    +0.000 A 
ATOM      3  C   UNL     1       2.694   3.901  20.354  0.00  0.00    +0.000 A 
ATOM      4  C   UNL     1       3.917   3.514  19.776  0.00  0.00    +0.000 A 
ATOM      5  C   UNL     1       4.589   4.418  18.928  0.00  0.00    +0.000 A 
ATOM      6  C   UNL     1       4.037   5.701  18.728  0.00  0.00    +0.000 A 
ENDROOT
BRANCH   1   8
ATOM      7  C   UNL     1       2.675   8.101  18.058  0.00  0.00    +0.000 C 
ATOM      8  O   UNL     1       2.197   7.276  19.116  0.00  0.00    +0.000 OA
ENDBRANCH   1   8
BRANCH   4   9
ATOM      9  C   UNL     1       4.401   2.138  20.104  0.00  0.00    +0.000 C 
ATOM     10  O   UNL     1       4.768   1.820  21.223  0.00  0.00    +0.000 OA
BRANCH   9  11
ATOM     11  O   UNL     1       4.405   1.266  19.074  0.00  0.00    +0.000 OA
ATOM     12  H   UNL     1       5.279   0.842  18.933  0.00  0.00    +0.000 HD
ENDBRANCH   9  11
ENDBRANCH   4   9
BRANCH   5  13
ATOM     13  N   UNL     1       5.886   4.124  18.392  0.00  0.00    +0.000 N 
ATOM     14  H   UNL     1       6.574   4.614  18.979  0.00  0.00    +0.000 HD
BRANCH  13  15
ATOM     15  C   UNL     1       6.257   4.297  17.025  0.00  0.00    +0.000 A 
ATOM     16  C   UNL     1       5.473   3.717  16.017  0.00  0.00    +0.000 A 
ATOM     17  C   UNL     1       5.806   3.886  14.666  0.00  0.00    +0.000 A 
ATOM     18  C   UNL     1       6.917   4.660  14.318  0.00  0.00    +0.000 A 
ATOM     19  C   UNL     1       7.677   5.292  15.305  0.00  0.00    +0.000 A 
ATOM     20  C   UNL     1       7.321   5.134  16.648  0.00  0.00    +0.000 A 
BRANCH  18  21
ATOM     21  N   UNL     1       7.286   4.824  12.902  0.00  0.00    +0.000 N 
ATOM     22  O   UNL     1       7.948   5.824  12.596  0.00  0.00    +0.000 OA
ATOM     23  O   UNL     1       6.904   3.959  12.105  0.00  0.00    +0.000 OA
ENDBRANCH  18  21
ENDBRANCH  13  15
ENDBRANCH   5  13
TORSDOF 6
ENDMDL
MODEL 9
REMARK VINA RESULT:      -7.0      2.796      6.652
REMARK  Name = 
REMARK  7 active torsions:
REMARK  status: ('A' for Active; 'I' for Inactive)
REMARK    1  A    between atoms: C_1  and  O_2
REMARK    2  A    between atoms: O_2  and  C_3
REMARK    3  A    between atoms: C_6  and  C_7
REMARK    4  A    between atoms: C_7  and  O_9
REMARK    5  A    between atoms: C_10  and  N_11
REMARK    6  A    between atoms: N_11  and  C_12
REMARK    7  A    between atoms: C_15  and  N_16
REMARK                            x       y       z     vdW  Elec       q    Type
REMARK                         _______ _______ _______ _____ _____    ______ ____
ROOT
ATOM      1  C   UNL     1       6.812   6.826  17.280  0.00  0.00    +0.000 A 
ATOM      2  C   UNL     1       7.361   5.576  17.549  0.00  0.00    +0.000 A 
ATOM      3  C   UNL     1       6.541   4.511  17.932  0.00  0.00    +0.000 A 
ATOM      4  C   UNL     1       5.152   4.681  18.070  0.00  0.00    +0.000 A 
ATOM      5  C   UNL     1       4.589   5.951  17.820  0.00  0.00    +0.000 A 
ATOM      6  C   UNL     1       5.434   6.996  17.391  0.00  0.00    +0.000 A 
ENDROOT
BRANCH   1   8
ATOM      7  C   UNL     1       8.079   8.743  17.895  0.00  0.00    +0.000 C 
ATOM      8  O   UNL     1       7.703   7.792  16.903  0.00  0.00    +0.000 OA
ENDBRANCH   1   8
BRANCH   4   9
ATOM      9  C   UNL     1       4.374   3.478  18.497  0.00  0.00    +0.000 C 
ATOM     10  O   UNL     1       3.272   3.214  18.045  0.00  0.00    +0.000 OA
BRANCH   9  11
ATOM     11  O   UNL     1       4.975   2.699  19.420  0.00  0.00    +0.000 OA
ATOM     12  H   UNL     1       4.544   1.823  19.522  0.00  0.00    +0.000 HD
ENDBRANCH   9  11
ENDBRANCH   4   9
BRANCH   5  13
ATOM     13  N   UNL     1       3.171   6.162  17.842  0.00  0.00    +0.000 N 
ATOM     14  H   UNL     1       2.855   6.188  16.864  0.00  0.00    +0.000 HD
BRANCH  13  15
ATOM     15  C   UNL     1       2.519   7.213  18.553  0.00  0.00    +0.000 A 
ATOM     16  C   UNL     1       2.056   8.338  17.855  0.00  0.00    +0.000 A 
ATOM     17  C   UNL     1       1.398   9.377  18.527  0.00  0.00    +0.000 A 
ATOM     18  C   UNL     1       1.179   9.281  19.904  0.00  0.00    +0.000 A 
ATOM     19  C   UNL     1       1.584   8.144  20.608  0.00  0.00    +0.000 A 
ATOM     20  C   UNL     1       2.220   7.105  19.922  0.00  0.00    +0.000 A 
BRANCH  18  21
ATOM     21  N   UNL     1       0.508  10.377  20.622  0.00  0.00    +0.000 N 
ATOM     22  O   UNL     1       0.761  10.512  21.826  0.00  0.00    +0.000 OA
ATOM     23  O   UNL     1      -0.273  11.090  19.980  0.00  0.00    +0.000 OA
ENDBRANCH  18  21
ENDBRANCH  13  15
ENDBRANCH   5  13
TORSDOF 6
ENDMDL
