MODEL 1
REMARK VINA RESULT:      -8.5      0.000      0.000
REMARK  Name = 
REMARK  6 active torsions:
REMARK  status: ('A' for Active; 'I' for Inactive)
REMARK    1  A    between atoms: C_1  and  C_2
REMARK    2  A    between atoms: C_6  and  C_7
REMARK    3  A    between atoms: C_10  and  O_11
REMARK    4  A    between atoms: O_11  and  S_12
REMARK    5  A    between atoms: S_12  and  N_13
REMARK    6  A    between atoms: C_19  and  C_20
REMARK                            x       y       z     vdW  Elec       q    Type
REMARK                         _______ _______ _______ _____ _____    ______ ____
ROOT
ATOM      1  C   UNL     1       1.668   2.591  18.372  0.00  0.00    +0.000 C 
ATOM      2  C   UNL     1       3.125   2.972  18.314  0.00  0.00    +0.000 C 
ATOM      3  O   UNL     1       4.008   2.128  18.163  0.00  0.00    +0.000 OA
ATOM      4  N   UNL     1       3.376   4.328  18.399  0.00  0.00    +0.000 N 
ATOM      5  N   UNL     1       2.392   5.235  18.694  0.00  0.00    +0.000 NA
ATOM      6  C   UNL     1       2.953   6.406  18.717  0.00  0.00    +0.000 C 
ATOM      7  C   UNL     1       4.447   6.415  18.509  0.00  0.00    +0.000 C 
ATOM      8  C   UNL     1       4.690   4.934  18.229  0.00  0.00    +0.000 C 
ENDROOT
BRANCH   8   9
ATOM      9  C   UNL     1       5.329   4.671  16.870  0.00  0.00    +0.000 A 
ATOM     10  C   UNL     1       4.472   4.601  15.752  0.00  0.00    +0.000 A 
ATOM     11  C   UNL     1       4.972   4.375  14.468  0.00  0.00    +0.000 A 
ATOM     12  C   UNL     1       6.340   4.219  14.279  0.00  0.00    +0.000 A 
ATOM     13 CL   UNL     1       6.962   3.944  12.699  0.00  0.00    +0.000 Cl
ATOM     14  C   UNL     1       7.210   4.284  15.361  0.00  0.00    +0.000 A 
ATOM     15  C   UNL     1       6.712   4.509  16.649  0.00  0.00    +0.000 A 
ATOM     16 CL   UNL     1       7.891   4.561  17.912  0.00  0.00    +0.000 Cl
ENDBRANCH   8   9
BRANCH   6  17
ATOM     17  C   UNL     1       2.180   7.655  18.902  0.00  0.00    +0.000 A 
ATOM     18  C   UNL     1       2.061   8.545  17.829  0.00  0.00    +0.000 A 
ATOM     19  C   UNL     1       1.401   9.764  17.997  0.00  0.00    +0.000 A 
ATOM     20  C   UNL     1       0.845  10.099  19.233  0.00  0.00    +0.000 A 
ATOM     21  C   UNL     1       0.967   9.214  20.305  0.00  0.00    +0.000 A 
ATOM     22  C   UNL     1       1.625   7.991  20.139  0.00  0.00    +0.000 A 
BRANCH  20  23
ATOM     23  O   UNL     1       0.260  11.335  19.312  0.00  0.00    +0.000 OA
BRANCH  23  24
ATOM     24  S   UNL     1      -1.311  11.557  18.947  0.00  0.00    +0.000 S 
ATOM     25  O   UNL     1      -1.870  10.303  18.497  0.00  0.00    +0.000 OA
ATOM     26  O   UNL     1      -1.930  12.364  19.973  0.00  0.00    +0.000 OA
BRANCH  24  27
ATOM     27  N   UNL     1      -1.230  12.542  17.591  0.00  0.00    +0.000 NA
ATOM     28  H   UNL     1      -0.962  12.017  16.762  0.00  0.00    +0.000 HD
ATOM     29  H   UNL     1      -0.683  13.379  17.775  0.00  0.00    +0.000 HD
ENDBRANCH  24  27
ENDBRANCH  23  24
ENDBRANCH  20  23
ENDBRANCH   6  17
TORSDOF 5
ENDMDL
MODEL 2
REMARK VINA RESULT:      -8.2      4.921      8.886
REMARK  Name = 
REMARK  6 active torsions:
REMARK  status: ('A' for Active; 'I' for Inactive)
REMARK    1  A    between atoms: C_1  and  C_2
REMARK    2  A    between atoms: C_6  and  C_7
REMARK    3  A    between atoms: C_10  and  O_11
REMARK    4  A    between atoms: O_11  and  S_12
REMARK    5  A    between atoms: S_12  and  N_13
REMARK    6  A    between atoms: C_19  and  C_20
REMARK                            x       y       z     vdW  Elec       q    Type
REMARK                         _______ _______ _______ _____ _____    ______ ____
ROOT
ATOM      1  C   UNL     1       0.584   9.322  22.772  0.00  0.00    +0.000 C 
ATOM      2  C   UNL     1      -0.014   9.949  21.539  0.00  0.00    +0.000 C 
ATOM      3  O   UNL     1      -0.904  10.796  21.612  0.00  0.00    +0.000 OA
ATOM      4  N   UNL     1       0.544   9.532  20.345  0.00  0.00    +0.000 N 
ATOM      5  N   UNL     1       1.441   8.499  20.281  0.00  0.00    +0.000 NA
ATOM      6  C   UNL     1       1.754   8.347  19.029  0.00  0.00    +0.000 C 
ATOM      7  C   UNL     1       1.017   9.242  18.064  0.00  0.00    +0.000 C 
ATOM      8  C   UNL     1       0.221  10.101  19.043  0.00  0.00    +0.000 C 
ENDROOT
BRANCH   8   9
ATOM      9  C   UNL     1       0.515  11.592  18.921  0.00  0.00    +0.000 A 
ATOM     10  C   UNL     1       1.868  11.989  18.927  0.00  0.00    +0.000 A 
ATOM     11  C   UNL     1       2.230  13.332  18.810  0.00  0.00    +0.000 A 
ATOM     12  C   UNL     1       1.243  14.303  18.678  0.00  0.00    +0.000 A 
ATOM     13 CL   UNL     1       1.683  15.959  18.527  0.00  0.00    +0.000 Cl
ATOM     14  C   UNL     1      -0.098  13.942  18.666  0.00  0.00    +0.000 A 
ATOM     15  C   UNL     1      -0.464  12.596  18.786  0.00  0.00    +0.000 A 
ATOM     16 CL   UNL     1      -2.162  12.276  18.767  0.00  0.00    +0.000 Cl
ENDBRANCH   8   9
BRANCH   6  17
ATOM     17  C   UNL     1       2.784   7.386  18.577  0.00  0.00    +0.000 A 
ATOM     18  C   UNL     1       3.068   6.271  19.373  0.00  0.00    +0.000 A 
ATOM     19  C   UNL     1       4.085   5.387  19.007  0.00  0.00    +0.000 A 
ATOM     20  C   UNL     1       4.819   5.604  17.840  0.00  0.00    +0.000 A 
ATOM     21  C   UNL     1       4.540   6.718  17.047  0.00  0.00    +0.000 A 
ATOM     22  C   UNL     1       3.519   7.603  17.409  0.00  0.00    +0.000 A 
BRANCH  20  23
ATOM     23  O   UNL     1       5.828   4.710  17.591  0.00  0.00    +0.000 OA
BRANCH  23  24
ATOM     24  S   UNL     1       7.370   5.199  17.409  0.00  0.00    +0.000 S 
ATOM     25  O   UNL     1       8.251   4.094  17.708  0.00  0.00    +0.000 OA
ATOM     26  O   UNL     1       7.483   5.982  16.199  0.00  0.00    +0.000 OA
BRANCH  24  27
ATOM     27  N   UNL     1       7.554   6.293  18.668  0.00  0.00    +0.000 NA
ATOM     28  H   UNL     1       7.479   5.837  19.574  0.00  0.00    +0.000 HD
ATOM     29  H   UNL     1       6.960   7.108  18.538  0.00  0.00    +0.000 HD
ENDBRANCH  24  27
ENDBRANCH  23  24
ENDBRANCH  20  23
ENDBRANCH   6  17
TORSDOF 5
ENDMDL
MODEL 3
REMARK VINA RESULT:      -8.2      4.997      8.918
REMARK  Name = 
REMARK  6 active torsions:
REMARK  status: ('A' for Active; 'I' for Inactive)
REMARK    1  A    between atoms: C_1  and  C_2
REMARK    2  A    between atoms: C_6  and  C_7
REMARK    3  A    between atoms: C_10  and  O_11
REMARK    4  A    between atoms: O_11  and  S_12
REMARK    5  A    between atoms: S_12  and  N_13
REMARK    6  A    between atoms: C_19  and  C_20
REMARK                            x       y       z     vdW  Elec       q    Type
REMARK                         _______ _______ _______ _____ _____    ______ ____
ROOT
ATOM      1  C   UNL     1       0.458   9.373  22.877  0.00  0.00    +0.000 C 
ATOM      2  C   UNL     1      -0.153   9.974  21.637  0.00  0.00    +0.000 C 
ATOM      3  O   UNL     1      -1.077  10.785  21.701  0.00  0.00    +0.000 OA
ATOM      4  N   UNL     1       0.432   9.578  20.449  0.00  0.00    +0.000 N 
ATOM      5  N   UNL     1       1.370   8.582  20.395  0.00  0.00    +0.000 NA
ATOM      6  C   UNL     1       1.700   8.441  19.147  0.00  0.00    +0.000 C 
ATOM      7  C   UNL     1       0.937   9.305  18.173  0.00  0.00    +0.000 C 
ATOM      8  C   UNL     1       0.098  10.132  19.143  0.00  0.00    +0.000 C 
ENDROOT
BRANCH   8   9
ATOM      9  C   UNL     1       0.334  11.633  19.022  0.00  0.00    +0.000 A 
ATOM     10  C   UNL     1       1.669  12.085  19.051  0.00  0.00    +0.000 A 
ATOM     11  C   UNL     1       1.978  13.442  18.935  0.00  0.00    +0.000 A 
ATOM     12  C   UNL     1       0.956  14.371  18.782  0.00  0.00    +0.000 A 
ATOM     13 CL   UNL     1       1.330  16.043  18.635  0.00  0.00    +0.000 Cl
ATOM     14  C   UNL     1      -0.370  13.955  18.748  0.00  0.00    +0.000 A 
ATOM     15  C   UNL     1      -0.683  12.597  18.866  0.00  0.00    +0.000 A 
ATOM     16 CL   UNL     1      -2.366  12.207  18.817  0.00  0.00    +0.000 Cl
ENDBRANCH   8   9
BRANCH   6  17
ATOM     17  C   UNL     1       2.772   7.521  18.705  0.00  0.00    +0.000 A 
ATOM     18  C   UNL     1       3.432   7.778  17.498  0.00  0.00    +0.000 A 
ATOM     19  C   UNL     1       4.396   6.887  17.022  0.00  0.00    +0.000 A 
ATOM     20  C   UNL     1       4.716   5.741  17.750  0.00  0.00    +0.000 A 
ATOM     21  C   UNL     1       4.056   5.481  18.952  0.00  0.00    +0.000 A 
ATOM     22  C   UNL     1       3.092   6.373  19.434  0.00  0.00    +0.000 A 
BRANCH  20  23
ATOM     23  O   UNL     1       5.638   4.905  17.178  0.00  0.00    +0.000 OA
BRANCH  23  24
ATOM     24  S   UNL     1       7.182   5.371  16.949  0.00  0.00    +0.000 S 
ATOM     25  O   UNL     1       7.455   5.407  15.531  0.00  0.00    +0.000 OA
ATOM     26  O   UNL     1       7.482   6.476  17.830  0.00  0.00    +0.000 OA
BRANCH  24  27
ATOM     27  N   UNL     1       8.047   4.067  17.556  0.00  0.00    +0.000 NA
ATOM     28  H   UNL     1       8.867   3.866  16.989  0.00  0.00    +0.000 HD
ATOM     29  H   UNL     1       7.437   3.275  17.740  0.00  0.00    +0.000 HD
ENDBRANCH  24  27
ENDBRANCH  23  24
ENDBRANCH  20  23
ENDBRANCH   6  17
TORSDOF 5
ENDMDL
MODEL 4
REMARK VINA RESULT:      -8.1      1.463      1.906
REMARK  Name = 
REMARK  6 active torsions:
REMARK  status: ('A' for Active; 'I' for Inactive)
REMARK    1  A    between atoms: C_1  and  C_2
REMARK    2  A    between atoms: C_6  and  C_7
REMARK    3  A    between atoms: C_10  and  O_11
REMARK    4  A    between atoms: O_11  and  S_12
REMARK    5  A    between atoms: S_12  and  N_13
REMARK    6  A    between atoms: C_19  and  C_20
REMARK                            x       y       z     vdW  Elec       q    Type
REMARK                         _______ _______ _______ _____ _____    ______ ____
ROOT
ATOM      1  C   UNL     1       1.789   2.325  18.981  0.00  0.00    +0.000 C 
ATOM      2  C   UNL     1       3.227   2.768  18.885  0.00  0.00    +0.000 C 
ATOM      3  O   UNL     1       4.138   1.965  18.678  0.00  0.00    +0.000 OA
ATOM      4  N   UNL     1       3.426   4.130  19.003  0.00  0.00    +0.000 N 
ATOM      5  N   UNL     1       2.417   4.986  19.358  0.00  0.00    +0.000 NA
ATOM      6  C   UNL     1       2.931   6.179  19.398  0.00  0.00    +0.000 C 
ATOM      7  C   UNL     1       4.414   6.255  19.139  0.00  0.00    +0.000 C 
ATOM      8  C   UNL     1       4.708   4.794  18.806  0.00  0.00    +0.000 C 
ENDROOT
BRANCH   8   9
ATOM      9  C   UNL     1       5.308   4.597  17.418  0.00  0.00    +0.000 A 
ATOM     10  C   UNL     1       4.413   4.441  16.340  0.00  0.00    +0.000 A 
ATOM     11  C   UNL     1       4.875   4.266  15.034  0.00  0.00    +0.000 A 
ATOM     12  C   UNL     1       6.242   4.252  14.783  0.00  0.00    +0.000 A 
ATOM     13 CL   UNL     1       6.817   4.041  13.175  0.00  0.00    +0.000 Cl
ATOM     14  C   UNL     1       7.148   4.406  15.825  0.00  0.00    +0.000 A 
ATOM     15  C   UNL     1       6.688   4.579  17.135  0.00  0.00    +0.000 A 
ATOM     16 CL   UNL     1       7.912   4.751  18.343  0.00  0.00    +0.000 Cl
ENDBRANCH   8   9
BRANCH   6  17
ATOM     17  C   UNL     1       2.115   7.388  19.648  0.00  0.00    +0.000 A 
ATOM     18  C   UNL     1       1.416   7.497  20.855  0.00  0.00    +0.000 A 
ATOM     19  C   UNL     1       0.581   8.593  21.087  0.00  0.00    +0.000 A 
ATOM     20  C   UNL     1       0.447   9.592  20.121  0.00  0.00    +0.000 A 
ATOM     21  C   UNL     1       1.141   9.482  18.915  0.00  0.00    +0.000 A 
ATOM     22  C   UNL     1       1.980   8.388  18.682  0.00  0.00    +0.000 A 
BRANCH  20  23
ATOM     23  O   UNL     1      -0.431  10.601  20.420  0.00  0.00    +0.000 OA
BRANCH  23  24
ATOM     24  S   UNL     1       0.023  11.885  21.313  0.00  0.00    +0.000 S 
ATOM     25  O   UNL     1       1.465  11.974  21.308  0.00  0.00    +0.000 OA
ATOM     26  O   UNL     1      -0.830  13.008  20.999  0.00  0.00    +0.000 OA
BRANCH  24  27
ATOM     27  N   UNL     1      -0.408  11.415  22.865  0.00  0.00    +0.000 NA
ATOM     28  H   UNL     1       0.378  11.007  23.365  0.00  0.00    +0.000 HD
ATOM     29  H   UNL     1      -1.259  10.858  22.859  0.00  0.00    +0.000 HD
ENDBRANCH  24  27
ENDBRANCH  23  24
ENDBRANCH  20  23
ENDBRANCH   6  17
TORSDOF 5
ENDMDL
MODEL 5
REMARK VINA RESULT:      -8.1      0.693      1.277
REMARK  Name = 
REMARK  6 active torsions:
REMARK  status: ('A' for Active; 'I' for Inactive)
REMARK    1  A    between atoms: C_1  and  C_2
REMARK    2  A    between atoms: C_6  and  C_7
REMARK    3  A    between atoms: C_10  and  O_11
REMARK    4  A    between atoms: O_11  and  S_12
REMARK    5  A    between atoms: S_12  and  N_13
REMARK    6  A    between atoms: C_19  and  C_20
REMARK                            x       y       z     vdW  Elec       q    Type
REMARK                         _______ _______ _______ _____ _____    ______ ____
ROOT
ATOM      1  C   UNL     1       1.549   2.664  18.303  0.00  0.00    +0.000 C 
ATOM      2  C   UNL     1       3.021   2.986  18.267  0.00  0.00    +0.000 C 
ATOM      3  O   UNL     1       3.870   2.111  18.093  0.00  0.00    +0.000 OA
ATOM      4  N   UNL     1       3.328   4.327  18.399  0.00  0.00    +0.000 N 
ATOM      5  N   UNL     1       2.380   5.264  18.718  0.00  0.00    +0.000 NA
ATOM      6  C   UNL     1       2.989   6.409  18.784  0.00  0.00    +0.000 C 
ATOM      7  C   UNL     1       4.483   6.362  18.585  0.00  0.00    +0.000 C 
ATOM      8  C   UNL     1       4.667   4.883  18.257  0.00  0.00    +0.000 C 
ENDROOT
BRANCH   8   9
ATOM      9  C   UNL     1       5.304   4.638  16.893  0.00  0.00    +0.000 A 
ATOM     10  C   UNL     1       4.444   4.562  15.779  0.00  0.00    +0.000 A 
ATOM     11  C   UNL     1       4.942   4.352  14.492  0.00  0.00    +0.000 A 
ATOM     12  C   UNL     1       6.312   4.220  14.296  0.00  0.00    +0.000 A 
ATOM     13 CL   UNL     1       6.932   3.965  12.712  0.00  0.00    +0.000 Cl
ATOM     14  C   UNL     1       7.185   4.293  15.374  0.00  0.00    +0.000 A 
ATOM     15  C   UNL     1       6.688   4.501  16.666  0.00  0.00    +0.000 A 
ATOM     16 CL   UNL     1       7.872   4.564  17.924  0.00  0.00    +0.000 Cl
ENDBRANCH   8   9
BRANCH   6  17
ATOM     17  C   UNL     1       2.267   7.682  19.006  0.00  0.00    +0.000 A 
ATOM     18  C   UNL     1       1.691   7.925  20.258  0.00  0.00    +0.000 A 
ATOM     19  C   UNL     1       0.943   9.084  20.474  0.00  0.00    +0.000 A 
ATOM     20  C   UNL     1       0.773  10.014  19.446  0.00  0.00    +0.000 A 
ATOM     21  C   UNL     1       1.344   9.771  18.196  0.00  0.00    +0.000 A 
ATOM     22  C   UNL     1       2.097   8.612  17.978  0.00  0.00    +0.000 A 
BRANCH  20  23
ATOM     23  O   UNL     1      -0.017  11.094  19.739  0.00  0.00    +0.000 OA
BRANCH  23  24
ATOM     24  S   UNL     1      -1.341  11.442  18.858  0.00  0.00    +0.000 S 
ATOM     25  O   UNL     1      -1.021  12.500  17.927  0.00  0.00    +0.000 OA
ATOM     26  O   UNL     1      -1.980  10.212  18.452  0.00  0.00    +0.000 OA
BRANCH  24  27
ATOM     27  N   UNL     1      -2.366  12.123  19.999  0.00  0.00    +0.000 NA
ATOM     28  H   UNL     1      -2.234  11.705  20.917  0.00  0.00    +0.000 HD
ATOM     29  H   UNL     1      -3.325  12.149  19.664  0.00  0.00    +0.000 HD
ENDBRANCH  24  27
ENDBRANCH  23  24
ENDBRANCH  20  23
ENDBRANCH   6  17
TORSDOF 5
ENDMDL
MODEL 6
REMARK VINA RESULT:      -8.0      5.108      9.123
REMARK  Name = 
REMARK  6 active torsions:
REMARK  status: ('A' for Active; 'I' for Inactive)
REMARK    1  A    between atoms: C_1  and  C_2
REMARK    2  A    between atoms: C_6  and  C_7
REMARK    3  A    between atoms: C_10  and  O_11
REMARK    4  A    between atoms: O_11  and  S_12
REMARK    5  A    between atoms: S_12  and  N_13
REMARK    6  A    between atoms: C_19  and  C_20
REMARK                            x       y       z     vdW  Elec       q    Type
REMARK                         _______ _______ _______ _____ _____    ______ ____
ROOT
ATOM      1  C   UNL     1       0.159   9.512  23.221  0.00  0.00    +0.000 C 
ATOM      2  C   UNL     1      -0.440  10.172  22.006  0.00  0.00    +0.000 C 
ATOM      3  O   UNL     1      -1.335  11.012  22.102  0.00  0.00    +0.000 OA
ATOM      4  N   UNL     1       0.121   9.793  20.801  0.00  0.00    +0.000 N 
ATOM      5  N   UNL     1       1.024   8.767  20.708  0.00  0.00    +0.000 NA
ATOM      6  C   UNL     1       1.339   8.653  19.453  0.00  0.00    +0.000 C 
ATOM      7  C   UNL     1       0.599   9.572  18.513  0.00  0.00    +0.000 C 
ATOM      8  C   UNL     1      -0.203  10.398  19.516  0.00  0.00    +0.000 C 
ENDROOT
BRANCH   8   9
ATOM      9  C   UNL     1       0.084  11.893  19.438  0.00  0.00    +0.000 A 
ATOM     10  C   UNL     1       1.435  12.295  19.429  0.00  0.00    +0.000 A 
ATOM     11  C   UNL     1       1.789  13.643  19.349  0.00  0.00    +0.000 A 
ATOM     12  C   UNL     1       0.797  14.613  19.270  0.00  0.00    +0.000 A 
ATOM     13 CL   UNL     1       1.228  16.275  19.167  0.00  0.00    +0.000 Cl
ATOM     14  C   UNL     1      -0.543  14.248  19.275  0.00  0.00    +0.000 A 
ATOM     15  C   UNL     1      -0.902  12.898  19.357  0.00  0.00    +0.000 A 
ATOM     16 CL   UNL     1      -2.599  12.571  19.362  0.00  0.00    +0.000 Cl
ENDBRANCH   8   9
BRANCH   6  17
ATOM     17  C   UNL     1       2.375   7.711  18.974  0.00  0.00    +0.000 A 
ATOM     18  C   UNL     1       2.690   6.594  19.757  0.00  0.00    +0.000 A 
ATOM     19  C   UNL     1       3.713   5.729  19.366  0.00  0.00    +0.000 A 
ATOM     20  C   UNL     1       4.422   5.965  18.186  0.00  0.00    +0.000 A 
ATOM     21  C   UNL     1       4.112   7.081  17.407  0.00  0.00    +0.000 A 
ATOM     22  C   UNL     1       3.085   7.947  17.795  0.00  0.00    +0.000 A 
BRANCH  20  23
ATOM     23  O   UNL     1       5.439   5.089  17.912  0.00  0.00    +0.000 OA
BRANCH  23  24
ATOM     24  S   UNL     1       6.971   5.395  18.370  0.00  0.00    +0.000 S 
ATOM     25  O   UNL     1       7.460   6.540  17.637  0.00  0.00    +0.000 OA
ATOM     26  O   UNL     1       7.069   5.290  19.808  0.00  0.00    +0.000 OA
BRANCH  24  27
ATOM     27  N   UNL     1       7.802   4.068  17.766  0.00  0.00    +0.000 NA
ATOM     28  H   UNL     1       8.788   4.274  17.630  0.00  0.00    +0.000 HD
ATOM     29  H   UNL     1       7.323   3.669  16.963  0.00  0.00    +0.000 HD
ENDBRANCH  24  27
ENDBRANCH  23  24
ENDBRANCH  20  23
ENDBRANCH   6  17
TORSDOF 5
ENDMDL
MODEL 7
REMARK VINA RESULT:      -8.0      0.670      1.432
REMARK  Name = 
REMARK  6 active torsions:
REMARK  status: ('A' for Active; 'I' for Inactive)
REMARK    1  A    between atoms: C_1  and  C_2
REMARK    2  A    between atoms: C_6  and  C_7
REMARK    3  A    between atoms: C_10  and  O_11
REMARK    4  A    between atoms: O_11  and  S_12
REMARK    5  A    between atoms: S_12  and  N_13
REMARK    6  A    between atoms: C_19  and  C_20
REMARK                            x       y       z     vdW  Elec       q    Type
REMARK                         _______ _______ _______ _____ _____    ______ ____
ROOT
ATOM      1  C   UNL     1       1.711   2.688  18.707  0.00  0.00    +0.000 C 
ATOM      2  C   UNL     1       3.158   3.096  18.602  0.00  0.00    +0.000 C 
ATOM      3  O   UNL     1       4.057   2.264  18.478  0.00  0.00    +0.000 OA
ATOM      4  N   UNL     1       3.380   4.460  18.613  0.00  0.00    +0.000 N 
ATOM      5  N   UNL     1       2.382   5.359  18.879  0.00  0.00    +0.000 NA
ATOM      6  C   UNL     1       2.916   6.542  18.831  0.00  0.00    +0.000 C 
ATOM      7  C   UNL     1       4.405   6.572  18.595  0.00  0.00    +0.000 C 
ATOM      8  C   UNL     1       4.678   5.084  18.386  0.00  0.00    +0.000 C 
ENDROOT
BRANCH   8   9
ATOM      9  C   UNL     1       5.298   4.765  17.031  0.00  0.00    +0.000 A 
ATOM     10  C   UNL     1       4.427   4.661  15.927  0.00  0.00    +0.000 A 
ATOM     11  C   UNL     1       4.910   4.383  14.647  0.00  0.00    +0.000 A 
ATOM     12  C   UNL     1       6.274   4.209  14.447  0.00  0.00    +0.000 A 
ATOM     13 CL   UNL     1       6.875   3.870  12.872  0.00  0.00    +0.000 Cl
ATOM     14  C   UNL     1       7.157   4.307  15.516  0.00  0.00    +0.000 A 
ATOM     15  C   UNL     1       6.676   4.584  16.800  0.00  0.00    +0.000 A 
ATOM     16 CL   UNL     1       7.871   4.673  18.046  0.00  0.00    +0.000 Cl
ENDBRANCH   8   9
BRANCH   6  17
ATOM     17  C   UNL     1       2.119   7.782  18.967  0.00  0.00    +0.000 A 
ATOM     18  C   UNL     1       1.659   8.157  20.234  0.00  0.00    +0.000 A 
ATOM     19  C   UNL     1       0.844   9.281  20.381  0.00  0.00    +0.000 A 
ATOM     20  C   UNL     1       0.491  10.045  19.267  0.00  0.00    +0.000 A 
ATOM     21  C   UNL     1       0.946   9.670  18.002  0.00  0.00    +0.000 A 
ATOM     22  C   UNL     1       1.766   8.546  17.852  0.00  0.00    +0.000 A 
BRANCH  20  23
ATOM     23  O   UNL     1      -0.350  11.100  19.505  0.00  0.00    +0.000 OA
BRANCH  23  24
ATOM     24  S   UNL     1       0.011  12.606  19.001  0.00  0.00    +0.000 S 
ATOM     25  O   UNL     1      -0.542  13.559  19.936  0.00  0.00    +0.000 OA
ATOM     26  O   UNL     1       1.389  12.646  18.568  0.00  0.00    +0.000 OA
BRANCH  24  27
ATOM     27  N   UNL     1      -0.903  12.747  17.600  0.00  0.00    +0.000 NA
ATOM     28  H   UNL     1      -0.314  12.866  16.780  0.00  0.00    +0.000 HD
ATOM     29  H   UNL     1      -1.643  13.435  17.711  0.00  0.00    +0.000 HD
ENDBRANCH  24  27
ENDBRANCH  23  24
ENDBRANCH  20  23
ENDBRANCH   6  17
TORSDOF 5
ENDMDL
MODEL 8
REMARK VINA RESULT:      -7.9      1.338      1.579
REMARK  Name = 
REMARK  6 active torsions:
REMARK  status: ('A' for Active; 'I' for Inactive)
REMARK    1  A    between atoms: C_1  and  C_2
REMARK    2  A    between atoms: C_6  and  C_7
REMARK    3  A    between atoms: C_10  and  O_11
REMARK    4  A    between atoms: O_11  and  S_12
REMARK    5  A    between atoms: S_12  and  N_13
REMARK    6  A    between atoms: C_19  and  C_20
REMARK                            x       y       z     vdW  Elec       q    Type
REMARK                         _______ _______ _______ _____ _____    ______ ____
ROOT
ATOM      1  C   UNL     1       1.733   2.370  18.868  0.00  0.00    +0.000 C 
ATOM      2  C   UNL     1       3.172   2.815  18.808  0.00  0.00    +0.000 C 
ATOM      3  O   UNL     1       4.088   2.015  18.617  0.00  0.00    +0.000 OA
ATOM      4  N   UNL     1       3.367   4.177  18.940  0.00  0.00    +0.000 N 
ATOM      5  N   UNL     1       2.349   5.029  19.278  0.00  0.00    +0.000 NA
ATOM      6  C   UNL     1       2.860   6.222  19.338  0.00  0.00    +0.000 C 
ATOM      7  C   UNL     1       4.349   6.302  19.114  0.00  0.00    +0.000 C 
ATOM      8  C   UNL     1       4.652   4.844  18.777  0.00  0.00    +0.000 C 
ENDROOT
BRANCH   8   9
ATOM      9  C   UNL     1       5.284   4.657  17.403  0.00  0.00    +0.000 A 
ATOM     10  C   UNL     1       4.415   4.464  16.310  0.00  0.00    +0.000 A 
ATOM     11  C   UNL     1       4.907   4.295  15.014  0.00  0.00    +0.000 A 
ATOM     12  C   UNL     1       6.278   4.324  14.788  0.00  0.00    +0.000 A 
ATOM     13 CL   UNL     1       6.889   4.121  13.193  0.00  0.00    +0.000 Cl
ATOM     14  C   UNL     1       7.159   4.515  15.845  0.00  0.00    +0.000 A 
ATOM     15  C   UNL     1       6.670   4.681  17.145  0.00  0.00    +0.000 A 
ATOM     16 CL   UNL     1       7.864   4.902  18.374  0.00  0.00    +0.000 Cl
ENDBRANCH   8   9
BRANCH   6  17
ATOM     17  C   UNL     1       2.038   7.429  19.578  0.00  0.00    +0.000 A 
ATOM     18  C   UNL     1       1.897   8.369  18.550  0.00  0.00    +0.000 A 
ATOM     19  C   UNL     1       1.188   9.551  18.773  0.00  0.00    +0.000 A 
ATOM     20  C   UNL     1       0.606   9.799  20.017  0.00  0.00    +0.000 A 
ATOM     21  C   UNL     1       0.749   8.865  21.043  0.00  0.00    +0.000 A 
ATOM     22  C   UNL     1       1.455   7.678  20.823  0.00  0.00    +0.000 A 
BRANCH  20  23
ATOM     23  O   UNL     1      -0.027  11.007  20.152  0.00  0.00    +0.000 OA
BRANCH  23  24
ATOM     24  S   UNL     1       0.373  12.047  21.339  0.00  0.00    +0.000 S 
ATOM     25  O   UNL     1      -0.167  11.563  22.589  0.00  0.00    +0.000 OA
ATOM     26  O   UNL     1       1.755  12.438  21.185  0.00  0.00    +0.000 OA
BRANCH  24  27
ATOM     27  N   UNL     1      -0.524  13.409  20.944  0.00  0.00    +0.000 NA
ATOM     28  H   UNL     1      -0.698  13.992  21.759  0.00  0.00    +0.000 HD
ATOM     29  H   UNL     1      -1.346  13.163  20.398  0.00  0.00    +0.000 HD
ENDBRANCH  24  27
ENDBRANCH  23  24
ENDBRANCH  20  23
ENDBRANCH   6  17
TORSDOF 5
ENDMDL
MODEL 9
REMARK VINA RESULT:      -7.8      1.123      1.413
REMARK  Name = 
REMARK  6 active torsions:
REMARK  status: ('A' for Active; 'I' for Inactive)
REMARK    1  A    between atoms: C_1  and  C_2
REMARK    2  A    between atoms: C_6  and  C_7
REMARK    3  A    between atoms: C_10  and  O_11
REMARK    4  A    between atoms: O_11  and  S_12
REMARK    5  A    between atoms: S_12  and  N_13
REMARK    6  A    between atoms: C_19  and  C_20
REMARK                            x       y       z     vdW  Elec       q    Type
REMARK                         _______ _______ _______ _____ _____    ______ ____
ROOT
ATOM      1  C   UNL     1       1.631   2.535  18.240  0.00  0.00    +0.000 C 
ATOM      2  C   UNL     1       3.090   2.913  18.223  0.00  0.00    +0.000 C 
ATOM      3  O   UNL     1       3.973   2.071  18.058  0.00  0.00    +0.000 OA
ATOM      4  N   UNL     1       3.343   4.264  18.361  0.00  0.00    +0.000 N 
ATOM      5  N   UNL     1       2.357   5.163  18.669  0.00  0.00    +0.000 NA
ATOM      6  C   UNL     1       2.921   6.331  18.745  0.00  0.00    +0.000 C 
ATOM      7  C   UNL     1       4.418   6.341  18.565  0.00  0.00    +0.000 C 
ATOM      8  C   UNL     1       4.663   4.870  18.236  0.00  0.00    +0.000 C 
ENDROOT
BRANCH   8   9
ATOM      9  C   UNL     1       5.326   4.653  16.881  0.00  0.00    +0.000 A 
ATOM     10  C   UNL     1       4.487   4.596  15.750  0.00  0.00    +0.000 A 
ATOM     11  C   UNL     1       5.010   4.411  14.468  0.00  0.00    +0.000 A 
ATOM     12  C   UNL     1       6.383   4.286  14.295  0.00  0.00    +0.000 A 
ATOM     13 CL   UNL     1       7.033   4.063  12.719  0.00  0.00    +0.000 Cl
ATOM     14  C   UNL     1       7.235   4.341  15.391  0.00  0.00    +0.000 A 
ATOM     15  C   UNL     1       6.714   4.524  16.677  0.00  0.00    +0.000 A 
ATOM     16 CL   UNL     1       7.874   4.566  17.958  0.00  0.00    +0.000 Cl
ENDBRANCH   8   9
BRANCH   6  17
ATOM     17  C   UNL     1       2.149   7.575  18.960  0.00  0.00    +0.000 A 
ATOM     18  C   UNL     1       1.919   8.428  17.875  0.00  0.00    +0.000 A 
ATOM     19  C   UNL     1       1.258   9.643  18.064  0.00  0.00    +0.000 A 
ATOM     20  C   UNL     1       0.811  10.011  19.334  0.00  0.00    +0.000 A 
ATOM     21  C   UNL     1       1.043   9.163  20.418  0.00  0.00    +0.000 A 
ATOM     22  C   UNL     1       1.702   7.944  20.232  0.00  0.00    +0.000 A 
BRANCH  20  23
ATOM     23  O   UNL     1       0.216  11.242  19.428  0.00  0.00    +0.000 OA
BRANCH  23  24
ATOM     24  S   UNL     1       1.049  12.552  19.920  0.00  0.00    +0.000 S 
ATOM     25  O   UNL     1       0.244  13.730  19.695  0.00  0.00    +0.000 OA
ATOM     26  O   UNL     1       1.679  12.267  21.189  0.00  0.00    +0.000 OA
BRANCH  24  27
ATOM     27  N   UNL     1       2.300  12.625  18.805  0.00  0.00    +0.000 NA
ATOM     28  H   UNL     1       1.985  12.994  17.912  0.00  0.00    +0.000 HD
ATOM     29  H   UNL     1       2.806  11.744  18.760  0.00  0.00    +0.000 HD
ENDBRANCH  24  27
ENDBRANCH  23  24
ENDBRANCH  20  23
ENDBRANCH   6  17
TORSDOF 5
ENDMDL
