MODEL 1
REMARK VINA RESULT:      -7.1      0.000      0.000
REMARK  Name = 
REMARK  10 active torsions:
REMARK  status: ('A' for Active; 'I' for Inactive)
REMARK    1  A    between atoms: C_2  and  C_11
REMARK    2  A    between atoms: N_3  and  C_4
REMARK    3  A    between atoms: C_4  and  C_5
REMARK    4  A    between atoms: C_5  and  C_6
REMARK    5  A    between atoms: C_6  and  C_7
REMARK    6  A    between atoms: C_7  and  C_8
REMARK    7  A    between atoms: C_8  and  C_9
REMARK    8  A    between atoms: C_9  and  S_10
REMARK    9  A    between atoms: C_13  and  C_14
REMARK   10  A    between atoms: C_17  and  C_18
REMARK                            x       y       z     vdW  Elec       q    Type
REMARK                         _______ _______ _______ _____ _____    ______ ____
ROOT
ATOM      1  C   UNL     1       2.754   6.920  19.014  0.00  0.00    +0.000 A 
ATOM      2  C   UNL     1       2.140   7.438  20.135  0.00  0.00    +0.000 A 
ATOM      3  C   UNL     1       1.463   8.613  19.715  0.00  0.00    +0.000 A 
ATOM      4  N   UNL     1       1.620   8.790  18.394  0.00  0.00    +0.000 NA
ATOM      5  N   UNL     1       2.404   7.771  18.004  0.00  0.00    +0.000 N 
ATOM      6  H   UNL     1       2.676   7.705  17.029  0.00  0.00    +0.000 HD
ENDROOT
BRANCH   3   7
ATOM      7  C   UNL     1       0.713   9.554  20.550  0.00  0.00    +0.000 A 
ATOM      8  C   UNL     1       0.442  10.854  20.107  0.00  0.00    +0.000 A 
ATOM      9  C   UNL     1      -0.303  11.740  20.893  0.00  0.00    +0.000 A 
ATOM     10  C   UNL     1      -0.821  11.358  22.142  0.00  0.00    +0.000 A 
ATOM     11  C   UNL     1      -0.535  10.053  22.578  0.00  0.00    +0.000 A 
ATOM     12  C   UNL     1       0.226   9.170  21.802  0.00  0.00    +0.000 A 
BRANCH  10  13
ATOM     13  C   UNL     1      -1.627  12.294  22.957  0.00  0.00    +0.000 A 
ATOM     14  C   UNL     1      -2.912  11.951  23.420  0.00  0.00    +0.000 A 
ATOM     15  C   UNL     1      -3.690  12.849  24.155  0.00  0.00    +0.000 A 
ATOM     16  C   UNL     1      -3.192  14.106  24.469  0.00  0.00    +0.000 A 
ATOM     17  C   UNL     1      -1.915  14.468  24.044  0.00  0.00    +0.000 A 
ATOM     18  C   UNL     1      -1.148  13.575  23.292  0.00  0.00    +0.000 A 
ENDBRANCH  10  13
ENDBRANCH   3   7
BRANCH   1  20
ATOM     19  O   UNL     1       4.378   5.375  19.678  0.00  0.00    +0.000 OA
ATOM     20  C   UNL     1       3.606   5.778  18.811  0.00  0.00    +0.000 C 
ATOM     21  N   UNL     1       3.484   5.189  17.575  0.00  0.00    +0.000 N 
ATOM     22  H   UNL     1       2.876   5.606  16.888  0.00  0.00    +0.000 HD
BRANCH  21  23
ATOM     23  C   UNL     1       4.273   4.047  17.176  0.00  0.00    +0.000 C 
BRANCH  23  24
ATOM     24  C   UNL     1       3.750   2.746  17.784  0.00  0.00    +0.000 C 
BRANCH  24  25
ATOM     25  C   UNL     1       2.234   2.642  17.605  0.00  0.00    +0.000 C 
BRANCH  25  26
ATOM     26  C   UNL     1       1.529   2.277  18.913  0.00  0.00    +0.000 C 
BRANCH  26  27
ATOM     27  C   UNL     1       0.792   3.484  19.502  0.00  0.00    +0.000 C 
BRANCH  27  28
ATOM     28  C   UNL     1       1.236   3.747  20.939  0.00  0.00    +0.000 C 
BRANCH  28  29
ATOM     29  S   UNL     1       2.602   2.643  21.404  0.00  0.00    +0.000 S 
ATOM     30  H   UNL     1       3.598   3.463  21.038  0.00  0.00    +0.000 HD
ENDBRANCH  28  29
ENDBRANCH  27  28
ENDBRANCH  26  27
ENDBRANCH  25  26
ENDBRANCH  24  25
ENDBRANCH  23  24
ENDBRANCH  21  23
ENDBRANCH   1  20
TORSDOF 10
ENDMDL
MODEL 2
REMARK VINA RESULT:      -6.9      0.728      1.291
REMARK  Name = 
REMARK  10 active torsions:
REMARK  status: ('A' for Active; 'I' for Inactive)
REMARK    1  A    between atoms: C_2  and  C_11
REMARK    2  A    between atoms: N_3  and  C_4
REMARK    3  A    between atoms: C_4  and  C_5
REMARK    4  A    between atoms: C_5  and  C_6
REMARK    5  A    between atoms: C_6  and  C_7
REMARK    6  A    between atoms: C_7  and  C_8
REMARK    7  A    between atoms: C_8  and  C_9
REMARK    8  A    between atoms: C_9  and  S_10
REMARK    9  A    between atoms: C_13  and  C_14
REMARK   10  A    between atoms: C_17  and  C_18
REMARK                            x       y       z     vdW  Elec       q    Type
REMARK                         _______ _______ _______ _____ _____    ______ ____
ROOT
ATOM      1  C   UNL     1       2.516   7.351  19.142  0.00  0.00    +0.000 A 
ATOM      2  C   UNL     1       1.840   7.811  20.252  0.00  0.00    +0.000 A 
ATOM      3  C   UNL     1       1.147   8.980  19.844  0.00  0.00    +0.000 A 
ATOM      4  N   UNL     1       1.353   9.208  18.538  0.00  0.00    +0.000 NA
ATOM      5  N   UNL     1       2.183   8.227  18.147  0.00  0.00    +0.000 N 
ATOM      6  H   UNL     1       2.497   8.202  17.183  0.00  0.00    +0.000 HD
ENDROOT
BRANCH   3   7
ATOM      7  C   UNL     1       0.335   9.870  20.678  0.00  0.00    +0.000 A 
ATOM      8  C   UNL     1       0.146   9.609  22.041  0.00  0.00    +0.000 A 
ATOM      9  C   UNL     1      -0.602  10.479  22.841  0.00  0.00    +0.000 A 
ATOM     10  C   UNL     1      -1.175  11.650  22.318  0.00  0.00    +0.000 A 
ATOM     11  C   UNL     1      -0.984  11.896  20.948  0.00  0.00    +0.000 A 
ATOM     12  C   UNL     1      -0.250  11.018  20.139  0.00  0.00    +0.000 A 
BRANCH  10  13
ATOM     13  C   UNL     1      -1.947  12.577  23.177  0.00  0.00    +0.000 A 
ATOM     14  C   UNL     1      -3.243  12.260  23.626  0.00  0.00    +0.000 A 
ATOM     15  C   UNL     1      -3.988  13.151  24.402  0.00  0.00    +0.000 A 
ATOM     16  C   UNL     1      -3.444  14.373  24.773  0.00  0.00    +0.000 A 
ATOM     17  C   UNL     1      -2.155  14.708  24.363  0.00  0.00    +0.000 A 
ATOM     18  C   UNL     1      -1.421  13.823  23.569  0.00  0.00    +0.000 A 
ENDBRANCH  10  13
ENDBRANCH   3   7
BRANCH   1  20
ATOM     19  O   UNL     1       3.726   5.479  19.847  0.00  0.00    +0.000 OA
ATOM     20  C   UNL     1       3.410   6.242  18.936  0.00  0.00    +0.000 C 
ATOM     21  N   UNL     1       3.877   6.117  17.650  0.00  0.00    +0.000 N 
ATOM     22  H   UNL     1       3.626   6.812  16.965  0.00  0.00    +0.000 HD
BRANCH  21  23
ATOM     23  C   UNL     1       4.801   5.080  17.254  0.00  0.00    +0.000 C 
BRANCH  23  24
ATOM     24  C   UNL     1       4.087   3.869  16.657  0.00  0.00    +0.000 C 
BRANCH  24  25
ATOM     25  C   UNL     1       3.905   2.778  17.714  0.00  0.00    +0.000 C 
BRANCH  25  26
ATOM     26  C   UNL     1       2.478   2.229  17.728  0.00  0.00    +0.000 C 
BRANCH  26  27
ATOM     27  C   UNL     1       1.487   3.266  18.267  0.00  0.00    +0.000 C 
BRANCH  27  28
ATOM     28  C   UNL     1       0.649   2.682  19.402  0.00  0.00    +0.000 C 
BRANCH  28  29
ATOM     29  S   UNL     1       1.461   2.944  21.005  0.00  0.00    +0.000 S 
ATOM     30  H   UNL     1       0.464   2.470  21.766  0.00  0.00    +0.000 HD
ENDBRANCH  28  29
ENDBRANCH  27  28
ENDBRANCH  26  27
ENDBRANCH  25  26
ENDBRANCH  24  25
ENDBRANCH  23  24
ENDBRANCH  21  23
ENDBRANCH   1  20
TORSDOF 10
ENDMDL
MODEL 3
REMARK VINA RESULT:      -6.8      2.765      3.832
REMARK  Name = 
REMARK  10 active torsions:
REMARK  status: ('A' for Active; 'I' for Inactive)
REMARK    1  A    between atoms: C_2  and  C_11
REMARK    2  A    between atoms: N_3  and  C_4
REMARK    3  A    between atoms: C_4  and  C_5
REMARK    4  A    between atoms: C_5  and  C_6
REMARK    5  A    between atoms: C_6  and  C_7
REMARK    6  A    between atoms: C_7  and  C_8
REMARK    7  A    between atoms: C_8  and  C_9
REMARK    8  A    between atoms: C_9  and  S_10
REMARK    9  A    between atoms: C_13  and  C_14
REMARK   10  A    between atoms: C_17  and  C_18
REMARK                            x       y       z     vdW  Elec       q    Type
REMARK                         _______ _______ _______ _____ _____    ______ ____
ROOT
ATOM      1  C   UNL     1       2.485   6.773  19.730  0.00  0.00    +0.000 A 
ATOM      2  C   UNL     1       1.705   7.297  20.739  0.00  0.00    +0.000 A 
ATOM      3  C   UNL     1       1.229   8.549  20.270  0.00  0.00    +0.000 A 
ATOM      4  N   UNL     1       1.662   8.769  19.019  0.00  0.00    +0.000 NA
ATOM      5  N   UNL     1       2.417   7.698  18.726  0.00  0.00    +0.000 N 
ATOM      6  H   UNL     1       2.872   7.649  17.821  0.00  0.00    +0.000 HD
ENDROOT
BRANCH   3   7
ATOM      7  C   UNL     1       0.411   9.521  21.000  0.00  0.00    +0.000 A 
ATOM      8  C   UNL     1      -0.007   9.271  22.313  0.00  0.00    +0.000 A 
ATOM      9  C   UNL     1      -0.760  10.215  23.019  0.00  0.00    +0.000 A 
ATOM     10  C   UNL     1      -1.110  11.451  22.450  0.00  0.00    +0.000 A 
ATOM     11  C   UNL     1      -0.690  11.686  21.129  0.00  0.00    +0.000 A 
ATOM     12  C   UNL     1       0.049  10.736  20.413  0.00  0.00    +0.000 A 
BRANCH  10  13
ATOM     13  C   UNL     1      -1.888  12.454  23.211  0.00  0.00    +0.000 A 
ATOM     14  C   UNL     1      -3.179  12.172  23.697  0.00  0.00    +0.000 A 
ATOM     15  C   UNL     1      -3.930  13.132  24.380  0.00  0.00    +0.000 A 
ATOM     16  C   UNL     1      -3.398  14.391  24.620  0.00  0.00    +0.000 A 
ATOM     17  C   UNL     1      -2.114  14.694  24.172  0.00  0.00    +0.000 A 
ATOM     18  C   UNL     1      -1.374  13.738  23.471  0.00  0.00    +0.000 A 
ENDBRANCH  10  13
ENDBRANCH   3   7
BRANCH   1  20
ATOM     19  O   UNL     1       2.785   4.460  19.880  0.00  0.00    +0.000 OA
ATOM     20  C   UNL     1       3.259   5.565  19.625  0.00  0.00    +0.000 C 
ATOM     21  N   UNL     1       4.560   5.754  19.224  0.00  0.00    +0.000 N 
ATOM     22  H   UNL     1       4.902   6.692  19.088  0.00  0.00    +0.000 HD
BRANCH  21  23
ATOM     23  C   UNL     1       5.498   4.665  19.083  0.00  0.00    +0.000 C 
BRANCH  23  24
ATOM     24  C   UNL     1       6.019   4.535  17.653  0.00  0.00    +0.000 C 
BRANCH  24  25
ATOM     25  C   UNL     1       7.350   5.274  17.497  0.00  0.00    +0.000 C 
BRANCH  25  26
ATOM     26  C   UNL     1       7.150   6.783  17.344  0.00  0.00    +0.000 C 
BRANCH  26  27
ATOM     27  C   UNL     1       8.104   7.565  18.252  0.00  0.00    +0.000 C 
BRANCH  27  28
ATOM     28  C   UNL     1       8.176   9.032  17.835  0.00  0.00    +0.000 C 
BRANCH  28  29
ATOM     29  S   UNL     1       9.076  10.012  19.073  0.00  0.00    +0.000 S 
ATOM     30  H   UNL     1       9.790   8.999  19.586  0.00  0.00    +0.000 HD
ENDBRANCH  28  29
ENDBRANCH  27  28
ENDBRANCH  26  27
ENDBRANCH  25  26
ENDBRANCH  24  25
ENDBRANCH  23  24
ENDBRANCH  21  23
ENDBRANCH   1  20
TORSDOF 10
ENDMDL
MODEL 4
REMARK VINA RESULT:      -6.7      1.434      1.810
REMARK  Name = 
REMARK  10 active torsions:
REMARK  status: ('A' for Active; 'I' for Inactive)
REMARK    1  A    between atoms: C_2  and  C_11
REMARK    2  A    between atoms: N_3  and  C_4
REMARK    3  A    between atoms: C_4  and  C_5
REMARK    4  A    between atoms: C_5  and  C_6
REMARK    5  A    between atoms: C_6  and  C_7
REMARK    6  A    between atoms: C_7  and  C_8
REMARK    7  A    between atoms: C_8  and  C_9
REMARK    8  A    between atoms: C_9  and  S_10
REMARK    9  A    between atoms: C_13  and  C_14
REMARK   10  A    between atoms: C_17  and  C_18
REMARK                            x       y       z     vdW  Elec       q    Type
REMARK                         _______ _______ _______ _____ _____    ______ ____
ROOT
ATOM      1  C   UNL     1       2.166   7.715  19.349  0.00  0.00    +0.000 A 
ATOM      2  C   UNL     1       1.445   8.889  19.415  0.00  0.00    +0.000 A 
ATOM      3  C   UNL     1       0.894   8.949  20.722  0.00  0.00    +0.000 A 
ATOM      4  N   UNL     1       1.287   7.884  21.439  0.00  0.00    +0.000 NA
ATOM      5  N   UNL     1       2.036   7.160  20.591  0.00  0.00    +0.000 N 
ATOM      6  H   UNL     1       2.435   6.285  20.912  0.00  0.00    +0.000 HD
ENDROOT
BRANCH   3   7
ATOM      7  C   UNL     1      -0.003   9.973  21.264  0.00  0.00    +0.000 A 
ATOM      8  C   UNL     1      -0.560  10.955  20.436  0.00  0.00    +0.000 A 
ATOM      9  C   UNL     1      -1.442  11.912  20.951  0.00  0.00    +0.000 A 
ATOM     10  C   UNL     1      -1.815  11.914  22.305  0.00  0.00    +0.000 A 
ATOM     11  C   UNL     1      -1.243  10.928  23.126  0.00  0.00    +0.000 A 
ATOM     12  C   UNL     1      -0.346   9.980  22.618  0.00  0.00    +0.000 A 
BRANCH  10  13
ATOM     13  C   UNL     1      -2.767  12.916  22.837  0.00  0.00    +0.000 A 
ATOM     14  C   UNL     1      -2.374  13.871  23.794  0.00  0.00    +0.000 A 
ATOM     15  C   UNL     1      -3.281  14.790  24.327  0.00  0.00    +0.000 A 
ATOM     16  C   UNL     1      -4.600  14.796  23.895  0.00  0.00    +0.000 A 
ATOM     17  C   UNL     1      -5.015  13.878  22.932  0.00  0.00    +0.000 A 
ATOM     18  C   UNL     1      -4.110  12.947  22.417  0.00  0.00    +0.000 A 
ENDBRANCH  10  13
ENDBRANCH   3   7
BRANCH   1  20
ATOM     19  O   UNL     1       3.427   7.734  17.381  0.00  0.00    +0.000 OA
ATOM     20  C   UNL     1       2.909   7.087  18.289  0.00  0.00    +0.000 C 
ATOM     21  N   UNL     1       2.984   5.718  18.379  0.00  0.00    +0.000 N 
ATOM     22  H   UNL     1       2.486   5.244  19.116  0.00  0.00    +0.000 HD
BRANCH  21  23
ATOM     23  C   UNL     1       3.667   4.909  17.396  0.00  0.00    +0.000 C 
BRANCH  23  24
ATOM     24  C   UNL     1       2.961   3.576  17.157  0.00  0.00    +0.000 C 
BRANCH  24  25
ATOM     25  C   UNL     1       3.475   2.515  18.132  0.00  0.00    +0.000 C 
BRANCH  25  26
ATOM     26  C   UNL     1       2.341   1.891  18.948  0.00  0.00    +0.000 C 
BRANCH  26  27
ATOM     27  C   UNL     1       1.066   2.737  18.865  0.00  0.00    +0.000 C 
BRANCH  27  28
ATOM     28  C   UNL     1       0.848   3.525  20.155  0.00  0.00    +0.000 C 
BRANCH  28  29
ATOM     29  S   UNL     1       1.742   2.757  21.538  0.00  0.00    +0.000 S 
ATOM     30  H   UNL     1       0.730   1.992  21.973  0.00  0.00    +0.000 HD
ENDBRANCH  28  29
ENDBRANCH  27  28
ENDBRANCH  26  27
ENDBRANCH  25  26
ENDBRANCH  24  25
ENDBRANCH  23  24
ENDBRANCH  21  23
ENDBRANCH   1  20
TORSDOF 10
ENDMDL
MODEL 5
REMARK VINA RESULT:      -6.7      3.335      4.519
REMARK  Name = 
REMARK  10 active torsions:
REMARK  status: ('A' for Active; 'I' for Inactive)
REMARK    1  A    between atoms: C_2  and  C_11
REMARK    2  A    between atoms: N_3  and  C_4
REMARK    3  A    between atoms: C_4  and  C_5
REMARK    4  A    between atoms: C_5  and  C_6
REMARK    5  A    between atoms: C_6  and  C_7
REMARK    6  A    between atoms: C_7  and  C_8
REMARK    7  A    between atoms: C_8  and  C_9
REMARK    8  A    between atoms: C_9  and  S_10
REMARK    9  A    between atoms: C_13  and  C_14
REMARK   10  A    between atoms: C_17  and  C_18
REMARK                            x       y       z     vdW  Elec       q    Type
REMARK                         _______ _______ _______ _____ _____    ______ ____
ROOT
ATOM      1  C   UNL     1       2.774   7.173  18.612  0.00  0.00    +0.000 A 
ATOM      2  C   UNL     1       2.040   7.591  19.701  0.00  0.00    +0.000 A 
ATOM      3  C   UNL     1       1.496   8.856  19.358  0.00  0.00    +0.000 A 
ATOM      4  N   UNL     1       1.844   9.184  18.104  0.00  0.00    +0.000 NA
ATOM      5  N   UNL     1       2.615   8.166  17.687  0.00  0.00    +0.000 N 
ATOM      6  H   UNL     1       3.016   8.202  16.756  0.00  0.00    +0.000 HD
ENDROOT
BRANCH   3   7
ATOM      7  C   UNL     1       0.692   9.739  20.206  0.00  0.00    +0.000 A 
ATOM      8  C   UNL     1       0.331   9.360  21.505  0.00  0.00    +0.000 A 
ATOM      9  C   UNL     1      -0.409  10.220  22.324  0.00  0.00    +0.000 A 
ATOM     10  C   UNL     1      -0.801  11.496  21.887  0.00  0.00    +0.000 A 
ATOM     11  C   UNL     1      -0.438  11.861  20.579  0.00  0.00    +0.000 A 
ATOM     12  C   UNL     1       0.287  10.995  19.750  0.00  0.00    +0.000 A 
BRANCH  10  13
ATOM     13  C   UNL     1      -1.564  12.409  22.768  0.00  0.00    +0.000 A 
ATOM     14  C   UNL     1      -1.032  13.641  23.191  0.00  0.00    +0.000 A 
ATOM     15  C   UNL     1      -1.735  14.484  24.056  0.00  0.00    +0.000 A 
ATOM     16  C   UNL     1      -3.001  14.128  24.498  0.00  0.00    +0.000 A 
ATOM     17  C   UNL     1      -3.565  12.924  24.079  0.00  0.00    +0.000 A 
ATOM     18  C   UNL     1      -2.851  12.075  23.231  0.00  0.00    +0.000 A 
ENDBRANCH  10  13
ENDBRANCH   3   7
BRANCH   1  20
ATOM     19  O   UNL     1       3.179   4.870  18.620  0.00  0.00    +0.000 OA
ATOM     20  C   UNL     1       3.580   6.005  18.370  0.00  0.00    +0.000 C 
ATOM     21  N   UNL     1       4.823   6.269  17.847  0.00  0.00    +0.000 N 
ATOM     22  H   UNL     1       5.112   7.226  17.722  0.00  0.00    +0.000 HD
BRANCH  21  23
ATOM     23  C   UNL     1       5.784   5.230  17.559  0.00  0.00    +0.000 C 
BRANCH  23  24
ATOM     24  C   UNL     1       7.222   5.744  17.612  0.00  0.00    +0.000 C 
BRANCH  24  25
ATOM     25  C   UNL     1       7.258   7.258  17.396  0.00  0.00    +0.000 C 
BRANCH  25  26
ATOM     26  C   UNL     1       8.229   7.949  18.354  0.00  0.00    +0.000 C 
BRANCH  26  27
ATOM     27  C   UNL     1       8.345   9.445  18.047  0.00  0.00    +0.000 C 
BRANCH  27  28
ATOM     28  C   UNL     1       9.228  10.148  19.075  0.00  0.00    +0.000 C 
BRANCH  28  29
ATOM     29  S   UNL     1      10.144  11.518  18.310  0.00  0.00    +0.000 S 
ATOM     30  H   UNL     1      10.720  10.797  17.336  0.00  0.00    +0.000 HD
ENDBRANCH  28  29
ENDBRANCH  27  28
ENDBRANCH  26  27
ENDBRANCH  25  26
ENDBRANCH  24  25
ENDBRANCH  23  24
ENDBRANCH  21  23
ENDBRANCH   1  20
TORSDOF 10
ENDMDL
MODEL 6
REMARK VINA RESULT:      -6.6      3.723     10.440
REMARK  Name = 
REMARK  10 active torsions:
REMARK  status: ('A' for Active; 'I' for Inactive)
REMARK    1  A    between atoms: C_2  and  C_11
REMARK    2  A    between atoms: N_3  and  C_4
REMARK    3  A    between atoms: C_4  and  C_5
REMARK    4  A    between atoms: C_5  and  C_6
REMARK    5  A    between atoms: C_6  and  C_7
REMARK    6  A    between atoms: C_7  and  C_8
REMARK    7  A    between atoms: C_8  and  C_9
REMARK    8  A    between atoms: C_9  and  S_10
REMARK    9  A    between atoms: C_13  and  C_14
REMARK   10  A    between atoms: C_17  and  C_18
REMARK                            x       y       z     vdW  Elec       q    Type
REMARK                         _______ _______ _______ _____ _____    ______ ____
ROOT
ATOM      1  C   UNL     1       1.835   7.632  20.482  0.00  0.00    +0.000 A 
ATOM      2  C   UNL     1       2.391   7.666  19.221  0.00  0.00    +0.000 A 
ATOM      3  C   UNL     1       2.966   6.387  19.001  0.00  0.00    +0.000 A 
ATOM      4  N   UNL     1       2.742   5.591  20.058  0.00  0.00    +0.000 NA
ATOM      5  N   UNL     1       2.075   6.363  20.931  0.00  0.00    +0.000 N 
ATOM      6  H   UNL     1       1.808   5.974  21.828  0.00  0.00    +0.000 HD
ENDROOT
BRANCH   3   7
ATOM      7  C   UNL     1       3.730   5.944  17.832  0.00  0.00    +0.000 A 
ATOM      8  C   UNL     1       3.770   4.593  17.465  0.00  0.00    +0.000 A 
ATOM      9  C   UNL     1       4.472   4.178  16.329  0.00  0.00    +0.000 A 
ATOM     10  C   UNL     1       5.147   5.095  15.506  0.00  0.00    +0.000 A 
ATOM     11  C   UNL     1       5.105   6.446  15.889  0.00  0.00    +0.000 A 
ATOM     12  C   UNL     1       4.417   6.863  17.036  0.00  0.00    +0.000 A 
BRANCH  10  13
ATOM     13  C   UNL     1       5.870   4.650  14.293  0.00  0.00    +0.000 A 
ATOM     14  C   UNL     1       7.120   5.191  13.939  0.00  0.00    +0.000 A 
ATOM     15  C   UNL     1       7.784   4.801  12.773  0.00  0.00    +0.000 A 
ATOM     16  C   UNL     1       7.225   3.838  11.944  0.00  0.00    +0.000 A 
ATOM     17  C   UNL     1       5.999   3.267  12.278  0.00  0.00    +0.000 A 
ATOM     18  C   UNL     1       5.329   3.674  13.434  0.00  0.00    +0.000 A 
ENDBRANCH  10  13
ENDBRANCH   3   7
BRANCH   1  20
ATOM     19  O   UNL     1       1.410   8.798  22.463  0.00  0.00    +0.000 OA
ATOM     20  C   UNL     1       1.154   8.623  21.274  0.00  0.00    +0.000 C 
ATOM     21  N   UNL     1       0.203   9.341  20.591  0.00  0.00    +0.000 N 
ATOM     22  H   UNL     1       0.001   9.106  19.632  0.00  0.00    +0.000 HD
BRANCH  21  23
ATOM     23  C   UNL     1      -0.602  10.363  21.220  0.00  0.00    +0.000 C 
BRANCH  23  24
ATOM     24  C   UNL     1      -0.204  11.768  20.770  0.00  0.00    +0.000 C 
BRANCH  24  25
ATOM     25  C   UNL     1      -1.383  12.468  20.093  0.00  0.00    +0.000 C 
BRANCH  25  26
ATOM     26  C   UNL     1      -2.111  11.544  19.115  0.00  0.00    +0.000 C 
BRANCH  26  27
ATOM     27  C   UNL     1      -3.540  12.032  18.848  0.00  0.00    +0.000 C 
BRANCH  27  28
ATOM     28  C   UNL     1      -4.282  11.067  17.927  0.00  0.00    +0.000 C 
BRANCH  28  29
ATOM     29  S   UNL     1      -3.116   9.985  17.050  0.00  0.00    +0.000 S 
ATOM     30  H   UNL     1      -2.911  10.793  15.999  0.00  0.00    +0.000 HD
ENDBRANCH  28  29
ENDBRANCH  27  28
ENDBRANCH  26  27
ENDBRANCH  25  26
ENDBRANCH  24  25
ENDBRANCH  23  24
ENDBRANCH  21  23
ENDBRANCH   1  20
TORSDOF 10
ENDMDL
MODEL 7
REMARK VINA RESULT:      -6.6      1.848      3.014
REMARK  Name = 
REMARK  10 active torsions:
REMARK  status: ('A' for Active; 'I' for Inactive)
REMARK    1  A    between atoms: C_2  and  C_11
REMARK    2  A    between atoms: N_3  and  C_4
REMARK    3  A    between atoms: C_4  and  C_5
REMARK    4  A    between atoms: C_5  and  C_6
REMARK    5  A    between atoms: C_6  and  C_7
REMARK    6  A    between atoms: C_7  and  C_8
REMARK    7  A    between atoms: C_8  and  C_9
REMARK    8  A    between atoms: C_9  and  S_10
REMARK    9  A    between atoms: C_13  and  C_14
REMARK   10  A    between atoms: C_17  and  C_18
REMARK                            x       y       z     vdW  Elec       q    Type
REMARK                         _______ _______ _______ _____ _____    ______ ____
ROOT
ATOM      1  C   UNL     1       2.707   7.039  18.992  0.00  0.00    +0.000 A 
ATOM      2  C   UNL     1       2.059   7.539  20.102  0.00  0.00    +0.000 A 
ATOM      3  C   UNL     1       1.436   8.747  19.693  0.00  0.00    +0.000 A 
ATOM      4  N   UNL     1       1.655   8.961  18.387  0.00  0.00    +0.000 NA
ATOM      5  N   UNL     1       2.425   7.932  17.997  0.00  0.00    +0.000 N 
ATOM      6  H   UNL     1       2.737   7.889  17.033  0.00  0.00    +0.000 HD
ENDROOT
BRANCH   3   7
ATOM      7  C   UNL     1       0.677   9.684  20.526  0.00  0.00    +0.000 A 
ATOM      8  C   UNL     1       0.309  10.945  20.042  0.00  0.00    +0.000 A 
ATOM      9  C   UNL     1      -0.444  11.823  20.828  0.00  0.00    +0.000 A 
ATOM     10  C   UNL     1      -0.873  11.472  22.119  0.00  0.00    +0.000 A 
ATOM     11  C   UNL     1      -0.490  10.207  22.596  0.00  0.00    +0.000 A 
ATOM     12  C   UNL     1       0.279   9.331  21.818  0.00  0.00    +0.000 A 
BRANCH  10  13
ATOM     13  C   UNL     1      -1.689  12.399  22.936  0.00  0.00    +0.000 A 
ATOM     14  C   UNL     1      -1.208  13.667  23.314  0.00  0.00    +0.000 A 
ATOM     15  C   UNL     1      -1.960  14.526  24.119  0.00  0.00    +0.000 A 
ATOM     16  C   UNL     1      -3.226  14.149  24.544  0.00  0.00    +0.000 A 
ATOM     17  C   UNL     1      -3.740  12.909  24.170  0.00  0.00    +0.000 A 
ATOM     18  C   UNL     1      -2.976  12.045  23.382  0.00  0.00    +0.000 A 
ENDBRANCH  10  13
ENDBRANCH   3   7
BRANCH   1  20
ATOM     19  O   UNL     1       4.305   5.465  19.651  0.00  0.00    +0.000 OA
ATOM     20  C   UNL     1       3.534   5.880  18.788  0.00  0.00    +0.000 C 
ATOM     21  N   UNL     1       3.390   5.288  17.556  0.00  0.00    +0.000 N 
ATOM     22  H   UNL     1       2.785   5.713  16.872  0.00  0.00    +0.000 HD
BRANCH  21  23
ATOM     23  C   UNL     1       4.153   4.128  17.156  0.00  0.00    +0.000 C 
BRANCH  23  24
ATOM     24  C   UNL     1       4.768   4.293  15.767  0.00  0.00    +0.000 C 
BRANCH  24  25
ATOM     25  C   UNL     1       6.285   4.111  15.827  0.00  0.00    +0.000 C 
BRANCH  25  26
ATOM     26  C   UNL     1       6.891   4.766  17.070  0.00  0.00    +0.000 C 
BRANCH  26  27
ATOM     27  C   UNL     1       6.908   6.293  16.941  0.00  0.00    +0.000 C 
BRANCH  27  28
ATOM     28  C   UNL     1       7.736   6.926  18.056  0.00  0.00    +0.000 C 
BRANCH  28  29
ATOM     29  S   UNL     1       7.893   5.791  19.467  0.00  0.00    +0.000 S 
ATOM     30  H   UNL     1       8.842   6.480  20.117  0.00  0.00    +0.000 HD
ENDBRANCH  28  29
ENDBRANCH  27  28
ENDBRANCH  26  27
ENDBRANCH  25  26
ENDBRANCH  24  25
ENDBRANCH  23  24
ENDBRANCH  21  23
ENDBRANCH   1  20
TORSDOF 10
ENDMDL
MODEL 8
REMARK VINA RESULT:      -6.6      3.757     10.356
REMARK  Name = 
REMARK  10 active torsions:
REMARK  status: ('A' for Active; 'I' for Inactive)
REMARK    1  A    between atoms: C_2  and  C_11
REMARK    2  A    between atoms: N_3  and  C_4
REMARK    3  A    between atoms: C_4  and  C_5
REMARK    4  A    between atoms: C_5  and  C_6
REMARK    5  A    between atoms: C_6  and  C_7
REMARK    6  A    between atoms: C_7  and  C_8
REMARK    7  A    between atoms: C_8  and  C_9
REMARK    8  A    between atoms: C_9  and  S_10
REMARK    9  A    between atoms: C_13  and  C_14
REMARK   10  A    between atoms: C_17  and  C_18
REMARK                            x       y       z     vdW  Elec       q    Type
REMARK                         _______ _______ _______ _____ _____    ______ ____
ROOT
ATOM      1  C   UNL     1       1.686   7.605  20.358  0.00  0.00    +0.000 A 
ATOM      2  C   UNL     1       2.201   7.607  19.079  0.00  0.00    +0.000 A 
ATOM      3  C   UNL     1       2.925   6.394  18.936  0.00  0.00    +0.000 A 
ATOM      4  N   UNL     1       2.827   5.663  20.057  0.00  0.00    +0.000 NA
ATOM      5  N   UNL     1       2.092   6.414  20.891  0.00  0.00    +0.000 N 
ATOM      6  H   UNL     1       1.897   6.066  21.825  0.00  0.00    +0.000 HD
ENDROOT
BRANCH   3   7
ATOM      7  C   UNL     1       3.708   5.957  17.778  0.00  0.00    +0.000 A 
ATOM      8  C   UNL     1       3.720   4.614  17.380  0.00  0.00    +0.000 A 
ATOM      9  C   UNL     1       4.442   4.206  16.253  0.00  0.00    +0.000 A 
ATOM     10  C   UNL     1       5.166   5.122  15.471  0.00  0.00    +0.000 A 
ATOM     11  C   UNL     1       5.152   6.464  15.887  0.00  0.00    +0.000 A 
ATOM     12  C   UNL     1       4.444   6.874  17.024  0.00  0.00    +0.000 A 
BRANCH  10  13
ATOM     13  C   UNL     1       5.909   4.685  14.268  0.00  0.00    +0.000 A 
ATOM     14  C   UNL     1       5.391   3.711  13.395  0.00  0.00    +0.000 A 
ATOM     15  C   UNL     1       6.111   3.268  12.281  0.00  0.00    +0.000 A 
ATOM     16  C   UNL     1       7.357   3.809  11.999  0.00  0.00    +0.000 A 
ATOM     17  C   UNL     1       7.888   4.791  12.832  0.00  0.00    +0.000 A 
ATOM     18  C   UNL     1       7.175   5.217  13.955  0.00  0.00    +0.000 A 
ENDBRANCH  10  13
ENDBRANCH   3   7
BRANCH   1  20
ATOM     19  O   UNL     1       0.162   8.233  22.015  0.00  0.00    +0.000 OA
ATOM     20  C   UNL     1       0.907   8.564  21.096  0.00  0.00    +0.000 C 
ATOM     21  N   UNL     1       1.066   9.865  20.682  0.00  0.00    +0.000 N 
ATOM     22  H   UNL     1       1.647  10.061  19.882  0.00  0.00    +0.000 HD
BRANCH  21  23
ATOM     23  C   UNL     1       0.350  10.966  21.284  0.00  0.00    +0.000 C 
BRANCH  23  24
ATOM     24  C   UNL     1       0.465  12.247  20.460  0.00  0.00    +0.000 C 
BRANCH  24  25
ATOM     25  C   UNL     1       0.167  11.965  18.986  0.00  0.00    +0.000 C 
BRANCH  25  26
ATOM     26  C   UNL     1      -1.199  12.510  18.565  0.00  0.00    +0.000 C 
BRANCH  26  27
ATOM     27  C   UNL     1      -2.253  11.398  18.526  0.00  0.00    +0.000 C 
BRANCH  27  28
ATOM     28  C   UNL     1      -1.909  10.356  17.466  0.00  0.00    +0.000 C 
BRANCH  28  29
ATOM     29  S   UNL     1      -2.780  10.706  15.910  0.00  0.00    +0.000 S 
ATOM     30  H   UNL     1      -1.722  10.552  15.100  0.00  0.00    +0.000 HD
ENDBRANCH  28  29
ENDBRANCH  27  28
ENDBRANCH  26  27
ENDBRANCH  25  26
ENDBRANCH  24  25
ENDBRANCH  23  24
ENDBRANCH  21  23
ENDBRANCH   1  20
TORSDOF 10
ENDMDL
MODEL 9
REMARK VINA RESULT:      -6.6      7.361      8.837
REMARK  Name = 
REMARK  10 active torsions:
REMARK  status: ('A' for Active; 'I' for Inactive)
REMARK    1  A    between atoms: C_2  and  C_11
REMARK    2  A    between atoms: N_3  and  C_4
REMARK    3  A    between atoms: C_4  and  C_5
REMARK    4  A    between atoms: C_5  and  C_6
REMARK    5  A    between atoms: C_6  and  C_7
REMARK    6  A    between atoms: C_7  and  C_8
REMARK    7  A    between atoms: C_8  and  C_9
REMARK    8  A    between atoms: C_9  and  S_10
REMARK    9  A    between atoms: C_13  and  C_14
REMARK   10  A    between atoms: C_17  and  C_18
REMARK                            x       y       z     vdW  Elec       q    Type
REMARK                         _______ _______ _______ _____ _____    ______ ____
ROOT
ATOM      1  C   UNL     1       7.799   7.589  17.837  0.00  0.00    +0.000 A 
ATOM      2  C   UNL     1       7.820   8.873  17.336  0.00  0.00    +0.000 A 
ATOM      3  C   UNL     1       8.579   9.649  18.250  0.00  0.00    +0.000 A 
ATOM      4  N   UNL     1       9.036   8.874  19.246  0.00  0.00    +0.000 NA
ATOM      5  N   UNL     1       8.547   7.653  18.980  0.00  0.00    +0.000 N 
ATOM      6  H   UNL     1       8.751   6.891  19.617  0.00  0.00    +0.000 HD
ENDROOT
BRANCH   3   7
ATOM      7  C   UNL     1       8.838  11.090  18.194  0.00  0.00    +0.000 A 
ATOM      8  C   UNL     1      10.003  11.636  18.746  0.00  0.00    +0.000 A 
ATOM      9  C   UNL     1      10.264  13.008  18.661  0.00  0.00    +0.000 A 
ATOM     10  C   UNL     1       9.382  13.885  18.007  0.00  0.00    +0.000 A 
ATOM     11  C   UNL     1       8.213  13.325  17.465  0.00  0.00    +0.000 A 
ATOM     12  C   UNL     1       7.940  11.955  17.563  0.00  0.00    +0.000 A 
BRANCH  10  13
ATOM     13  C   UNL     1       9.676  15.332  17.903  0.00  0.00    +0.000 A 
ATOM     14  C   UNL     1       8.783  16.303  18.395  0.00  0.00    +0.000 A 
ATOM     15  C   UNL     1       9.041  17.670  18.259  0.00  0.00    +0.000 A 
ATOM     16  C   UNL     1      10.212  18.100  17.652  0.00  0.00    +0.000 A 
ATOM     17  C   UNL     1      11.127  17.163  17.174  0.00  0.00    +0.000 A 
ATOM     18  C   UNL     1      10.856  15.798  17.293  0.00  0.00    +0.000 A 
ENDBRANCH  10  13
ENDBRANCH   3   7
BRANCH   1  20
ATOM     19  O   UNL     1       7.426   5.872  16.296  0.00  0.00    +0.000 OA
ATOM     20  C   UNL     1       7.167   6.378  17.386  0.00  0.00    +0.000 C 
ATOM     21  N   UNL     1       6.257   5.847  18.268  0.00  0.00    +0.000 N 
ATOM     22  H   UNL     1       6.047   6.344  19.119  0.00  0.00    +0.000 HD
BRANCH  21  23
ATOM     23  C   UNL     1       5.504   4.647  17.983  0.00  0.00    +0.000 C 
BRANCH  23  24
ATOM     24  C   UNL     1       4.289   4.927  17.099  0.00  0.00    +0.000 C 
BRANCH  24  25
ATOM     25  C   UNL     1       3.209   3.867  17.322  0.00  0.00    +0.000 C 
BRANCH  25  26
ATOM     26  C   UNL     1       1.936   4.466  17.922  0.00  0.00    +0.000 C 
BRANCH  26  27
ATOM     27  C   UNL     1       1.205   3.449  18.805  0.00  0.00    +0.000 C 
BRANCH  27  28
ATOM     28  C   UNL     1       1.015   3.991  20.219  0.00  0.00    +0.000 C 
BRANCH  28  29
ATOM     29  S   UNL     1       1.830   2.918  21.437  0.00  0.00    +0.000 S 
ATOM     30  H   UNL     1       1.023   3.207  22.468  0.00  0.00    +0.000 HD
ENDBRANCH  28  29
ENDBRANCH  27  28
ENDBRANCH  26  27
ENDBRANCH  25  26
ENDBRANCH  24  25
ENDBRANCH  23  24
ENDBRANCH  21  23
ENDBRANCH   1  20
TORSDOF 10
ENDMDL
