MODEL 1
REMARK VINA RESULT:      -7.7      0.000      0.000
REMARK  Name = 
REMARK  3 active torsions:
REMARK  status: ('A' for Active; 'I' for Inactive)
REMARK    1  A    between atoms: C_1  and  C_2
REMARK    2  A    between atoms: C_4  and  C_5
REMARK    3  A    between atoms: N_18  and  C_19
REMARK                            x       y       z     vdW  Elec       q    Type
REMARK                         _______ _______ _______ _____ _____    ______ ____
ROOT
ATOM      1  C   UNL     1       3.735   1.210  18.570  0.00  0.00    +0.000 C 
ATOM      2  C   UNL     1       3.648   2.680  18.434  0.00  0.00    +0.000 A 
ATOM      3  N   UNL     1       4.294   3.396  17.551  0.00  0.00    +0.000 NA
ATOM      4  C   UNL     1       3.907   4.710  17.749  0.00  0.00    +0.000 A 
ATOM      5  C   UNL     1       2.994   4.785  18.800  0.00  0.00    +0.000 A 
ATOM      6  C   UNL     1       2.241   5.791  19.529  0.00  0.00    +0.000 A 
ATOM      7  N   UNL     1       2.209   7.167  19.272  0.00  0.00    +0.000 N 
ATOM      8  C   UNL     1       1.888   7.657  17.908  0.00  0.00    +0.000 C 
ATOM      9  C   UNL     1       2.474   9.085  17.667  0.00  0.00    +0.000 C 
ATOM     10  C   UNL     1       1.813   9.984  18.638  0.00  0.00    +0.000 A 
ATOM     11  C   UNL     1       1.416  11.336  18.683  0.00  0.00    +0.000 A 
ATOM     12  N   UNL     1       0.604  11.558  19.725  0.00  0.00    +0.000 NA
ATOM     13  N   UNL     1       0.336  10.301  20.172  0.00  0.00    +0.000 N 
ATOM     14  C   UNL     1      -1.071   9.907  20.088  0.00  0.00    +0.000 C 
ATOM     15  C   UNL     1       1.382   9.464  19.837  0.00  0.00    +0.000 A 
ATOM     16  C   UNL     1       1.787   8.116  20.358  0.00  0.00    +0.000 C 
ATOM     17  N   UNL     1       1.529   5.359  20.535  0.00  0.00    +0.000 NA
ATOM     18  C   UNL     1       1.459   4.024  20.830  0.00  0.00    +0.000 A 
ATOM     19  N   UNL     1       2.083   3.060  20.230  0.00  0.00    +0.000 NA
ATOM     20  N   UNL     1       2.859   3.480  19.221  0.00  0.00    +0.000 N 
ENDROOT
BRANCH   4  21
ATOM     21  C   UNL     1       4.518   5.728  16.821  0.00  0.00    +0.000 C 
ATOM     22  C   UNL     1       5.473   6.699  17.524  0.00  0.00    +0.000 C 
ATOM     23  C   UNL     1       6.801   5.977  17.472  0.00  0.00    +0.000 C 
ATOM     24  C   UNL     1       6.723   5.278  16.135  0.00  0.00    +0.000 C 
ATOM     25  O   UNL     1       5.336   5.079  15.817  0.00  0.00    +0.000 OA
ENDBRANCH   4  21
TORSDOF 1
ENDMDL
MODEL 2
REMARK VINA RESULT:      -7.2      2.119      4.099
REMARK  Name = 
REMARK  3 active torsions:
REMARK  status: ('A' for Active; 'I' for Inactive)
REMARK    1  A    between atoms: C_1  and  C_2
REMARK    2  A    between atoms: C_4  and  C_5
REMARK    3  A    between atoms: N_18  and  C_19
REMARK                            x       y       z     vdW  Elec       q    Type
REMARK                         _______ _______ _______ _____ _____    ______ ____
ROOT
ATOM      1  C   UNL     1       4.959   3.612  17.053  0.00  0.00    +0.000 C 
ATOM      2  C   UNL     1       3.984   4.420  17.817  0.00  0.00    +0.000 A 
ATOM      3  N   UNL     1       3.177   3.956  18.737  0.00  0.00    +0.000 NA
ATOM      4  C   UNL     1       2.462   5.040  19.216  0.00  0.00    +0.000 A 
ATOM      5  C   UNL     1       2.853   6.201  18.550  0.00  0.00    +0.000 A 
ATOM      6  C   UNL     1       2.519   7.615  18.523  0.00  0.00    +0.000 A 
ATOM      7  N   UNL     1       1.593   8.276  19.340  0.00  0.00    +0.000 N 
ATOM      8  C   UNL     1       1.682   8.141  20.815  0.00  0.00    +0.000 C 
ATOM      9  C   UNL     1       0.298   8.408  21.492  0.00  0.00    +0.000 C 
ATOM     10  C   UNL     1      -0.061   9.810  21.185  0.00  0.00    +0.000 A 
ATOM     11  C   UNL     1      -0.771  10.850  21.816  0.00  0.00    +0.000 A 
ATOM     12  N   UNL     1      -0.554  12.018  21.197  0.00  0.00    +0.000 NA
ATOM     13  N   UNL     1       0.458  11.720  20.337  0.00  0.00    +0.000 N 
ATOM     14  C   UNL     1       1.706  12.444  20.582  0.00  0.00    +0.000 C 
ATOM     15  C   UNL     1       0.408  10.376  20.022  0.00  0.00    +0.000 A 
ATOM     16  C   UNL     1       1.018   9.592  18.897  0.00  0.00    +0.000 C 
ATOM     17  N   UNL     1       3.145   8.337  17.632  0.00  0.00    +0.000 NA
ATOM     18  C   UNL     1       4.104   7.787  16.825  0.00  0.00    +0.000 A 
ATOM     19  N   UNL     1       4.474   6.546  16.788  0.00  0.00    +0.000 NA
ATOM     20  N   UNL     1       3.813   5.771  17.660  0.00  0.00    +0.000 N 
ENDROOT
BRANCH   4  21
ATOM     21  C   UNL     1       1.469   4.747  20.310  0.00  0.00    +0.000 C 
ATOM     22  C   UNL     1       0.666   3.463  20.078  0.00  0.00    +0.000 C 
ATOM     23  C   UNL     1       1.537   2.392  20.697  0.00  0.00    +0.000 C 
ATOM     24  C   UNL     1       2.138   3.122  21.876  0.00  0.00    +0.000 C 
ATOM     25  O   UNL     1       2.148   4.527  21.571  0.00  0.00    +0.000 OA
ENDBRANCH   4  21
TORSDOF 1
ENDMDL
MODEL 3
REMARK VINA RESULT:      -6.5      8.928     10.647
REMARK  Name = 
REMARK  3 active torsions:
REMARK  status: ('A' for Active; 'I' for Inactive)
REMARK    1  A    between atoms: C_1  and  C_2
REMARK    2  A    between atoms: C_4  and  C_5
REMARK    3  A    between atoms: N_18  and  C_19
REMARK                            x       y       z     vdW  Elec       q    Type
REMARK                         _______ _______ _______ _____ _____    ______ ____
ROOT
ATOM      1  C   UNL     1      10.477  16.439  16.840  0.00  0.00    +0.000 C 
ATOM      2  C   UNL     1       9.957  15.489  17.847  0.00  0.00    +0.000 A 
ATOM      3  N   UNL     1      10.300  14.230  17.944  0.00  0.00    +0.000 NA
ATOM      4  C   UNL     1       9.610  13.716  19.028  0.00  0.00    +0.000 A 
ATOM      5  C   UNL     1       8.815  14.708  19.601  0.00  0.00    +0.000 A 
ATOM      6  C   UNL     1       7.861  14.857  20.686  0.00  0.00    +0.000 A 
ATOM      7  N   UNL     1       7.479  13.878  21.612  0.00  0.00    +0.000 N 
ATOM      8  C   UNL     1       8.516  13.150  22.385  0.00  0.00    +0.000 C 
ATOM      9  C   UNL     1       7.988  11.760  22.869  0.00  0.00    +0.000 C 
ATOM     10  C   UNL     1       6.852  12.031  23.776  0.00  0.00    +0.000 A 
ATOM     11  C   UNL     1       6.282  11.429  24.916  0.00  0.00    +0.000 A 
ATOM     12  N   UNL     1       5.411  12.259  25.506  0.00  0.00    +0.000 NA
ATOM     13  N   UNL     1       5.625  13.434  24.853  0.00  0.00    +0.000 N 
ATOM     14  C   UNL     1       6.124  14.523  25.695  0.00  0.00    +0.000 C 
ATOM     15  C   UNL     1       6.107  13.172  23.586  0.00  0.00    +0.000 A 
ATOM     16  C   UNL     1       6.178  14.020  22.350  0.00  0.00    +0.000 C 
ATOM     17  N   UNL     1       7.295  16.030  20.796  0.00  0.00    +0.000 NA
ATOM     18  C   UNL     1       7.643  17.063  19.969  0.00  0.00    +0.000 A 
ATOM     19  N   UNL     1       8.488  17.025  18.988  0.00  0.00    +0.000 NA
ATOM     20  N   UNL     1       9.050  15.819  18.821  0.00  0.00    +0.000 N 
ENDROOT
BRANCH   4  21
ATOM     21  C   UNL     1       9.863  12.266  19.348  0.00  0.00    +0.000 C 
ATOM     22  C   UNL     1      10.271  11.433  18.127  0.00  0.00    +0.000 C 
ATOM     23  C   UNL     1      11.774  11.599  18.081  0.00  0.00    +0.000 C 
ATOM     24  C   UNL     1      12.127  11.653  19.549  0.00  0.00    +0.000 C 
ATOM     25  O   UNL     1      10.977  12.131  20.266  0.00  0.00    +0.000 OA
ENDBRANCH   4  21
TORSDOF 1
ENDMDL
MODEL 4
REMARK VINA RESULT:      -6.4      5.639      8.770
REMARK  Name = 
REMARK  3 active torsions:
REMARK  status: ('A' for Active; 'I' for Inactive)
REMARK    1  A    between atoms: C_1  and  C_2
REMARK    2  A    between atoms: C_4  and  C_5
REMARK    3  A    between atoms: N_18  and  C_19
REMARK                            x       y       z     vdW  Elec       q    Type
REMARK                         _______ _______ _______ _____ _____    ______ ____
ROOT
ATOM      1  C   UNL     1      -2.807  10.085  15.819  0.00  0.00    +0.000 C 
ATOM      2  C   UNL     1      -2.483  10.627  17.157  0.00  0.00    +0.000 A 
ATOM      3  N   UNL     1      -1.321  10.531  17.748  0.00  0.00    +0.000 NA
ATOM      4  C   UNL     1      -1.438  11.192  18.958  0.00  0.00    +0.000 A 
ATOM      5  C   UNL     1      -2.729  11.700  19.100  0.00  0.00    +0.000 A 
ATOM      6  C   UNL     1      -3.518  12.434  20.076  0.00  0.00    +0.000 A 
ATOM      7  N   UNL     1      -3.077  12.937  21.306  0.00  0.00    +0.000 N 
ATOM      8  C   UNL     1      -1.874  13.805  21.360  0.00  0.00    +0.000 C 
ATOM      9  C   UNL     1      -1.208  13.761  22.773  0.00  0.00    +0.000 C 
ATOM     10  C   UNL     1      -2.201  14.302  23.727  0.00  0.00    +0.000 A 
ATOM     11  C   UNL     1      -2.176  15.032  24.932  0.00  0.00    +0.000 A 
ATOM     12  N   UNL     1      -3.397  15.494  25.233  0.00  0.00    +0.000 NA
ATOM     13  N   UNL     1      -4.105  15.234  24.100  0.00  0.00    +0.000 N 
ATOM     14  C   UNL     1      -4.617  16.419  23.411  0.00  0.00    +0.000 C 
ATOM     15  C   UNL     1      -3.540  14.158  23.445  0.00  0.00    +0.000 A 
ATOM     16  C   UNL     1      -4.077  13.240  22.386  0.00  0.00    +0.000 C 
ATOM     17  N   UNL     1      -4.772  12.630  19.770  0.00  0.00    +0.000 NA
ATOM     18  C   UNL     1      -5.279  12.218  18.567  0.00  0.00    +0.000 A 
ATOM     19  N   UNL     1      -4.650  11.572  17.636  0.00  0.00    +0.000 NA
ATOM     20  N   UNL     1      -3.371  11.314  17.944  0.00  0.00    +0.000 N 
ENDROOT
BRANCH   4  21
ATOM     21  C   UNL     1      -0.201  11.228  19.817  0.00  0.00    +0.000 C 
ATOM     22  C   UNL     1      -0.373  10.520  21.166  0.00  0.00    +0.000 C 
ATOM     23  C   UNL     1      -0.011   9.085  20.852  0.00  0.00    +0.000 C 
ATOM     24  C   UNL     1       1.084   9.256  19.825  0.00  0.00    +0.000 C 
ATOM     25  O   UNL     1       0.889  10.522  19.174  0.00  0.00    +0.000 OA
ENDBRANCH   4  21
TORSDOF 1
ENDMDL
MODEL 5
REMARK VINA RESULT:      -6.2      5.813      8.718
REMARK  Name = 
REMARK  3 active torsions:
REMARK  status: ('A' for Active; 'I' for Inactive)
REMARK    1  A    between atoms: C_1  and  C_2
REMARK    2  A    between atoms: C_4  and  C_5
REMARK    3  A    between atoms: N_18  and  C_19
REMARK                            x       y       z     vdW  Elec       q    Type
REMARK                         _______ _______ _______ _____ _____    ______ ____
ROOT
ATOM      1  C   UNL     1      -2.854   9.953  15.308  0.00  0.00    +0.000 C 
ATOM      2  C   UNL     1      -2.610  10.447  16.680  0.00  0.00    +0.000 A 
ATOM      3  N   UNL     1      -1.508  10.268  17.362  0.00  0.00    +0.000 NA
ATOM      4  C   UNL     1      -1.685  10.910  18.574  0.00  0.00    +0.000 A 
ATOM      5  C   UNL     1      -2.950  11.495  18.624  0.00  0.00    +0.000 A 
ATOM      6  C   UNL     1      -3.771  12.256  19.550  0.00  0.00    +0.000 A 
ATOM      7  N   UNL     1      -3.404  12.707  20.824  0.00  0.00    +0.000 N 
ATOM      8  C   UNL     1      -2.160  13.497  20.997  0.00  0.00    +0.000 C 
ATOM      9  C   UNL     1      -1.617  13.383  22.458  0.00  0.00    +0.000 C 
ATOM     10  C   UNL     1      -2.650  13.966  23.341  0.00  0.00    +0.000 A 
ATOM     11  C   UNL     1      -2.682  14.669  24.563  0.00  0.00    +0.000 A 
ATOM     12  N   UNL     1      -3.893  15.200  24.774  0.00  0.00    +0.000 NA
ATOM     13  N   UNL     1      -4.520  15.007  23.582  0.00  0.00    +0.000 N 
ATOM     14  C   UNL     1      -4.901  16.235  22.883  0.00  0.00    +0.000 C 
ATOM     15  C   UNL     1      -3.968  13.911  22.948  0.00  0.00    +0.000 A 
ATOM     16  C   UNL     1      -4.470  13.050  21.826  0.00  0.00    +0.000 C 
ATOM     17  N   UNL     1      -4.982  12.536  19.147  0.00  0.00    +0.000 NA
ATOM     18  C   UNL     1      -5.411  12.181  17.897  0.00  0.00    +0.000 A 
ATOM     19  N   UNL     1      -4.748  11.516  17.005  0.00  0.00    +0.000 NA
ATOM     20  N   UNL     1      -3.517  11.173  17.409  0.00  0.00    +0.000 N 
ENDROOT
BRANCH   4  21
ATOM     21  C   UNL     1      -0.523  10.852  19.532  0.00  0.00    +0.000 C 
ATOM     22  C   UNL     1       0.380   9.632  19.322  0.00  0.00    +0.000 C 
ATOM     23  C   UNL     1       1.370  10.108  18.281  0.00  0.00    +0.000 C 
ATOM     24  C   UNL     1       1.544  11.560  18.659  0.00  0.00    +0.000 C 
ATOM     25  O   UNL     1       0.354  11.989  19.340  0.00  0.00    +0.000 OA
ENDBRANCH   4  21
TORSDOF 1
ENDMDL
MODEL 6
REMARK VINA RESULT:      -6.2      6.375      9.442
REMARK  Name = 
REMARK  3 active torsions:
REMARK  status: ('A' for Active; 'I' for Inactive)
REMARK    1  A    between atoms: C_1  and  C_2
REMARK    2  A    between atoms: C_4  and  C_5
REMARK    3  A    between atoms: N_18  and  C_19
REMARK                            x       y       z     vdW  Elec       q    Type
REMARK                         _______ _______ _______ _____ _____    ______ ____
ROOT
ATOM      1  C   UNL     1      -2.113   9.967  16.904  0.00  0.00    +0.000 C 
ATOM      2  C   UNL     1      -2.069  10.720  18.176  0.00  0.00    +0.000 A 
ATOM      3  N   UNL     1      -1.049  10.758  18.994  0.00  0.00    +0.000 NA
ATOM      4  C   UNL     1      -1.411  11.593  20.037  0.00  0.00    +0.000 A 
ATOM      5  C   UNL     1      -2.706  12.071  19.837  0.00  0.00    +0.000 A 
ATOM      6  C   UNL     1      -3.678  12.917  20.508  0.00  0.00    +0.000 A 
ATOM      7  N   UNL     1      -3.497  13.620  21.705  0.00  0.00    +0.000 N 
ATOM      8  C   UNL     1      -2.333  14.528  21.859  0.00  0.00    +0.000 C 
ATOM      9  C   UNL     1      -1.966  14.727  23.365  0.00  0.00    +0.000 C 
ATOM     10  C   UNL     1      -3.133  15.373  24.005  0.00  0.00    +0.000 A 
ATOM     11  C   UNL     1      -3.355  16.280  25.060  0.00  0.00    +0.000 A 
ATOM     12  N   UNL     1      -4.613  16.739  25.035  0.00  0.00    +0.000 NA
ATOM     13  N   UNL     1      -5.077  16.283  23.840  0.00  0.00    +0.000 N 
ATOM     14  C   UNL     1      -5.444  17.328  22.884  0.00  0.00    +0.000 C 
ATOM     15  C   UNL     1      -4.387  15.139  23.488  0.00  0.00    +0.000 A 
ATOM     16  C   UNL     1      -4.696  14.050  22.503  0.00  0.00    +0.000 C 
ATOM     17  N   UNL     1      -4.846  13.019  19.931  0.00  0.00    +0.000 NA
ATOM     18  C   UNL     1      -5.098  12.409  18.732  0.00  0.00    +0.000 A 
ATOM     19  N   UNL     1      -4.291  11.650  18.059  0.00  0.00    +0.000 NA
ATOM     20  N   UNL     1      -3.100  11.488  18.652  0.00  0.00    +0.000 N 
ENDROOT
BRANCH   4  21
ATOM     21  C   UNL     1      -0.373  11.806  21.108  0.00  0.00    +0.000 C 
ATOM     22  C   UNL     1      -0.810  11.308  22.490  0.00  0.00    +0.000 C 
ATOM     23  C   UNL     1      -0.387   9.856  22.485  0.00  0.00    +0.000 C 
ATOM     24  C   UNL     1       0.892   9.906  21.683  0.00  0.00    +0.000 C 
ATOM     25  O   UNL     1       0.827  11.049  20.814  0.00  0.00    +0.000 OA
ENDBRANCH   4  21
TORSDOF 1
ENDMDL
MODEL 7
REMARK VINA RESULT:      -6.1      6.238      9.266
REMARK  Name = 
REMARK  3 active torsions:
REMARK  status: ('A' for Active; 'I' for Inactive)
REMARK    1  A    between atoms: C_1  and  C_2
REMARK    2  A    between atoms: C_4  and  C_5
REMARK    3  A    between atoms: N_18  and  C_19
REMARK                            x       y       z     vdW  Elec       q    Type
REMARK                         _______ _______ _______ _____ _____    ______ ____
ROOT
ATOM      1  C   UNL     1      -4.018  10.856  16.308  0.00  0.00    +0.000 C 
ATOM      2  C   UNL     1      -3.387  11.331  17.559  0.00  0.00    +0.000 A 
ATOM      3  N   UNL     1      -2.105  11.301  17.816  0.00  0.00    +0.000 NA
ATOM      4  C   UNL     1      -1.941  11.863  19.070  0.00  0.00    +0.000 A 
ATOM      5  C   UNL     1      -3.179  12.240  19.589  0.00  0.00    +0.000 A 
ATOM      6  C   UNL     1      -3.728  12.829  20.799  0.00  0.00    +0.000 A 
ATOM      7  N   UNL     1      -3.010  13.284  21.912  0.00  0.00    +0.000 N 
ATOM      8  C   UNL     1      -1.901  14.253  21.729  0.00  0.00    +0.000 C 
ATOM      9  C   UNL     1      -0.880  14.172  22.910  0.00  0.00    +0.000 C 
ATOM     10  C   UNL     1      -1.617  14.552  24.135  0.00  0.00    +0.000 A 
ATOM     11  C   UNL     1      -1.322  15.196  25.353  0.00  0.00    +0.000 A 
ATOM     12  N   UNL     1      -2.448  15.523  26.003  0.00  0.00    +0.000 NA
ATOM     13  N   UNL     1      -3.413  15.278  25.075  0.00  0.00    +0.000 N 
ATOM     14  C   UNL     1      -4.172  16.456  24.654  0.00  0.00    +0.000 C 
ATOM     15  C   UNL     1      -2.969  14.306  24.199  0.00  0.00    +0.000 A 
ATOM     16  C   UNL     1      -3.705  13.419  23.238  0.00  0.00    +0.000 C 
ATOM     17  N   UNL     1      -5.029  12.931  20.849  0.00  0.00    +0.000 NA
ATOM     18  C   UNL     1      -5.809  12.559  19.787  0.00  0.00    +0.000 A 
ATOM     19  N   UNL     1      -5.408  12.039  18.670  0.00  0.00    +0.000 NA
ATOM     20  N   UNL     1      -4.078  11.879  18.609  0.00  0.00    +0.000 N 
ENDROOT
BRANCH   4  21
ATOM     21  C   UNL     1      -0.525  11.953  19.576  0.00  0.00    +0.000 C 
ATOM     22  C   UNL     1      -0.254  11.059  20.792  0.00  0.00    +0.000 C 
ATOM     23  C   UNL     1       0.141   9.738  20.170  0.00  0.00    +0.000 C 
ATOM     24  C   UNL     1       0.892  10.186  18.938  0.00  0.00    +0.000 C 
ATOM     25  O   UNL     1       0.408  11.488  18.570  0.00  0.00    +0.000 OA
ENDBRANCH   4  21
TORSDOF 1
ENDMDL
MODEL 8
REMARK VINA RESULT:      -5.9      5.128      8.360
REMARK  Name = 
REMARK  3 active torsions:
REMARK  status: ('A' for Active; 'I' for Inactive)
REMARK    1  A    between atoms: C_1  and  C_2
REMARK    2  A    between atoms: C_4  and  C_5
REMARK    3  A    between atoms: N_18  and  C_19
REMARK                            x       y       z     vdW  Elec       q    Type
REMARK                         _______ _______ _______ _____ _____    ______ ____
ROOT
ATOM      1  C   UNL     1       1.065   8.975  17.424  0.00  0.00    +0.000 C 
ATOM      2  C   UNL     1       0.332   9.767  18.436  0.00  0.00    +0.000 A 
ATOM      3  N   UNL     1       0.731   9.975  19.664  0.00  0.00    +0.000 NA
ATOM      4  C   UNL     1      -0.223  10.784  20.257  0.00  0.00    +0.000 A 
ATOM      5  C   UNL     1      -1.241  11.067  19.345  0.00  0.00    +0.000 A 
ATOM      6  C   UNL     1      -2.501  11.788  19.298  0.00  0.00    +0.000 A 
ATOM      7  N   UNL     1      -3.074  12.547  20.326  0.00  0.00    +0.000 N 
ATOM      8  C   UNL     1      -2.282  13.615  20.985  0.00  0.00    +0.000 C 
ATOM      9  C   UNL     1      -2.818  13.911  22.423  0.00  0.00    +0.000 C 
ATOM     10  C   UNL     1      -4.203  14.406  22.266  0.00  0.00    +0.000 A 
ATOM     11  C   UNL     1      -5.055  15.306  22.936  0.00  0.00    +0.000 A 
ATOM     12  N   UNL     1      -6.135  15.581  22.193  0.00  0.00    +0.000 NA
ATOM     13  N   UNL     1      -5.823  15.026  20.990  0.00  0.00    +0.000 N 
ATOM     14  C   UNL     1      -5.713  15.978  19.884  0.00  0.00    +0.000 C 
ATOM     15  C   UNL     1      -4.941  13.981  21.185  0.00  0.00    +0.000 A 
ATOM     16  C   UNL     1      -4.551  12.828  20.306  0.00  0.00    +0.000 C 
ATOM     17  N   UNL     1      -3.168  11.705  18.178  0.00  0.00    +0.000 NA
ATOM     18  C   UNL     1      -2.662  11.028  17.102  0.00  0.00    +0.000 A 
ATOM     19  N   UNL     1      -1.547  10.369  17.050  0.00  0.00    +0.000 NA
ATOM     20  N   UNL     1      -0.863  10.397  18.202  0.00  0.00    +0.000 N 
ENDROOT
BRANCH   4  21
ATOM     21  C   UNL     1       0.035  11.175  21.688  0.00  0.00    +0.000 C 
ATOM     22  C   UNL     1      -1.062  10.715  22.655  0.00  0.00    +0.000 C 
ATOM     23  C   UNL     1      -0.620   9.321  23.043  0.00  0.00    +0.000 C 
ATOM     24  C   UNL     1       0.883   9.467  23.067  0.00  0.00    +0.000 C 
ATOM     25  O   UNL     1       1.241  10.541  22.182  0.00  0.00    +0.000 OA
ENDBRANCH   4  21
TORSDOF 1
ENDMDL
MODEL 9
REMARK VINA RESULT:      -5.8      6.639      9.415
REMARK  Name = 
REMARK  3 active torsions:
REMARK  status: ('A' for Active; 'I' for Inactive)
REMARK    1  A    between atoms: C_1  and  C_2
REMARK    2  A    between atoms: C_4  and  C_5
REMARK    3  A    between atoms: N_18  and  C_19
REMARK                            x       y       z     vdW  Elec       q    Type
REMARK                         _______ _______ _______ _____ _____    ______ ____
ROOT
ATOM      1  C   UNL     1      -3.269  10.043  16.023  0.00  0.00    +0.000 C 
ATOM      2  C   UNL     1      -2.991  10.855  17.227  0.00  0.00    +0.000 A 
ATOM      3  N   UNL     1      -1.806  11.257  17.608  0.00  0.00    +0.000 NA
ATOM      4  C   UNL     1      -1.995  12.008  18.755  0.00  0.00    +0.000 A 
ATOM      5  C   UNL     1      -3.351  12.052  19.078  0.00  0.00    +0.000 A 
ATOM      6  C   UNL     1      -4.215  12.603  20.108  0.00  0.00    +0.000 A 
ATOM      7  N   UNL     1      -3.829  13.405  21.190  0.00  0.00    +0.000 N 
ATOM      8  C   UNL     1      -3.031  14.633  20.950  0.00  0.00    +0.000 C 
ATOM      9  C   UNL     1      -2.213  15.032  22.221  0.00  0.00    +0.000 C 
ATOM     10  C   UNL     1      -3.198  15.331  23.283  0.00  0.00    +0.000 A 
ATOM     11  C   UNL     1      -3.282  16.194  24.394  0.00  0.00    +0.000 A 
ATOM     12  N   UNL     1      -4.535  16.244  24.864  0.00  0.00    +0.000 NA
ATOM     13  N   UNL     1      -5.244  15.590  23.903  0.00  0.00    +0.000 N 
ATOM     14  C   UNL     1      -6.241  16.408  23.212  0.00  0.00    +0.000 C 
ATOM     15  C   UNL     1      -4.417  14.692  23.258  0.00  0.00    +0.000 A 
ATOM     16  C   UNL     1      -4.717  13.499  22.398  0.00  0.00    +0.000 C 
ATOM     17  N   UNL     1      -5.483  12.305  20.013  0.00  0.00    +0.000 NA
ATOM     18  C   UNL     1      -5.960  11.570  18.962  0.00  0.00    +0.000 A 
ATOM     19  N   UNL     1      -5.269  11.051  17.996  0.00  0.00    +0.000 NA
ATOM     20  N   UNL     1      -3.955  11.301  18.094  0.00  0.00    +0.000 N 
ENDROOT
BRANCH   4  21
ATOM     21  C   UNL     1      -0.754  12.597  19.374  0.00  0.00    +0.000 C 
ATOM     22  C   UNL     1      -0.431  12.026  20.759  0.00  0.00    +0.000 C 
ATOM     23  C   UNL     1       0.406  10.806  20.444  0.00  0.00    +0.000 C 
ATOM     24  C   UNL     1       1.180  11.263  19.231  0.00  0.00    +0.000 C 
ATOM     25  O   UNL     1       0.413  12.286  18.573  0.00  0.00    +0.000 OA
ENDBRANCH   4  21
TORSDOF 1
ENDMDL
