MODEL 1
REMARK VINA RESULT:      -8.5      0.000      0.000
REMARK  Name = 
REMARK  10 active torsions:
REMARK  status: ('A' for Active; 'I' for Inactive)
REMARK    1  A    between atoms: C_1  and  C_2
REMARK    2  A    between atoms: C_2  and  C_3
REMARK    3  A    between atoms: C_7  and  C_9
REMARK    4  A    between atoms: C_9  and  C_10
REMARK    5  A    between atoms: C_9  and  N_17
REMARK    6  A    between atoms: C_10  and  C_11
REMARK    7  A    between atoms: C_11  and  C_12
REMARK    8  A    between atoms: C_12  and  N_13
REMARK    9  A    between atoms: N_17  and  S_18
REMARK   10  A    between atoms: S_18  and  C_21
REMARK                            x       y       z     vdW  Elec       q    Type
REMARK                         _______ _______ _______ _____ _____    ______ ____
ROOT
ATOM      1  C   UNL     1       3.014   6.268  19.596  0.00  0.00    +0.000 C 
ENDROOT
BRANCH   1   6
ATOM      2  C   UNL     1      -0.324  10.412  20.028  0.00  0.00    +0.000 C 
ATOM      3  C   UNL     1       0.000   9.145  20.822  0.00  0.00    +0.000 C 
ATOM      4  C   UNL     1       1.428   8.640  20.604  0.00  0.00    +0.000 C 
ATOM      5  N   UNL     1       1.756   8.473  19.186  0.00  0.00    +0.000 N 
ATOM      6  C   UNL     1       2.566   7.449  18.667  0.00  0.00    +0.000 C 
ATOM      7  O   UNL     1       2.939   7.477  17.487  0.00  0.00    +0.000 OA
ATOM      8  C   UNL     1       1.463   9.645  18.347  0.00  0.00    +0.000 C 
ATOM      9  C   UNL     1       0.039  10.178  18.549  0.00  0.00    +0.000 C 
BRANCH   2  11
ATOM     10  C   UNL     1       0.144  12.910  19.719  0.00  0.00    +0.000 C 
ATOM     11  C   UNL     1       0.342  11.678  20.595  0.00  0.00    +0.000 C 
ENDBRANCH   2  11
ENDBRANCH   1   6
BRANCH   1  12
ATOM     12  N   UNL     1       3.545   5.180  18.711  0.00  0.00    +0.000 NA
ATOM     13  H   UNL     1       3.176   5.143  17.758  0.00  0.00    +0.000 HD
BRANCH  12  14
ATOM     14  S   UNL     1       5.117   4.613  18.879  0.00  0.00    +0.000 S 
ATOM     15  O   UNL     1       5.811   5.562  19.719  0.00  0.00    +0.000 OA
ATOM     16  O   UNL     1       5.044   3.210  19.219  0.00  0.00    +0.000 OA
BRANCH  14  17
ATOM     17  C   UNL     1       5.814   4.770  17.243  0.00  0.00    +0.000 A 
ATOM     18  C   UNL     1       6.961   5.540  17.024  0.00  0.00    +0.000 A 
ATOM     19  C   UNL     1       7.531   5.589  15.748  0.00  0.00    +0.000 A 
ATOM     20  C   UNL     1       6.955   4.895  14.675  0.00  0.00    +0.000 A 
ATOM     21  C   UNL     1       7.517   4.921  13.385  0.00  0.00    +0.000 A 
ATOM     22  C   UNL     1       6.924   4.229  12.329  0.00  0.00    +0.000 A 
ATOM     23  C   UNL     1       5.749   3.510  12.541  0.00  0.00    +0.000 A 
ATOM     24  C   UNL     1       5.176   3.469  13.816  0.00  0.00    +0.000 A 
ATOM     25  C   UNL     1       5.768   4.147  14.894  0.00  0.00    +0.000 A 
ATOM     26  C   UNL     1       5.207   4.091  16.182  0.00  0.00    +0.000 A 
ENDBRANCH  14  17
ENDBRANCH  12  14
ENDBRANCH   1  12
BRANCH   1  27
ATOM     27  C   UNL     1       1.890   5.666  20.449  0.00  0.00    +0.000 C 
BRANCH  27  28
ATOM     28  C   UNL     1       2.147   4.402  21.244  0.00  0.00    +0.000 C 
BRANCH  28  29
ATOM     29  C   UNL     1       1.194   3.268  20.928  0.00  0.00    +0.000 C 
BRANCH  29  30
ATOM     30  N   UNL     1       1.962   2.283  20.181  0.00  0.00    +0.000 NA
ATOM     31  C   UNL     1       1.906   2.316  18.908  0.00  0.00    +0.000 C 
ATOM     32  N   UNL     1       1.221   3.146  18.094  0.00  0.00    +0.000 N 
ATOM     33  N   UNL     1       2.584   1.401  18.187  0.00  0.00    +0.000 N 
ATOM     34  H   UNL     1       0.816   3.948  18.563  0.00  0.00    +0.000 HD
ATOM     35  H   UNL     1       1.785   3.448  17.307  0.00  0.00    +0.000 HD
ATOM     36  H   UNL     1       2.876   0.636  18.789  0.00  0.00    +0.000 HD
ATOM     37  H   UNL     1       2.061   1.062  17.391  0.00  0.00    +0.000 HD
ENDBRANCH  29  30
ENDBRANCH  28  29
ENDBRANCH  27  28
ENDBRANCH   1  27
TORSDOF 9
ENDMDL
MODEL 2
REMARK VINA RESULT:      -8.2      1.443      2.115
REMARK  Name = 
REMARK  10 active torsions:
REMARK  status: ('A' for Active; 'I' for Inactive)
REMARK    1  A    between atoms: C_1  and  C_2
REMARK    2  A    between atoms: C_2  and  C_3
REMARK    3  A    between atoms: C_7  and  C_9
REMARK    4  A    between atoms: C_9  and  C_10
REMARK    5  A    between atoms: C_9  and  N_17
REMARK    6  A    between atoms: C_10  and  C_11
REMARK    7  A    between atoms: C_11  and  C_12
REMARK    8  A    between atoms: C_12  and  N_13
REMARK    9  A    between atoms: N_17  and  S_18
REMARK   10  A    between atoms: S_18  and  C_21
REMARK                            x       y       z     vdW  Elec       q    Type
REMARK                         _______ _______ _______ _____ _____    ______ ____
ROOT
ATOM      1  C   UNL     1       3.140   7.043  18.506  0.00  0.00    +0.000 C 
ENDROOT
BRANCH   1   6
ATOM      2  C   UNL     1      -0.572   9.484  21.467  0.00  0.00    +0.000 C 
ATOM      3  C   UNL     1       0.183   8.154  21.487  0.00  0.00    +0.000 C 
ATOM      4  C   UNL     1       1.546   8.217  20.794  0.00  0.00    +0.000 C 
ATOM      5  N   UNL     1       1.462   8.756  19.435  0.00  0.00    +0.000 N 
ATOM      6  C   UNL     1       2.243   8.320  18.352  0.00  0.00    +0.000 C 
ATOM      7  O   UNL     1       2.239   8.941  17.281  0.00  0.00    +0.000 OA
ATOM      8  C   UNL     1       0.740  10.033  19.325  0.00  0.00    +0.000 C 
ATOM      9  C   UNL     1      -0.629  10.000  20.016  0.00  0.00    +0.000 C 
BRANCH   2  11
ATOM     10  C   UNL     1      -0.795  11.828  22.473  0.00  0.00    +0.000 C 
ATOM     11  C   UNL     1       0.008  10.532  22.433  0.00  0.00    +0.000 C 
ENDBRANCH   2  11
ENDBRANCH   1   6
BRANCH   1  12
ATOM     12  N   UNL     1       4.283   7.180  17.545  0.00  0.00    +0.000 NA
ATOM     13  H   UNL     1       4.403   8.094  17.102  0.00  0.00    +0.000 HD
BRANCH  12  14
ATOM     14  S   UNL     1       5.704   6.309  17.755  0.00  0.00    +0.000 S 
ATOM     15  O   UNL     1       6.788   7.263  17.692  0.00  0.00    +0.000 OA
ATOM     16  O   UNL     1       5.523   5.441  18.897  0.00  0.00    +0.000 OA
BRANCH  14  17
ATOM     17  C   UNL     1       5.820   5.303  16.284  0.00  0.00    +0.000 A 
ATOM     18  C   UNL     1       5.019   4.167  16.128  0.00  0.00    +0.000 A 
ATOM     19  C   UNL     1       5.075   3.437  14.937  0.00  0.00    +0.000 A 
ATOM     20  C   UNL     1       5.942   3.814  13.902  0.00  0.00    +0.000 A 
ATOM     21  C   UNL     1       6.007   3.100  12.690  0.00  0.00    +0.000 A 
ATOM     22  C   UNL     1       6.882   3.486  11.676  0.00  0.00    +0.000 A 
ATOM     23  C   UNL     1       7.719   4.585  11.860  0.00  0.00    +0.000 A 
ATOM     24  C   UNL     1       7.668   5.309  13.055  0.00  0.00    +0.000 A 
ATOM     25  C   UNL     1       6.782   4.944  14.082  0.00  0.00    +0.000 A 
ATOM     26  C   UNL     1       6.712   5.681  15.277  0.00  0.00    +0.000 A 
ENDBRANCH  14  17
ENDBRANCH  12  14
ENDBRANCH   1  12
BRANCH   1  27
ATOM     27  C   UNL     1       2.427   5.721  18.192  0.00  0.00    +0.000 C 
BRANCH  27  28
ATOM     28  C   UNL     1       1.731   4.962  19.303  0.00  0.00    +0.000 C 
BRANCH  28  29
ATOM     29  C   UNL     1       2.639   4.025  20.074  0.00  0.00    +0.000 C 
BRANCH  29  30
ATOM     30  N   UNL     1       2.726   2.802  19.289  0.00  0.00    +0.000 NA
ATOM     31  C   UNL     1       3.877   2.283  19.111  0.00  0.00    +0.000 C 
ATOM     32  N   UNL     1       5.087   2.694  19.544  0.00  0.00    +0.000 N 
ATOM     33  N   UNL     1       3.995   1.165  18.367  0.00  0.00    +0.000 N 
ATOM     34  H   UNL     1       5.052   3.436  20.232  0.00  0.00    +0.000 HD
ATOM     35  H   UNL     1       5.643   1.920  19.890  0.00  0.00    +0.000 HD
ATOM     36  H   UNL     1       3.142   1.013  17.837  0.00  0.00    +0.000 HD
ATOM     37  H   UNL     1       4.805   1.180  17.762  0.00  0.00    +0.000 HD
ENDBRANCH  29  30
ENDBRANCH  28  29
ENDBRANCH  27  28
ENDBRANCH   1  27
TORSDOF 9
ENDMDL
MODEL 3
REMARK VINA RESULT:      -8.1      0.828      1.527
REMARK  Name = 
REMARK  10 active torsions:
REMARK  status: ('A' for Active; 'I' for Inactive)
REMARK    1  A    between atoms: C_1  and  C_2
REMARK    2  A    between atoms: C_2  and  C_3
REMARK    3  A    between atoms: C_7  and  C_9
REMARK    4  A    between atoms: C_9  and  C_10
REMARK    5  A    between atoms: C_9  and  N_17
REMARK    6  A    between atoms: C_10  and  C_11
REMARK    7  A    between atoms: C_11  and  C_12
REMARK    8  A    between atoms: C_12  and  N_13
REMARK    9  A    between atoms: N_17  and  S_18
REMARK   10  A    between atoms: S_18  and  C_21
REMARK                            x       y       z     vdW  Elec       q    Type
REMARK                         _______ _______ _______ _____ _____    ______ ____
ROOT
ATOM      1  C   UNL     1       3.013   6.129  19.562  0.00  0.00    +0.000 C 
ENDROOT
BRANCH   1   6
ATOM      2  C   UNL     1      -0.417  10.118  20.471  0.00  0.00    +0.000 C 
ATOM      3  C   UNL     1      -0.070   8.770  21.105  0.00  0.00    +0.000 C 
ATOM      4  C   UNL     1       1.369   8.325  20.840  0.00  0.00    +0.000 C 
ATOM      5  N   UNL     1       1.710   8.341  19.415  0.00  0.00    +0.000 N 
ATOM      6  C   UNL     1       2.546   7.407  18.782  0.00  0.00    +0.000 C 
ATOM      7  O   UNL     1       2.926   7.587  17.617  0.00  0.00    +0.000 OA
ATOM      8  C   UNL     1       1.397   9.602  18.724  0.00  0.00    +0.000 C 
ATOM      9  C   UNL     1      -0.039  10.076  18.978  0.00  0.00    +0.000 C 
BRANCH   2  11
ATOM     10  C   UNL     1      -0.614  11.824  22.369  0.00  0.00    +0.000 C 
ATOM     11  C   UNL     1       0.218  11.318  21.196  0.00  0.00    +0.000 C 
ENDBRANCH   2  11
ENDBRANCH   1   6
BRANCH   1  12
ATOM     12  N   UNL     1       3.652   5.207  18.567  0.00  0.00    +0.000 NA
ATOM     13  H   UNL     1       3.151   5.063  17.687  0.00  0.00    +0.000 HD
BRANCH  12  14
ATOM     14  S   UNL     1       5.323   5.071  18.456  0.00  0.00    +0.000 S 
ATOM     15  O   UNL     1       5.857   6.405  18.612  0.00  0.00    +0.000 OA
ATOM     16  O   UNL     1       5.733   3.984  19.317  0.00  0.00    +0.000 OA
BRANCH  14  17
ATOM     17  C   UNL     1       5.610   4.597  16.759  0.00  0.00    +0.000 A 
ATOM     18  C   UNL     1       4.830   3.610  16.148  0.00  0.00    +0.000 A 
ATOM     19  C   UNL     1       5.025   3.308  14.797  0.00  0.00    +0.000 A 
ATOM     20  C   UNL     1       6.011   3.965  14.048  0.00  0.00    +0.000 A 
ATOM     21  C   UNL     1       6.218   3.684  12.684  0.00  0.00    +0.000 A 
ATOM     22  C   UNL     1       7.210   4.344  11.959  0.00  0.00    +0.000 A 
ATOM     23  C   UNL     1       8.023   5.285  12.588  0.00  0.00    +0.000 A 
ATOM     24  C   UNL     1       7.831   5.580  13.940  0.00  0.00    +0.000 A 
ATOM     25  C   UNL     1       6.828   4.937  14.683  0.00  0.00    +0.000 A 
ATOM     26  C   UNL     1       6.618   5.246  16.039  0.00  0.00    +0.000 A 
ENDBRANCH  14  17
ENDBRANCH  12  14
ENDBRANCH   1  12
BRANCH   1  27
ATOM     27  C   UNL     1       1.884   5.356  20.254  0.00  0.00    +0.000 C 
BRANCH  27  28
ATOM     28  C   UNL     1       2.223   4.245  21.228  0.00  0.00    +0.000 C 
BRANCH  28  29
ATOM     29  C   UNL     1       1.813   2.865  20.757  0.00  0.00    +0.000 C 
BRANCH  29  30
ATOM     30  N   UNL     1       3.019   2.231  20.247  0.00  0.00    +0.000 NA
ATOM     31  C   UNL     1       3.049   1.897  19.016  0.00  0.00    +0.000 C 
ATOM     32  N   UNL     1       2.107   2.035  18.061  0.00  0.00    +0.000 N 
ATOM     33  N   UNL     1       4.141   1.284  18.518  0.00  0.00    +0.000 N 
ATOM     34  H   UNL     1       1.326   2.623  18.328  0.00  0.00    +0.000 HD
ATOM     35  H   UNL     1       2.506   2.358  17.186  0.00  0.00    +0.000 HD
ATOM     36  H   UNL     1       4.726   0.951  19.280  0.00  0.00    +0.000 HD
ATOM     37  H   UNL     1       3.914   0.536  17.877  0.00  0.00    +0.000 HD
ENDBRANCH  29  30
ENDBRANCH  28  29
ENDBRANCH  27  28
ENDBRANCH   1  27
TORSDOF 9
ENDMDL
MODEL 4
REMARK VINA RESULT:      -8.1      1.012      1.204
REMARK  Name = 
REMARK  10 active torsions:
REMARK  status: ('A' for Active; 'I' for Inactive)
REMARK    1  A    between atoms: C_1  and  C_2
REMARK    2  A    between atoms: C_2  and  C_3
REMARK    3  A    between atoms: C_7  and  C_9
REMARK    4  A    between atoms: C_9  and  C_10
REMARK    5  A    between atoms: C_9  and  N_17
REMARK    6  A    between atoms: C_10  and  C_11
REMARK    7  A    between atoms: C_11  and  C_12
REMARK    8  A    between atoms: C_12  and  N_13
REMARK    9  A    between atoms: N_17  and  S_18
REMARK   10  A    between atoms: S_18  and  C_21
REMARK                            x       y       z     vdW  Elec       q    Type
REMARK                         _______ _______ _______ _____ _____    ______ ____
ROOT
ATOM      1  C   UNL     1       3.129   5.962  19.204  0.00  0.00    +0.000 C 
ENDROOT
BRANCH   1   6
ATOM      2  C   UNL     1      -0.232   9.834  20.693  0.00  0.00    +0.000 C 
ATOM      3  C   UNL     1       0.172   8.446  21.192  0.00  0.00    +0.000 C 
ATOM      4  C   UNL     1       1.587   8.038  20.776  0.00  0.00    +0.000 C 
ATOM      5  N   UNL     1       1.808   8.165  19.333  0.00  0.00    +0.000 N 
ATOM      6  C   UNL     1       2.593   7.289  18.565  0.00  0.00    +0.000 C 
ATOM      7  O   UNL     1       2.874   7.561  17.390  0.00  0.00    +0.000 OA
ATOM      8  C   UNL     1       1.434   9.470  18.769  0.00  0.00    +0.000 C 
ATOM      9  C   UNL     1       0.021   9.908  19.175  0.00  0.00    +0.000 C 
BRANCH   2  11
ATOM     10  C   UNL     1       0.259  12.345  20.795  0.00  0.00    +0.000 C 
ATOM     11  C   UNL     1       0.456  10.982  21.452  0.00  0.00    +0.000 C 
ENDBRANCH   2  11
ENDBRANCH   1   6
BRANCH   1  12
ATOM     12  N   UNL     1       3.938   5.256  18.157  0.00  0.00    +0.000 NA
ATOM     13  H   UNL     1       3.542   5.225  17.215  0.00  0.00    +0.000 HD
BRANCH  12  14
ATOM     14  S   UNL     1       5.617   5.248  18.215  0.00  0.00    +0.000 S 
ATOM     15  O   UNL     1       6.023   6.579  18.606  0.00  0.00    +0.000 OA
ATOM     16  O   UNL     1       6.025   4.080  18.962  0.00  0.00    +0.000 OA
BRANCH  14  17
ATOM     17  C   UNL     1       6.111   5.040  16.512  0.00  0.00    +0.000 A 
ATOM     18  C   UNL     1       7.347   5.513  16.062  0.00  0.00    +0.000 A 
ATOM     19  C   UNL     1       7.743   5.274  14.742  0.00  0.00    +0.000 A 
ATOM     20  C   UNL     1       6.907   4.585  13.853  0.00  0.00    +0.000 A 
ATOM     21  C   UNL     1       7.289   4.324  12.524  0.00  0.00    +0.000 A 
ATOM     22  C   UNL     1       6.439   3.643  11.653  0.00  0.00    +0.000 A 
ATOM     23  C   UNL     1       5.184   3.225  12.091  0.00  0.00    +0.000 A 
ATOM     24  C   UNL     1       4.787   3.472  13.408  0.00  0.00    +0.000 A 
ATOM     25  C   UNL     1       5.635   4.142  14.304  0.00  0.00    +0.000 A 
ATOM     26  C   UNL     1       5.248   4.374  15.636  0.00  0.00    +0.000 A 
ENDBRANCH  14  17
ENDBRANCH  12  14
ENDBRANCH   1  12
BRANCH   1  27
ATOM     27  C   UNL     1       2.037   4.995  19.677  0.00  0.00    +0.000 C 
BRANCH  27  28
ATOM     28  C   UNL     1       2.190   4.280  21.005  0.00  0.00    +0.000 C 
BRANCH  28  29
ATOM     29  C   UNL     1       2.250   2.771  20.891  0.00  0.00    +0.000 C 
BRANCH  29  30
ATOM     30  N   UNL     1       2.563   2.478  19.500  0.00  0.00    +0.000 NA
ATOM     31  C   UNL     1       3.731   2.046  19.224  0.00  0.00    +0.000 C 
ATOM     32  N   UNL     1       4.778   1.805  20.041  0.00  0.00    +0.000 N 
ATOM     33  N   UNL     1       4.062   1.790  17.943  0.00  0.00    +0.000 N 
ATOM     34  H   UNL     1       4.550   1.829  21.027  0.00  0.00    +0.000 HD
ATOM     35  H   UNL     1       5.240   0.933  19.809  0.00  0.00    +0.000 HD
ATOM     36  H   UNL     1       3.380   2.214  17.320  0.00  0.00    +0.000 HD
ATOM     37  H   UNL     1       5.001   2.086  17.713  0.00  0.00    +0.000 HD
ENDBRANCH  29  30
ENDBRANCH  28  29
ENDBRANCH  27  28
ENDBRANCH   1  27
TORSDOF 9
ENDMDL
MODEL 5
REMARK VINA RESULT:      -7.9      1.172      1.688
REMARK  Name = 
REMARK  10 active torsions:
REMARK  status: ('A' for Active; 'I' for Inactive)
REMARK    1  A    between atoms: C_1  and  C_2
REMARK    2  A    between atoms: C_2  and  C_3
REMARK    3  A    between atoms: C_7  and  C_9
REMARK    4  A    between atoms: C_9  and  C_10
REMARK    5  A    between atoms: C_9  and  N_17
REMARK    6  A    between atoms: C_10  and  C_11
REMARK    7  A    between atoms: C_11  and  C_12
REMARK    8  A    between atoms: C_12  and  N_13
REMARK    9  A    between atoms: N_17  and  S_18
REMARK   10  A    between atoms: S_18  and  C_21
REMARK                            x       y       z     vdW  Elec       q    Type
REMARK                         _______ _______ _______ _____ _____    ______ ____
ROOT
ATOM      1  C   UNL     1       3.072   6.075  18.957  0.00  0.00    +0.000 C 
ENDROOT
BRANCH   1   6
ATOM      2  C   UNL     1      -0.470   9.430  21.126  0.00  0.00    +0.000 C 
ATOM      3  C   UNL     1      -0.039   7.975  21.319  0.00  0.00    +0.000 C 
ATOM      4  C   UNL     1       1.403   7.705  20.885  0.00  0.00    +0.000 C 
ATOM      5  N   UNL     1       1.674   8.159  19.518  0.00  0.00    +0.000 N 
ATOM      6  C   UNL     1       2.516   7.499  18.608  0.00  0.00    +0.000 C 
ATOM      7  O   UNL     1       2.832   8.035  17.538  0.00  0.00    +0.000 OA
ATOM      8  C   UNL     1       1.278   9.549  19.245  0.00  0.00    +0.000 C 
ATOM      9  C   UNL     1      -0.163   9.850  19.676  0.00  0.00    +0.000 C 
BRANCH   2  11
ATOM     10  C   UNL     1      -0.887  11.191  22.937  0.00  0.00    +0.000 C 
ATOM     11  C   UNL     1       0.150  10.394  22.152  0.00  0.00    +0.000 C 
ENDBRANCH   2  11
ENDBRANCH   1   6
BRANCH   1  12
ATOM     12  N   UNL     1       4.567   6.176  19.000  0.00  0.00    +0.000 NA
ATOM     13  H   UNL     1       4.961   6.901  19.604  0.00  0.00    +0.000 HD
BRANCH  12  14
ATOM     14  S   UNL     1       5.536   4.817  18.808  0.00  0.00    +0.000 S 
ATOM     15  O   UNL     1       6.692   5.011  19.654  0.00  0.00    +0.000 OA
ATOM     16  O   UNL     1       4.690   3.652  18.937  0.00  0.00    +0.000 OA
BRANCH  14  17
ATOM     17  C   UNL     1       6.110   4.925  17.121  0.00  0.00    +0.000 A 
ATOM     18  C   UNL     1       7.183   5.755  16.781  0.00  0.00    +0.000 A 
ATOM     19  C   UNL     1       7.661   5.768  15.467  0.00  0.00    +0.000 A 
ATOM     20  C   UNL     1       7.065   4.975  14.477  0.00  0.00    +0.000 A 
ATOM     21  C   UNL     1       7.536   4.964  13.150  0.00  0.00    +0.000 A 
ATOM     22  C   UNL     1       6.924   4.174  12.178  0.00  0.00    +0.000 A 
ATOM     23  C   UNL     1       5.819   3.393  12.510  0.00  0.00    +0.000 A 
ATOM     24  C   UNL     1       5.337   3.388  13.822  0.00  0.00    +0.000 A 
ATOM     25  C   UNL     1       5.950   4.165  14.818  0.00  0.00    +0.000 A 
ATOM     26  C   UNL     1       5.482   4.147  16.144  0.00  0.00    +0.000 A 
ENDBRANCH  14  17
ENDBRANCH  12  14
ENDBRANCH   1  12
BRANCH   1  27
ATOM     27  C   UNL     1       2.709   4.983  17.943  0.00  0.00    +0.000 C 
BRANCH  27  28
ATOM     28  C   UNL     1       1.362   4.294  18.031  0.00  0.00    +0.000 C 
BRANCH  28  29
ATOM     29  C   UNL     1       1.435   2.852  18.489  0.00  0.00    +0.000 C 
BRANCH  29  30
ATOM     30  N   UNL     1       0.825   2.812  19.810  0.00  0.00    +0.000 NA
ATOM     31  C   UNL     1       1.592   2.728  20.825  0.00  0.00    +0.000 C 
ATOM     32  N   UNL     1       2.939   2.666  20.887  0.00  0.00    +0.000 N 
ATOM     33  N   UNL     1       1.058   2.662  22.061  0.00  0.00    +0.000 N 
ATOM     34  H   UNL     1       3.405   2.865  20.010  0.00  0.00    +0.000 HD
ATOM     35  H   UNL     1       3.307   3.258  21.623  0.00  0.00    +0.000 HD
ATOM     36  H   UNL     1       0.067   2.446  21.996  0.00  0.00    +0.000 HD
ATOM     37  H   UNL     1       1.538   2.005  22.661  0.00  0.00    +0.000 HD
ENDBRANCH  29  30
ENDBRANCH  28  29
ENDBRANCH  27  28
ENDBRANCH   1  27
TORSDOF 9
ENDMDL
MODEL 6
REMARK VINA RESULT:      -7.8      1.495      2.428
REMARK  Name = 
REMARK  10 active torsions:
REMARK  status: ('A' for Active; 'I' for Inactive)
REMARK    1  A    between atoms: C_1  and  C_2
REMARK    2  A    between atoms: C_2  and  C_3
REMARK    3  A    between atoms: C_7  and  C_9
REMARK    4  A    between atoms: C_9  and  C_10
REMARK    5  A    between atoms: C_9  and  N_17
REMARK    6  A    between atoms: C_10  and  C_11
REMARK    7  A    between atoms: C_11  and  C_12
REMARK    8  A    between atoms: C_12  and  N_13
REMARK    9  A    between atoms: N_17  and  S_18
REMARK   10  A    between atoms: S_18  and  C_21
REMARK                            x       y       z     vdW  Elec       q    Type
REMARK                         _______ _______ _______ _____ _____    ______ ____
ROOT
ATOM      1  C   UNL     1       3.433   5.265  19.075  0.00  0.00    +0.000 C 
ENDROOT
BRANCH   1   6
ATOM      2  C   UNL     1       1.200  10.102  18.723  0.00  0.00    +0.000 C 
ATOM      3  C   UNL     1       2.195   9.264  17.918  0.00  0.00    +0.000 C 
ATOM      4  C   UNL     1       2.014   7.756  18.107  0.00  0.00    +0.000 C 
ATOM      5  N   UNL     1       2.013   7.362  19.518  0.00  0.00    +0.000 N 
ATOM      6  C   UNL     1       2.569   6.173  20.017  0.00  0.00    +0.000 C 
ATOM      7  O   UNL     1       2.374   5.829  21.190  0.00  0.00    +0.000 OA
ATOM      8  C   UNL     1       1.089   8.129  20.368  0.00  0.00    +0.000 C 
ATOM      9  C   UNL     1       1.243   9.645  20.194  0.00  0.00    +0.000 C 
BRANCH   2  11
ATOM     10  C   UNL     1      -1.252  10.763  19.047  0.00  0.00    +0.000 C 
ATOM     11  C   UNL     1      -0.227  10.076  18.150  0.00  0.00    +0.000 C 
ENDBRANCH   2  11
ENDBRANCH   1   6
BRANCH   1  12
ATOM     12  N   UNL     1       4.527   6.120  18.509  0.00  0.00    +0.000 NA
ATOM     13  H   UNL     1       4.463   7.125  18.687  0.00  0.00    +0.000 HD
BRANCH  12  14
ATOM     14  S   UNL     1       6.093   5.534  18.347  0.00  0.00    +0.000 S 
ATOM     15  O   UNL     1       6.967   6.685  18.339  0.00  0.00    +0.000 OA
ATOM     16  O   UNL     1       6.261   4.461  19.301  0.00  0.00    +0.000 OA
BRANCH  14  17
ATOM     17  C   UNL     1       6.134   4.847  16.700  0.00  0.00    +0.000 A 
ATOM     18  C   UNL     1       5.328   3.755  16.359  0.00  0.00    +0.000 A 
ATOM     19  C   UNL     1       5.322   3.281  15.043  0.00  0.00    +0.000 A 
ATOM     20  C   UNL     1       6.133   3.870  14.063  0.00  0.00    +0.000 A 
ATOM     21  C   UNL     1       6.136   3.415  12.730  0.00  0.00    +0.000 A 
ATOM     22  C   UNL     1       6.956   4.009  11.771  0.00  0.00    +0.000 A 
ATOM     23  C   UNL     1       7.799   5.059  12.131  0.00  0.00    +0.000 A 
ATOM     24  C   UNL     1       7.809   5.526  13.448  0.00  0.00    +0.000 A 
ATOM     25  C   UNL     1       6.980   4.950  14.424  0.00  0.00    +0.000 A 
ATOM     26  C   UNL     1       6.971   5.431  15.745  0.00  0.00    +0.000 A 
ENDBRANCH  14  17
ENDBRANCH  12  14
ENDBRANCH   1  12
BRANCH   1  27
ATOM     27  C   UNL     1       2.665   4.655  17.896  0.00  0.00    +0.000 C 
BRANCH  27  28
ATOM     28  C   UNL     1       1.416   3.836  18.157  0.00  0.00    +0.000 C 
BRANCH  28  29
ATOM     29  C   UNL     1       1.691   2.412  18.593  0.00  0.00    +0.000 C 
BRANCH  29  30
ATOM     30  N   UNL     1       2.868   2.466  19.449  0.00  0.00    +0.000 NA
ATOM     31  C   UNL     1       3.854   1.711  19.163  0.00  0.00    +0.000 C 
ATOM     32  N   UNL     1       4.001   0.825  18.156  0.00  0.00    +0.000 N 
ATOM     33  N   UNL     1       4.948   1.717  19.951  0.00  0.00    +0.000 N 
ATOM     34  H   UNL     1       3.283   0.882  17.444  0.00  0.00    +0.000 HD
ATOM     35  H   UNL     1       4.921   0.889  17.734  0.00  0.00    +0.000 HD
ATOM     36  H   UNL     1       4.735   2.175  20.833  0.00  0.00    +0.000 HD
ATOM     37  H   UNL     1       5.330   0.793  20.101  0.00  0.00    +0.000 HD
ENDBRANCH  29  30
ENDBRANCH  28  29
ENDBRANCH  27  28
ENDBRANCH   1  27
TORSDOF 9
ENDMDL
MODEL 7
REMARK VINA RESULT:      -7.8      1.399      2.180
REMARK  Name = 
REMARK  10 active torsions:
REMARK  status: ('A' for Active; 'I' for Inactive)
REMARK    1  A    between atoms: C_1  and  C_2
REMARK    2  A    between atoms: C_2  and  C_3
REMARK    3  A    between atoms: C_7  and  C_9
REMARK    4  A    between atoms: C_9  and  C_10
REMARK    5  A    between atoms: C_9  and  N_17
REMARK    6  A    between atoms: C_10  and  C_11
REMARK    7  A    between atoms: C_11  and  C_12
REMARK    8  A    between atoms: C_12  and  N_13
REMARK    9  A    between atoms: N_17  and  S_18
REMARK   10  A    between atoms: S_18  and  C_21
REMARK                            x       y       z     vdW  Elec       q    Type
REMARK                         _______ _______ _______ _____ _____    ______ ____
ROOT
ATOM      1  C   UNL     1       3.225   6.914  18.428  0.00  0.00    +0.000 C 
ENDROOT
BRANCH   1   6
ATOM      2  C   UNL     1      -0.523   9.415  21.291  0.00  0.00    +0.000 C 
ATOM      3  C   UNL     1       0.162   8.048  21.291  0.00  0.00    +0.000 C 
ATOM      4  C   UNL     1       1.564   8.070  20.678  0.00  0.00    +0.000 C 
ATOM      5  N   UNL     1       1.584   8.671  19.342  0.00  0.00    +0.000 N 
ATOM      6  C   UNL     1       2.403   8.241  18.284  0.00  0.00    +0.000 C 
ATOM      7  O   UNL     1       2.491   8.907  17.244  0.00  0.00    +0.000 OA
ATOM      8  C   UNL     1       0.934   9.987  19.251  0.00  0.00    +0.000 C 
ATOM      9  C   UNL     1      -0.472   9.996  19.865  0.00  0.00    +0.000 C 
BRANCH   2  11
ATOM     10  C   UNL     1      -0.992  11.334  22.920  0.00  0.00    +0.000 C 
ATOM     11  C   UNL     1       0.052  10.389  22.334  0.00  0.00    +0.000 C 
ENDBRANCH   2  11
ENDBRANCH   1   6
BRANCH   1  12
ATOM     12  N   UNL     1       4.558   7.141  17.780  0.00  0.00    +0.000 NA
ATOM     13  H   UNL     1       4.840   8.114  17.638  0.00  0.00    +0.000 HD
BRANCH  12  14
ATOM     14  S   UNL     1       5.830   6.067  18.011  0.00  0.00    +0.000 S 
ATOM     15  O   UNL     1       7.032   6.865  18.102  0.00  0.00    +0.000 OA
ATOM     16  O   UNL     1       5.447   5.151  19.061  0.00  0.00    +0.000 OA
BRANCH  14  17
ATOM     17  C   UNL     1       5.926   5.168  16.472  0.00  0.00    +0.000 A 
ATOM     18  C   UNL     1       5.132   4.038  16.251  0.00  0.00    +0.000 A 
ATOM     19  C   UNL     1       5.171   3.393  15.011  0.00  0.00    +0.000 A 
ATOM     20  C   UNL     1       6.014   3.850  13.989  0.00  0.00    +0.000 A 
ATOM     21  C   UNL     1       6.062   3.222  12.729  0.00  0.00    +0.000 A 
ATOM     22  C   UNL     1       6.914   3.688  11.728  0.00  0.00    +0.000 A 
ATOM     23  C   UNL     1       7.745   4.779  11.974  0.00  0.00    +0.000 A 
ATOM     24  C   UNL     1       7.711   5.417  13.217  0.00  0.00    +0.000 A 
ATOM     25  C   UNL     1       6.849   4.972  14.232  0.00  0.00    +0.000 A 
ATOM     26  C   UNL     1       6.795   5.625  15.476  0.00  0.00    +0.000 A 
ENDBRANCH  14  17
ENDBRANCH  12  14
ENDBRANCH   1  12
BRANCH   1  27
ATOM     27  C   UNL     1       2.585   5.692  17.757  0.00  0.00    +0.000 C 
BRANCH  27  28
ATOM     28  C   UNL     1       1.737   4.743  18.579  0.00  0.00    +0.000 C 
BRANCH  28  29
ATOM     29  C   UNL     1       2.192   3.299  18.520  0.00  0.00    +0.000 C 
BRANCH  29  30
ATOM     30  N   UNL     1       2.767   2.997  19.822  0.00  0.00    +0.000 NA
ATOM     31  C   UNL     1       1.973   2.819  20.804  0.00  0.00    +0.000 C 
ATOM     32  N   UNL     1       0.625   2.867  20.844  0.00  0.00    +0.000 N 
ATOM     33  N   UNL     1       2.474   2.564  22.029  0.00  0.00    +0.000 N 
ATOM     34  H   UNL     1       0.182   2.901  19.934  0.00  0.00    +0.000 HD
ATOM     35  H   UNL     1       0.240   2.106  21.394  0.00  0.00    +0.000 HD
ATOM     36  H   UNL     1       3.465   2.787  22.048  0.00  0.00    +0.000 HD
ATOM     37  H   UNL     1       1.976   3.046  22.765  0.00  0.00    +0.000 HD
ENDBRANCH  29  30
ENDBRANCH  28  29
ENDBRANCH  27  28
ENDBRANCH   1  27
TORSDOF 9
ENDMDL
MODEL 8
REMARK VINA RESULT:      -7.6      1.633      7.991
REMARK  Name = 
REMARK  10 active torsions:
REMARK  status: ('A' for Active; 'I' for Inactive)
REMARK    1  A    between atoms: C_1  and  C_2
REMARK    2  A    between atoms: C_2  and  C_3
REMARK    3  A    between atoms: C_7  and  C_9
REMARK    4  A    between atoms: C_9  and  C_10
REMARK    5  A    between atoms: C_9  and  N_17
REMARK    6  A    between atoms: C_10  and  C_11
REMARK    7  A    between atoms: C_11  and  C_12
REMARK    8  A    between atoms: C_12  and  N_13
REMARK    9  A    between atoms: N_17  and  S_18
REMARK   10  A    between atoms: S_18  and  C_21
REMARK                            x       y       z     vdW  Elec       q    Type
REMARK                         _______ _______ _______ _____ _____    ______ ____
ROOT
ATOM      1  C   UNL     1       3.525   5.554  19.306  0.00  0.00    +0.000 C 
ENDROOT
BRANCH   1   6
ATOM      2  C   UNL     1       6.425   4.228  15.024  0.00  0.00    +0.000 C 
ATOM      3  C   UNL     1       4.949   4.220  15.426  0.00  0.00    +0.000 C 
ATOM      4  C   UNL     1       4.604   5.260  16.494  0.00  0.00    +0.000 C 
ATOM      5  N   UNL     1       5.472   5.166  17.671  0.00  0.00    +0.000 N 
ATOM      6  C   UNL     1       5.052   5.387  18.993  0.00  0.00    +0.000 C 
ATOM      7  O   UNL     1       5.878   5.463  19.912  0.00  0.00    +0.000 OA
ATOM      8  C   UNL     1       6.912   5.157  17.371  0.00  0.00    +0.000 C 
ATOM      9  C   UNL     1       7.286   4.128  16.298  0.00  0.00    +0.000 C 
BRANCH   2  11
ATOM     10  C   UNL     1       7.920   5.122  13.148  0.00  0.00    +0.000 C 
ATOM     11  C   UNL     1       6.817   5.434  14.153  0.00  0.00    +0.000 C 
ENDBRANCH   2  11
ENDBRANCH   1   6
BRANCH   1  12
ATOM     12  N   UNL     1       3.247   7.024  19.410  0.00  0.00    +0.000 NA
ATOM     13  H   UNL     1       3.966   7.596  19.858  0.00  0.00    +0.000 HD
BRANCH  12  14
ATOM     14  S   UNL     1       2.340   7.821  18.241  0.00  0.00    +0.000 S 
ATOM     15  O   UNL     1       3.278   8.545  17.413  0.00  0.00    +0.000 OA
ATOM     16  O   UNL     1       1.412   6.867  17.678  0.00  0.00    +0.000 OA
BRANCH  14  17
ATOM     17  C   UNL     1       1.419   9.041  19.162  0.00  0.00    +0.000 A 
ATOM     18  C   UNL     1       1.060  10.260  18.576  0.00  0.00    +0.000 A 
ATOM     19  C   UNL     1       0.276  11.170  19.293  0.00  0.00    +0.000 A 
ATOM     20  C   UNL     1      -0.138  10.889  20.602  0.00  0.00    +0.000 A 
ATOM     21  C   UNL     1      -0.936  11.785  21.338  0.00  0.00    +0.000 A 
ATOM     22  C   UNL     1      -1.331  11.490  22.642  0.00  0.00    +0.000 A 
ATOM     23  C   UNL     1      -0.922  10.299  23.240  0.00  0.00    +0.000 A 
ATOM     24  C   UNL     1      -0.131   9.395  22.526  0.00  0.00    +0.000 A 
ATOM     25  C   UNL     1       0.263   9.668  21.206  0.00  0.00    +0.000 A 
ATOM     26  C   UNL     1       1.041   8.752  20.476  0.00  0.00    +0.000 A 
ENDBRANCH  14  17
ENDBRANCH  12  14
ENDBRANCH   1  12
BRANCH   1  27
ATOM     27  C   UNL     1       3.068   4.902  20.617  0.00  0.00    +0.000 C 
BRANCH  27  28
ATOM     28  C   UNL     1       1.820   4.041  20.632  0.00  0.00    +0.000 C 
BRANCH  28  29
ATOM     29  C   UNL     1       2.097   2.553  20.681  0.00  0.00    +0.000 C 
BRANCH  29  30
ATOM     30  N   UNL     1       2.460   2.159  19.328  0.00  0.00    +0.000 NA
ATOM     31  C   UNL     1       3.683   1.891  19.087  0.00  0.00    +0.000 C 
ATOM     32  N   UNL     1       4.752   1.914  19.911  0.00  0.00    +0.000 N 
ATOM     33  N   UNL     1       4.057   1.549  17.838  0.00  0.00    +0.000 N 
ATOM     34  H   UNL     1       4.518   2.012  20.892  0.00  0.00    +0.000 HD
ATOM     35  H   UNL     1       5.349   1.106  19.772  0.00  0.00    +0.000 HD
ATOM     36  H   UNL     1       3.319   1.785  17.181  0.00  0.00    +0.000 HD
ATOM     37  H   UNL     1       4.938   1.963  17.564  0.00  0.00    +0.000 HD
ENDBRANCH  29  30
ENDBRANCH  28  29
ENDBRANCH  27  28
ENDBRANCH   1  27
TORSDOF 9
ENDMDL
MODEL 9
REMARK VINA RESULT:      -7.5      2.203      8.021
REMARK  Name = 
REMARK  10 active torsions:
REMARK  status: ('A' for Active; 'I' for Inactive)
REMARK    1  A    between atoms: C_1  and  C_2
REMARK    2  A    between atoms: C_2  and  C_3
REMARK    3  A    between atoms: C_7  and  C_9
REMARK    4  A    between atoms: C_9  and  C_10
REMARK    5  A    between atoms: C_9  and  N_17
REMARK    6  A    between atoms: C_10  and  C_11
REMARK    7  A    between atoms: C_11  and  C_12
REMARK    8  A    between atoms: C_12  and  N_13
REMARK    9  A    between atoms: N_17  and  S_18
REMARK   10  A    between atoms: S_18  and  C_21
REMARK                            x       y       z     vdW  Elec       q    Type
REMARK                         _______ _______ _______ _____ _____    ______ ____
ROOT
ATOM      1  C   UNL     1       1.820   5.853  19.068  0.00  0.00    +0.000 C 
ENDROOT
BRANCH   1   6
ATOM      2  C   UNL     1       6.439   5.585  16.404  0.00  0.00    +0.000 C 
ATOM      3  C   UNL     1       5.789   6.513  17.432  0.00  0.00    +0.000 C 
ATOM      4  C   UNL     1       4.750   5.814  18.311  0.00  0.00    +0.000 C 
ATOM      5  N   UNL     1       3.737   5.102  17.527  0.00  0.00    +0.000 N 
ATOM      6  C   UNL     1       2.380   5.002  17.876  0.00  0.00    +0.000 C 
ATOM      7  O   UNL     1       1.625   4.240  17.259  0.00  0.00    +0.000 OA
ATOM      8  C   UNL     1       4.279   4.194  16.505  0.00  0.00    +0.000 C 
ATOM      9  C   UNL     1       5.330   4.867  15.612  0.00  0.00    +0.000 C 
BRANCH   2  11
ATOM     10  C   UNL     1       7.944   5.021  18.397  0.00  0.00    +0.000 C 
ATOM     11  C   UNL     1       7.444   4.596  17.020  0.00  0.00    +0.000 C 
ENDBRANCH   2  11
ENDBRANCH   1   6
BRANCH   1  12
ATOM     12  N   UNL     1       2.552   7.162  19.066  0.00  0.00    +0.000 NA
ATOM     13  H   UNL     1       3.566   7.121  18.941  0.00  0.00    +0.000 HD
BRANCH  12  14
ATOM     14  S   UNL     1       1.829   8.561  18.481  0.00  0.00    +0.000 S 
ATOM     15  O   UNL     1       2.896   9.501  18.222  0.00  0.00    +0.000 OA
ATOM     16  O   UNL     1       0.892   8.174  17.450  0.00  0.00    +0.000 OA
BRANCH  14  17
ATOM     17  C   UNL     1       0.914   9.195  19.877  0.00  0.00    +0.000 A 
ATOM     18  C   UNL     1       1.073   8.638  21.150  0.00  0.00    +0.000 A 
ATOM     19  C   UNL     1       0.401   9.198  22.241  0.00  0.00    +0.000 A 
ATOM     20  C   UNL     1      -0.452  10.298  22.074  0.00  0.00    +0.000 A 
ATOM     21  C   UNL     1      -1.130  10.884  23.160  0.00  0.00    +0.000 A 
ATOM     22  C   UNL     1      -1.980  11.974  22.971  0.00  0.00    +0.000 A 
ATOM     23  C   UNL     1      -2.179  12.487  21.691  0.00  0.00    +0.000 A 
ATOM     24  C   UNL     1      -1.513  11.921  20.600  0.00  0.00    +0.000 A 
ATOM     25  C   UNL     1      -0.642  10.834  20.773  0.00  0.00    +0.000 A 
ATOM     26  C   UNL     1       0.047  10.275  19.682  0.00  0.00    +0.000 A 
ENDBRANCH  14  17
ENDBRANCH  12  14
ENDBRANCH   1  12
BRANCH   1  27
ATOM     27  C   UNL     1       2.011   5.218  20.451  0.00  0.00    +0.000 C 
BRANCH  27  28
ATOM     28  C   UNL     1       1.307   3.917  20.783  0.00  0.00    +0.000 C 
BRANCH  28  29
ATOM     29  C   UNL     1       2.182   2.905  21.492  0.00  0.00    +0.000 C 
BRANCH  29  30
ATOM     30  N   UNL     1       3.282   2.609  20.586  0.00  0.00    +0.000 NA
ATOM     31  C   UNL     1       3.022   1.972  19.512  0.00  0.00    +0.000 C 
ATOM     32  N   UNL     1       1.845   1.500  19.051  0.00  0.00    +0.000 N 
ATOM     33  N   UNL     1       4.022   1.658  18.665  0.00  0.00    +0.000 N 
ATOM     34  H   UNL     1       1.035   1.833  19.560  0.00  0.00    +0.000 HD
ATOM     35  H   UNL     1       1.734   1.679  18.059  0.00  0.00    +0.000 HD
ATOM     36  H   UNL     1       4.918   1.777  19.131  0.00  0.00    +0.000 HD
ATOM     37  H   UNL     1       3.932   0.729  18.277  0.00  0.00    +0.000 HD
ENDBRANCH  29  30
ENDBRANCH  28  29
ENDBRANCH  27  28
ENDBRANCH   1  27
TORSDOF 9
ENDMDL
