MODEL 1
REMARK VINA RESULT:      -6.9      0.000      0.000
REMARK  Name = 
REMARK  3 active torsions:
REMARK  status: ('A' for Active; 'I' for Inactive)
REMARK    1  A    between atoms: C_4  and  C_5
REMARK    2  A    between atoms: N_7  and  C_8
REMARK    3  A    between atoms: C_8  and  C_9
REMARK                            x       y       z     vdW  Elec       q    Type
REMARK                         _______ _______ _______ _____ _____    ______ ____
ROOT
ATOM      1  C   UNL     1       7.626   5.550  18.621  0.00  0.00    +0.000 C 
ENDROOT
BRANCH   1   2
ATOM      2  C   UNL     1       6.315   5.053  18.112  0.00  0.00    +0.000 A 
ATOM      3  C   UNL     1       6.097   4.365  16.936  0.00  0.00    +0.000 A 
ATOM      4  S   UNL     1       4.443   3.986  16.773  0.00  0.00    +0.000 S 
ATOM      5  C   UNL     1       4.102   4.765  18.288  0.00  0.00    +0.000 A 
ATOM      6  N   UNL     1       2.843   4.805  18.803  0.00  0.00    +0.000 N 
ATOM      7  C   UNL     1       2.573   5.567  20.020  0.00  0.00    +0.000 C 
ATOM      8  C   UNL     1       1.788   4.604  20.904  0.00  0.00    +0.000 C 
ATOM      9  C   UNL     1       1.019   3.766  19.899  0.00  0.00    +0.000 C 
ATOM     10  C   UNL     1       2.013   3.599  18.754  0.00  0.00    +0.000 C 
ATOM     11  N   UNL     1       5.164   5.309  18.849  0.00  0.00    +0.000 NA
ENDBRANCH   1   2
BRANCH   1  14
ATOM     12  C   UNL     1       8.327   9.040  18.209  0.00  0.00    +0.000 A 
ATOM     13  C   UNL     1       8.566   7.882  18.915  0.00  0.00    +0.000 A 
ATOM     14  N   UNL     1       7.841   6.938  18.251  0.00  0.00    +0.000 N 
ATOM     15  N   UNL     1       7.207   7.469  17.184  0.00  0.00    +0.000 NA
ATOM     16  N   UNL     1       7.507   8.762  17.146  0.00  0.00    +0.000 NA
BRANCH  12  20
ATOM     17  C   UNL     1       9.392  12.516  18.300  0.00  0.00    +0.000 A 
ATOM     18  C   UNL     1       9.887  12.336  19.573  0.00  0.00    +0.000 A 
ATOM     19  S   UNL     1       9.584  10.729  20.086  0.00  0.00    +0.000 S 
ATOM     20  C   UNL     1       8.847  10.393  18.569  0.00  0.00    +0.000 A 
ATOM     21  N   UNL     1       8.796  11.409  17.729  0.00  0.00    +0.000 NA
ENDBRANCH  12  20
ENDBRANCH   1  14
TORSDOF 3
ENDMDL
MODEL 2
REMARK VINA RESULT:      -6.8      0.961      1.038
REMARK  Name = 
REMARK  3 active torsions:
REMARK  status: ('A' for Active; 'I' for Inactive)
REMARK    1  A    between atoms: C_4  and  C_5
REMARK    2  A    between atoms: N_7  and  C_8
REMARK    3  A    between atoms: C_8  and  C_9
REMARK                            x       y       z     vdW  Elec       q    Type
REMARK                         _______ _______ _______ _____ _____    ______ ____
ROOT
ATOM      1  C   UNL     1       7.470   5.144  18.375  0.00  0.00    +0.000 C 
ENDROOT
BRANCH   1   2
ATOM      2  C   UNL     1       6.081   4.742  18.009  0.00  0.00    +0.000 A 
ATOM      3  C   UNL     1       5.663   4.242  16.793  0.00  0.00    +0.000 A 
ATOM      4  S   UNL     1       3.992   3.907  16.835  0.00  0.00    +0.000 S 
ATOM      5  C   UNL     1       3.913   4.451  18.484  0.00  0.00    +0.000 A 
ATOM      6  N   UNL     1       2.749   4.426  19.189  0.00  0.00    +0.000 N 
ATOM      7  C   UNL     1       2.694   4.997  20.533  0.00  0.00    +0.000 C 
ATOM      8  C   UNL     1       2.022   3.918  21.376  0.00  0.00    +0.000 C 
ATOM      9  C   UNL     1       1.081   3.249  20.391  0.00  0.00    +0.000 C 
ATOM     10  C   UNL     1       1.882   3.248  19.093  0.00  0.00    +0.000 C 
ATOM     11  N   UNL     1       5.065   4.895  18.946  0.00  0.00    +0.000 NA
ENDBRANCH   1   2
BRANCH   1  14
ATOM     12  C   UNL     1       8.212   8.643  18.143  0.00  0.00    +0.000 A 
ATOM     13  C   UNL     1       8.420   7.451  18.802  0.00  0.00    +0.000 A 
ATOM     14  N   UNL     1       7.707   6.545  18.075  0.00  0.00    +0.000 N 
ATOM     15  N   UNL     1       7.109   7.130  17.015  0.00  0.00    +0.000 NA
ATOM     16  N   UNL     1       7.421   8.421  17.045  0.00  0.00    +0.000 NA
BRANCH  12  20
ATOM     17  C   UNL     1       9.747  11.453  19.866  0.00  0.00    +0.000 A 
ATOM     18  C   UNL     1       9.260  12.313  18.907  0.00  0.00    +0.000 A 
ATOM     19  S   UNL     1       8.409  11.423  17.715  0.00  0.00    +0.000 S 
ATOM     20  C   UNL     1       8.731   9.972  18.580  0.00  0.00    +0.000 A 
ATOM     21  N   UNL     1       9.449  10.118  19.678  0.00  0.00    +0.000 NA
ENDBRANCH  12  20
ENDBRANCH   1  14
TORSDOF 3
ENDMDL
MODEL 3
REMARK VINA RESULT:      -6.6      4.467      6.552
REMARK  Name = 
REMARK  3 active torsions:
REMARK  status: ('A' for Active; 'I' for Inactive)
REMARK    1  A    between atoms: C_4  and  C_5
REMARK    2  A    between atoms: N_7  and  C_8
REMARK    3  A    between atoms: C_8  and  C_9
REMARK                            x       y       z     vdW  Elec       q    Type
REMARK                         _______ _______ _______ _____ _____    ______ ____
ROOT
ATOM      1  C   UNL     1       2.490   6.621  19.886  0.00  0.00    +0.000 C 
ENDROOT
BRANCH   1   2
ATOM      2  C   UNL     1       2.797   5.554  18.889  0.00  0.00    +0.000 A 
ATOM      3  C   UNL     1       1.912   4.626  18.380  0.00  0.00    +0.000 A 
ATOM      4  S   UNL     1       2.701   3.613  17.258  0.00  0.00    +0.000 S 
ATOM      5  C   UNL     1       4.190   4.471  17.512  0.00  0.00    +0.000 A 
ATOM      6  N   UNL     1       5.327   4.144  16.838  0.00  0.00    +0.000 N 
ATOM      7  C   UNL     1       6.587   4.810  17.160  0.00  0.00    +0.000 C 
ATOM      8  C   UNL     1       7.144   5.242  15.807  0.00  0.00    +0.000 C 
ATOM      9  C   UNL     1       6.643   4.159  14.869  0.00  0.00    +0.000 C 
ATOM     10  C   UNL     1       5.248   3.856  15.403  0.00  0.00    +0.000 C 
ATOM     11  N   UNL     1       4.099   5.426  18.416  0.00  0.00    +0.000 NA
ENDBRANCH   1   2
BRANCH   1  14
ATOM     12  C   UNL     1       1.225   9.728  18.624  0.00  0.00    +0.000 A 
ATOM     13  C   UNL     1       1.317   8.855  19.686  0.00  0.00    +0.000 A 
ATOM     14  N   UNL     1       2.136   7.866  19.228  0.00  0.00    +0.000 N 
ATOM     15  N   UNL     1       2.548   8.117  17.967  0.00  0.00    +0.000 NA
ATOM     16  N   UNL     1       1.997   9.266  17.590  0.00  0.00    +0.000 NA
BRANCH  12  20
ATOM     17  C   UNL     1      -1.423  12.201  18.313  0.00  0.00    +0.000 A 
ATOM     18  C   UNL     1      -0.518  13.208  18.564  0.00  0.00    +0.000 A 
ATOM     19  S   UNL     1       1.031  12.532  18.850  0.00  0.00    +0.000 S 
ATOM     20  C   UNL     1       0.383  10.960  18.592  0.00  0.00    +0.000 A 
ATOM     21  N   UNL     1      -0.910  10.919  18.332  0.00  0.00    +0.000 NA
ENDBRANCH  12  20
ENDBRANCH   1  14
TORSDOF 3
ENDMDL
MODEL 4
REMARK VINA RESULT:      -6.5      1.183      1.313
REMARK  Name = 
REMARK  3 active torsions:
REMARK  status: ('A' for Active; 'I' for Inactive)
REMARK    1  A    between atoms: C_4  and  C_5
REMARK    2  A    between atoms: N_7  and  C_8
REMARK    3  A    between atoms: C_8  and  C_9
REMARK                            x       y       z     vdW  Elec       q    Type
REMARK                         _______ _______ _______ _____ _____    ______ ____
ROOT
ATOM      1  C   UNL     1       7.785   6.079  18.792  0.00  0.00    +0.000 C 
ENDROOT
BRANCH   1   2
ATOM      2  C   UNL     1       6.757   5.414  17.940  0.00  0.00    +0.000 A 
ATOM      3  C   UNL     1       6.986   4.691  16.787  0.00  0.00    +0.000 A 
ATOM      4  S   UNL     1       5.515   4.103  16.158  0.00  0.00    +0.000 S 
ATOM      5  C   UNL     1       4.644   4.847  17.464  0.00  0.00    +0.000 A 
ATOM      6  N   UNL     1       3.293   4.732  17.578  0.00  0.00    +0.000 N 
ATOM      7  C   UNL     1       2.581   5.465  18.622  0.00  0.00    +0.000 C 
ATOM      8  C   UNL     1       1.686   4.419  19.278  0.00  0.00    +0.000 C 
ATOM      9  C   UNL     1       1.360   3.479  18.131  0.00  0.00    +0.000 C 
ATOM     10  C   UNL     1       2.665   3.429  17.343  0.00  0.00    +0.000 C 
ATOM     11  N   UNL     1       5.415   5.528  18.289  0.00  0.00    +0.000 NA
ENDBRANCH   1   2
BRANCH   1  14
ATOM     12  C   UNL     1       8.555   9.532  18.223  0.00  0.00    +0.000 A 
ATOM     13  C   UNL     1       8.804   8.391  18.951  0.00  0.00    +0.000 A 
ATOM     14  N   UNL     1       8.015   7.447  18.364  0.00  0.00    +0.000 N 
ATOM     15  N   UNL     1       7.333   7.963  17.319  0.00  0.00    +0.000 NA
ATOM     16  N   UNL     1       7.666   9.245  17.220  0.00  0.00    +0.000 NA
BRANCH  12  20
ATOM     17  C   UNL     1      10.394  12.402  19.492  0.00  0.00    +0.000 A 
ATOM     18  C   UNL     1       9.666  13.236  18.673  0.00  0.00    +0.000 A 
ATOM     19  S   UNL     1       8.571  12.310  17.734  0.00  0.00    +0.000 S 
ATOM     20  C   UNL     1       9.132  10.880  18.507  0.00  0.00    +0.000 A 
ATOM     21  N   UNL     1      10.093  11.058  19.394  0.00  0.00    +0.000 NA
ENDBRANCH  12  20
ENDBRANCH   1  14
TORSDOF 3
ENDMDL
MODEL 5
REMARK VINA RESULT:      -6.5      4.466      6.686
REMARK  Name = 
REMARK  3 active torsions:
REMARK  status: ('A' for Active; 'I' for Inactive)
REMARK    1  A    between atoms: C_4  and  C_5
REMARK    2  A    between atoms: N_7  and  C_8
REMARK    3  A    between atoms: C_8  and  C_9
REMARK                            x       y       z     vdW  Elec       q    Type
REMARK                         _______ _______ _______ _____ _____    ______ ____
ROOT
ATOM      1  C   UNL     1       2.074   5.668  20.649  0.00  0.00    +0.000 C 
ENDROOT
BRANCH   1   2
ATOM      2  C   UNL     1       2.515   4.901  19.448  0.00  0.00    +0.000 A 
ATOM      3  C   UNL     1       1.717   4.139  18.620  0.00  0.00    +0.000 A 
ATOM      4  S   UNL     1       2.649   3.458  17.366  0.00  0.00    +0.000 S 
ATOM      5  C   UNL     1       4.077   4.221  17.996  0.00  0.00    +0.000 A 
ATOM      6  N   UNL     1       5.287   4.084  17.387  0.00  0.00    +0.000 N 
ATOM      7  C   UNL     1       6.486   4.644  18.008  0.00  0.00    +0.000 C 
ATOM      8  C   UNL     1       7.169   5.417  16.884  0.00  0.00    +0.000 C 
ATOM      9  C   UNL     1       6.801   4.618  15.647  0.00  0.00    +0.000 C 
ATOM     10  C   UNL     1       5.367   4.184  15.928  0.00  0.00    +0.000 C 
ATOM     11  N   UNL     1       3.863   4.904  19.103  0.00  0.00    +0.000 NA
ENDBRANCH   1   2
BRANCH   1  14
ATOM     12  C   UNL     1       1.085   9.087  20.227  0.00  0.00    +0.000 A 
ATOM     13  C   UNL     1       1.145   7.988  21.054  0.00  0.00    +0.000 A 
ATOM     14  N   UNL     1       1.820   7.059  20.319  0.00  0.00    +0.000 N 
ATOM     15  N   UNL     1       2.179   7.555  19.116  0.00  0.00    +0.000 NA
ATOM     16  N   UNL     1       1.737   8.806  19.054  0.00  0.00    +0.000 NA
BRANCH  12  20
ATOM     17  C   UNL     1      -0.132  12.196  21.667  0.00  0.00    +0.000 A 
ATOM     18  C   UNL     1      -1.086  12.286  20.677  0.00  0.00    +0.000 A 
ATOM     19  S   UNL     1      -0.920  10.966  19.596  0.00  0.00    +0.000 S 
ATOM     20  C   UNL     1       0.385  10.366  20.542  0.00  0.00    +0.000 A 
ATOM     21  N   UNL     1       0.709  11.104  21.588  0.00  0.00    +0.000 NA
ENDBRANCH  12  20
ENDBRANCH   1  14
TORSDOF 3
ENDMDL
MODEL 6
REMARK VINA RESULT:      -6.5      4.001      6.518
REMARK  Name = 
REMARK  3 active torsions:
REMARK  status: ('A' for Active; 'I' for Inactive)
REMARK    1  A    between atoms: C_4  and  C_5
REMARK    2  A    between atoms: N_7  and  C_8
REMARK    3  A    between atoms: C_8  and  C_9
REMARK                            x       y       z     vdW  Elec       q    Type
REMARK                         _______ _______ _______ _____ _____    ______ ____
ROOT
ATOM      1  C   UNL     1       6.932   4.861  17.327  0.00  0.00    +0.000 C 
ENDROOT
BRANCH   1   2
ATOM      2  C   UNL     1       5.649   5.301  17.949  0.00  0.00    +0.000 A 
ATOM      3  C   UNL     1       5.046   6.533  17.806  0.00  0.00    +0.000 A 
ATOM      4  S   UNL     1       3.586   6.581  18.685  0.00  0.00    +0.000 S 
ATOM      5  C   UNL     1       3.837   4.945  19.213  0.00  0.00    +0.000 A 
ATOM      6  N   UNL     1       2.936   4.306  20.009  0.00  0.00    +0.000 N 
ATOM      7  C   UNL     1       3.233   2.972  20.528  0.00  0.00    +0.000 C 
ATOM      8  C   UNL     1       1.980   2.158  20.220  0.00  0.00    +0.000 C 
ATOM      9  C   UNL     1       0.870   3.189  20.315  0.00  0.00    +0.000 C 
ATOM     10  C   UNL     1       1.506   4.439  19.718  0.00  0.00    +0.000 C 
ATOM     11  N   UNL     1       4.969   4.423  18.786  0.00  0.00    +0.000 NA
ENDBRANCH   1   2
BRANCH   1  14
ATOM     12  C   UNL     1       6.366   4.155  13.860  0.00  0.00    +0.000 A 
ATOM     13  C   UNL     1       5.986   3.944  15.166  0.00  0.00    +0.000 A 
ATOM     14  N   UNL     1       6.808   4.760  15.884  0.00  0.00    +0.000 N 
ATOM     15  N   UNL     1       7.634   5.456  15.074  0.00  0.00    +0.000 NA
ATOM     16  N   UNL     1       7.363   5.095  13.825  0.00  0.00    +0.000 NA
BRANCH  12  20
ATOM     17  C   UNL     1       4.316   2.849  11.154  0.00  0.00    +0.000 A 
ATOM     18  C   UNL     1       5.329   1.986  10.798  0.00  0.00    +0.000 A 
ATOM     19  S   UNL     1       6.682   2.232  11.821  0.00  0.00    +0.000 S 
ATOM     20  C   UNL     1       5.807   3.444  12.673  0.00  0.00    +0.000 A 
ATOM     21  N   UNL     1       4.590   3.682  12.221  0.00  0.00    +0.000 NA
ENDBRANCH  12  20
ENDBRANCH   1  14
TORSDOF 3
ENDMDL
MODEL 7
REMARK VINA RESULT:      -6.5      5.625      8.575
REMARK  Name = 
REMARK  3 active torsions:
REMARK  status: ('A' for Active; 'I' for Inactive)
REMARK    1  A    between atoms: C_4  and  C_5
REMARK    2  A    between atoms: N_7  and  C_8
REMARK    3  A    between atoms: C_8  and  C_9
REMARK                            x       y       z     vdW  Elec       q    Type
REMARK                         _______ _______ _______ _____ _____    ______ ____
ROOT
ATOM      1  C   UNL     1       2.129   9.420  18.038  0.00  0.00    +0.000 C 
ENDROOT
BRANCH   1   2
ATOM      2  C   UNL     1       0.853  10.025  18.519  0.00  0.00    +0.000 A 
ATOM      3  C   UNL     1       0.685  10.799  19.649  0.00  0.00    +0.000 A 
ATOM      4  S   UNL     1      -0.943  11.285  19.794  0.00  0.00    +0.000 S 
ATOM      5  C   UNL     1      -1.340  10.431  18.334  0.00  0.00    +0.000 A 
ATOM      6  N   UNL     1      -2.604  10.432  17.828  0.00  0.00    +0.000 N 
ATOM      7  C   UNL     1      -2.928   9.611  16.663  0.00  0.00    +0.000 C 
ATOM      8  C   UNL     1      -3.662  10.560  15.722  0.00  0.00    +0.000 C 
ATOM      9  C   UNL     1      -4.373  11.504  16.674  0.00  0.00    +0.000 C 
ATOM     10  C   UNL     1      -3.362  11.685  17.801  0.00  0.00    +0.000 C 
ATOM     11  N   UNL     1      -0.317   9.791  17.804  0.00  0.00    +0.000 NA
ENDBRANCH   1   2
BRANCH   1  14
ATOM     12  C   UNL     1       2.523   5.943  18.807  0.00  0.00    +0.000 A 
ATOM     13  C   UNL     1       2.627   6.944  17.868  0.00  0.00    +0.000 A 
ATOM     14  N   UNL     1       2.300   8.075  18.556  0.00  0.00    +0.000 N 
ATOM     15  N   UNL     1       2.031   7.799  19.850  0.00  0.00    +0.000 NA
ATOM     16  N   UNL     1       2.174   6.489  20.015  0.00  0.00    +0.000 NA
BRANCH  12  20
ATOM     17  C   UNL     1       2.439   2.307  18.763  0.00  0.00    +0.000 A 
ATOM     18  C   UNL     1       3.464   2.290  17.843  0.00  0.00    +0.000 A 
ATOM     19  S   UNL     1       3.904   3.897  17.443  0.00  0.00    +0.000 S 
ATOM     20  C   UNL     1       2.720   4.487  18.541  0.00  0.00    +0.000 A 
ATOM     21  N   UNL     1       2.012   3.560  19.159  0.00  0.00    +0.000 NA
ENDBRANCH  12  20
ENDBRANCH   1  14
TORSDOF 3
ENDMDL
MODEL 8
REMARK VINA RESULT:      -6.4      5.528      8.300
REMARK  Name = 
REMARK  3 active torsions:
REMARK  status: ('A' for Active; 'I' for Inactive)
REMARK    1  A    between atoms: C_4  and  C_5
REMARK    2  A    between atoms: N_7  and  C_8
REMARK    3  A    between atoms: C_8  and  C_9
REMARK                            x       y       z     vdW  Elec       q    Type
REMARK                         _______ _______ _______ _____ _____    ______ ____
ROOT
ATOM      1  C   UNL     1       2.475   9.506  18.118  0.00  0.00    +0.000 C 
ENDROOT
BRANCH   1   2
ATOM      2  C   UNL     1       1.132   9.901  18.633  0.00  0.00    +0.000 A 
ATOM      3  C   UNL     1       0.841  10.364  19.899  0.00  0.00    +0.000 A 
ATOM      4  S   UNL     1      -0.824  10.707  20.034  0.00  0.00    +0.000 S 
ATOM      5  C   UNL     1      -1.070  10.216  18.385  0.00  0.00    +0.000 A 
ATOM      6  N   UNL     1      -2.298  10.269  17.800  0.00  0.00    +0.000 N 
ATOM      7  C   UNL     1      -2.490   9.742  16.451  0.00  0.00    +0.000 C 
ATOM      8  C   UNL     1      -3.235  10.849  15.713  0.00  0.00    +0.000 C 
ATOM      9  C   UNL     1      -4.068  11.490  16.808  0.00  0.00    +0.000 C 
ATOM     10  C   UNL     1      -3.143  11.446  18.019  0.00  0.00    +0.000 C 
ATOM     11  N   UNL     1       0.027   9.783  17.796  0.00  0.00    +0.000 NA
ENDBRANCH   1   2
BRANCH   1  14
ATOM     12  C   UNL     1       2.804   6.018  18.874  0.00  0.00    +0.000 A 
ATOM     13  C   UNL     1       2.227   7.227  19.192  0.00  0.00    +0.000 A 
ATOM     14  N   UNL     1       2.674   8.071  18.219  0.00  0.00    +0.000 N 
ATOM     15  N   UNL     1       3.463   7.424  17.336  0.00  0.00    +0.000 NA
ATOM     16  N   UNL     1       3.542   6.157  17.727  0.00  0.00    +0.000 NA
BRANCH  12  20
ATOM     17  C   UNL     1       3.256   2.807  20.520  0.00  0.00    +0.000 A 
ATOM     18  C   UNL     1       1.967   2.869  21.004  0.00  0.00    +0.000 A 
ATOM     19  S   UNL     1       1.238   4.340  20.513  0.00  0.00    +0.000 S 
ATOM     20  C   UNL     1       2.679   4.765  19.675  0.00  0.00    +0.000 A 
ATOM     21  N   UNL     1       3.663   3.889  19.765  0.00  0.00    +0.000 NA
ENDBRANCH  12  20
ENDBRANCH   1  14
TORSDOF 3
ENDMDL
MODEL 9
REMARK VINA RESULT:      -6.4      1.518      2.019
REMARK  Name = 
REMARK  3 active torsions:
REMARK  status: ('A' for Active; 'I' for Inactive)
REMARK    1  A    between atoms: C_4  and  C_5
REMARK    2  A    between atoms: N_7  and  C_8
REMARK    3  A    between atoms: C_8  and  C_9
REMARK                            x       y       z     vdW  Elec       q    Type
REMARK                         _______ _______ _______ _____ _____    ______ ____
ROOT
ATOM      1  C   UNL     1       6.462   6.677  16.708  0.00  0.00    +0.000 C 
ENDROOT
BRANCH   1   2
ATOM      2  C   UNL     1       5.144   6.389  17.345  0.00  0.00    +0.000 A 
ATOM      3  C   UNL     1       4.086   7.264  17.477  0.00  0.00    +0.000 A 
ATOM      4  S   UNL     1       2.778   6.496  18.255  0.00  0.00    +0.000 S 
ATOM      5  C   UNL     1       3.698   5.027  18.376  0.00  0.00    +0.000 A 
ATOM      6  N   UNL     1       3.175   3.901  18.936  0.00  0.00    +0.000 N 
ATOM      7  C   UNL     1       4.013   2.719  19.124  0.00  0.00    +0.000 C 
ATOM      8  C   UNL     1       3.186   1.572  18.554  0.00  0.00    +0.000 C 
ATOM      9  C   UNL     1       1.759   2.005  18.837  0.00  0.00    +0.000 C 
ATOM     10  C   UNL     1       1.801   3.511  18.605  0.00  0.00    +0.000 C 
ATOM     11  N   UNL     1       4.922   5.132  17.899  0.00  0.00    +0.000 NA
ENDBRANCH   1   2
BRANCH   1  14
ATOM     12  C   UNL     1       8.523   9.014  18.478  0.00  0.00    +0.000 A 
ATOM     13  C   UNL     1       7.584   8.806  17.492  0.00  0.00    +0.000 A 
ATOM     14  N   UNL     1       7.303   7.475  17.582  0.00  0.00    +0.000 N 
ATOM     15  N   UNL     1       8.006   6.893  18.577  0.00  0.00    +0.000 NA
ATOM     16  N   UNL     1       8.755   7.835  19.139  0.00  0.00    +0.000 NA
BRANCH  12  20
ATOM     17  C   UNL     1      10.355  12.152  18.335  0.00  0.00    +0.000 A 
ATOM     18  C   UNL     1      10.283  12.262  19.706  0.00  0.00    +0.000 A 
ATOM     19  S   UNL     1       9.402  10.937  20.344  0.00  0.00    +0.000 S 
ATOM     20  C   UNL     1       9.211  10.310  18.754  0.00  0.00    +0.000 A 
ATOM     21  N   UNL     1       9.741  11.041  17.792  0.00  0.00    +0.000 NA
ENDBRANCH  12  20
ENDBRANCH   1  14
TORSDOF 3
ENDMDL
