MODEL 1
REMARK VINA RESULT:      -8.0      0.000      0.000
REMARK  Name = 
REMARK  6 active torsions:
REMARK  status: ('A' for Active; 'I' for Inactive)
REMARK    1  A    between atoms: C_1  and  C_2
REMARK    2  A    between atoms: C_2  and  O_3
REMARK    3  A    between atoms: O_3  and  C_4
REMARK    4  A    between atoms: C_4  and  C_6
REMARK    5  A    between atoms: C_7  and  C_8
REMARK    6  A    between atoms: N_18  and  C_19
REMARK                            x       y       z     vdW  Elec       q    Type
REMARK                         _______ _______ _______ _____ _____    ______ ____
ROOT
ATOM      1  C   UNL     1       4.503   5.329  16.978  0.00  0.00    +0.000 A 
ATOM      2  C   UNL     1       4.918   4.124  16.449  0.00  0.00    +0.000 A 
ATOM      3  C   UNL     1       5.990   3.743  15.501  0.00  0.00    +0.000 C 
ATOM      4  O   UNL     1       4.206   3.104  16.990  0.00  0.00    +0.000 OA
ATOM      5  C   UNL     1       3.332   3.643  17.881  0.00  0.00    +0.000 A 
ATOM      6  N   UNL     1       2.504   2.877  18.605  0.00  0.00    +0.000 NA
ATOM      7  C   UNL     1       1.762   3.615  19.422  0.00  0.00    +0.000 A 
ATOM      8  N   UNL     1       1.749   4.953  19.546  0.00  0.00    +0.000 NA
ATOM      9  C   UNL     1       2.556   5.721  18.763  0.00  0.00    +0.000 A 
ATOM     10  N   UNL     1       2.383   7.081  18.838  0.00  0.00    +0.000 N 
ATOM     11  C   UNL     1       2.604   8.004  17.729  0.00  0.00    +0.000 C 
ATOM     12  C   UNL     1       1.468   9.038  17.632  0.00  0.00    +0.000 C 
ATOM     13  N   UNL     1       1.308   9.728  18.921  0.00  0.00    +0.000 N 
ATOM     14  C   UNL     1       1.106   8.821  20.073  0.00  0.00    +0.000 C 
ATOM     15  C   UNL     1       2.198   7.724  20.147  0.00  0.00    +0.000 C 
ATOM     16  C   UNL     1       3.442   5.030  17.896  0.00  0.00    +0.000 A 
ENDROOT
BRANCH  13  17
ATOM     17  C   UNL     1       1.422  11.097  19.018  0.00  0.00    +0.000 A 
ATOM     18  C   UNL     1       2.238  11.827  18.134  0.00  0.00    +0.000 A 
ATOM     19  C   UNL     1       2.372  13.217  18.215  0.00  0.00    +0.000 A 
ATOM     20  C   UNL     1       1.683  13.922  19.191  0.00  0.00    +0.000 A 
ATOM     21  C   UNL     1       0.870  13.234  20.084  0.00  0.00    +0.000 A 
ATOM     22  C   UNL     1       0.745  11.841  19.996  0.00  0.00    +0.000 A 
ENDBRANCH  13  17
BRANCH   1  23
ATOM     23  C   UNL     1       5.128   6.585  16.664  0.00  0.00    +0.000 C 
ATOM     24  O   UNL     1       5.008   7.142  15.582  0.00  0.00    +0.000 OA
BRANCH  23  25
ATOM     25  O   UNL     1       5.879   7.060  17.698  0.00  0.00    +0.000 OA
BRANCH  25  27
ATOM     26  C   UNL     1       7.759   5.948  18.810  0.00  0.00    +0.000 C 
ATOM     27  C   UNL     1       7.289   6.797  17.643  0.00  0.00    +0.000 C 
ENDBRANCH  25  27
ENDBRANCH  23  25
ENDBRANCH   1  23
TORSDOF 4
ENDMDL
MODEL 2
REMARK VINA RESULT:      -8.0      0.343      1.064
REMARK  Name = 
REMARK  6 active torsions:
REMARK  status: ('A' for Active; 'I' for Inactive)
REMARK    1  A    between atoms: C_1  and  C_2
REMARK    2  A    between atoms: C_2  and  O_3
REMARK    3  A    between atoms: O_3  and  C_4
REMARK    4  A    between atoms: C_4  and  C_6
REMARK    5  A    between atoms: C_7  and  C_8
REMARK    6  A    between atoms: N_18  and  C_19
REMARK                            x       y       z     vdW  Elec       q    Type
REMARK                         _______ _______ _______ _____ _____    ______ ____
ROOT
ATOM      1  C   UNL     1       4.475   5.299  17.011  0.00  0.00    +0.000 A 
ATOM      2  C   UNL     1       4.883   4.086  16.493  0.00  0.00    +0.000 A 
ATOM      3  C   UNL     1       5.964   3.690  15.559  0.00  0.00    +0.000 C 
ATOM      4  O   UNL     1       4.154   3.077  17.029  0.00  0.00    +0.000 OA
ATOM      5  C   UNL     1       3.275   3.629  17.907  0.00  0.00    +0.000 A 
ATOM      6  N   UNL     1       2.430   2.875  18.625  0.00  0.00    +0.000 NA
ATOM      7  C   UNL     1       1.686   3.624  19.429  0.00  0.00    +0.000 A 
ATOM      8  N   UNL     1       1.685   4.962  19.546  0.00  0.00    +0.000 NA
ATOM      9  C   UNL     1       2.510   5.719  18.770  0.00  0.00    +0.000 A 
ATOM     10  N   UNL     1       2.350   7.080  18.836  0.00  0.00    +0.000 N 
ATOM     11  C   UNL     1       2.594   7.996  17.726  0.00  0.00    +0.000 C 
ATOM     12  C   UNL     1       1.470   9.041  17.610  0.00  0.00    +0.000 C 
ATOM     13  N   UNL     1       1.301   9.739  18.894  0.00  0.00    +0.000 N 
ATOM     14  C   UNL     1       1.075   8.840  20.048  0.00  0.00    +0.000 C 
ATOM     15  C   UNL     1       2.155   7.732  20.140  0.00  0.00    +0.000 C 
ATOM     16  C   UNL     1       3.400   5.014  17.917  0.00  0.00    +0.000 A 
ENDROOT
BRANCH  13  17
ATOM     17  C   UNL     1       1.428  11.107  18.986  0.00  0.00    +0.000 A 
ATOM     18  C   UNL     1       0.692  11.848  19.928  0.00  0.00    +0.000 A 
ATOM     19  C   UNL     1       0.802  13.238  20.039  0.00  0.00    +0.000 A 
ATOM     20  C   UNL     1       1.664  13.931  19.202  0.00  0.00    +0.000 A 
ATOM     21  C   UNL     1       2.405  13.233  18.256  0.00  0.00    +0.000 A 
ATOM     22  C   UNL     1       2.285  11.840  18.153  0.00  0.00    +0.000 A 
ENDBRANCH  13  17
BRANCH   1  23
ATOM     23  C   UNL     1       5.116   6.547  16.699  0.00  0.00    +0.000 C 
ATOM     24  O   UNL     1       5.010   7.103  15.615  0.00  0.00    +0.000 OA
BRANCH  23  25
ATOM     25  O   UNL     1       5.866   7.014  17.737  0.00  0.00    +0.000 OA
BRANCH  25  27
ATOM     26  C   UNL     1       7.857   8.440  17.648  0.00  0.00    +0.000 C 
ATOM     27  C   UNL     1       7.288   7.037  17.545  0.00  0.00    +0.000 C 
ENDBRANCH  25  27
ENDBRANCH  23  25
ENDBRANCH   1  23
TORSDOF 4
ENDMDL
MODEL 3
REMARK VINA RESULT:      -7.2      2.240      3.927
REMARK  Name = 
REMARK  6 active torsions:
REMARK  status: ('A' for Active; 'I' for Inactive)
REMARK    1  A    between atoms: C_1  and  C_2
REMARK    2  A    between atoms: C_2  and  O_3
REMARK    3  A    between atoms: O_3  and  C_4
REMARK    4  A    between atoms: C_4  and  C_6
REMARK    5  A    between atoms: C_7  and  C_8
REMARK    6  A    between atoms: N_18  and  C_19
REMARK                            x       y       z     vdW  Elec       q    Type
REMARK                         _______ _______ _______ _____ _____    ______ ____
ROOT
ATOM      1  C   UNL     1       3.122   4.140  18.278  0.00  0.00    +0.000 A 
ATOM      2  C   UNL     1       3.856   2.972  18.310  0.00  0.00    +0.000 A 
ATOM      3  C   UNL     1       3.493   1.546  18.488  0.00  0.00    +0.000 C 
ATOM      4  O   UNL     1       5.162   3.231  18.058  0.00  0.00    +0.000 OA
ATOM      5  C   UNL     1       5.281   4.570  17.851  0.00  0.00    +0.000 A 
ATOM      6  N   UNL     1       6.459   5.133  17.547  0.00  0.00    +0.000 NA
ATOM      7  C   UNL     1       6.331   6.441  17.366  0.00  0.00    +0.000 A 
ATOM      8  N   UNL     1       5.221   7.189  17.488  0.00  0.00    +0.000 NA
ATOM      9  C   UNL     1       4.043   6.611  17.853  0.00  0.00    +0.000 A 
ATOM     10  N   UNL     1       2.989   7.453  18.102  0.00  0.00    +0.000 N 
ATOM     11  C   UNL     1       1.929   7.186  19.069  0.00  0.00    +0.000 C 
ATOM     12  C   UNL     1       1.614   8.437  19.909  0.00  0.00    +0.000 C 
ATOM     13  N   UNL     1       1.301   9.569  19.023  0.00  0.00    +0.000 N 
ATOM     14  C   UNL     1       2.344   9.854  18.013  0.00  0.00    +0.000 C 
ATOM     15  C   UNL     1       2.731   8.589  17.205  0.00  0.00    +0.000 C 
ATOM     16  C   UNL     1       4.051   5.199  18.008  0.00  0.00    +0.000 A 
ENDROOT
BRANCH  13  17
ATOM     17  C   UNL     1       0.096  10.230  19.107  0.00  0.00    +0.000 A 
ATOM     18  C   UNL     1      -0.875  10.110  18.096  0.00  0.00    +0.000 A 
ATOM     19  C   UNL     1      -2.105  10.774  18.158  0.00  0.00    +0.000 A 
ATOM     20  C   UNL     1      -2.400  11.582  19.246  0.00  0.00    +0.000 A 
ATOM     21  C   UNL     1      -1.464  11.726  20.262  0.00  0.00    +0.000 A 
ATOM     22  C   UNL     1      -0.233  11.059  20.189  0.00  0.00    +0.000 A 
ENDBRANCH  13  17
BRANCH   1  23
ATOM     23  C   UNL     1       1.692   4.179  18.424  0.00  0.00    +0.000 C 
ATOM     24  O   UNL     1       0.920   4.115  17.478  0.00  0.00    +0.000 OA
BRANCH  23  25
ATOM     25  O   UNL     1       1.310   4.319  19.724  0.00  0.00    +0.000 OA
BRANCH  25  27
ATOM     26  C   UNL     1       1.716   2.763  21.574  0.00  0.00    +0.000 C 
ATOM     27  C   UNL     1       0.843   3.136  20.389  0.00  0.00    +0.000 C 
ENDBRANCH  25  27
ENDBRANCH  23  25
ENDBRANCH   1  23
TORSDOF 4
ENDMDL
MODEL 4
REMARK VINA RESULT:      -6.9      2.426      4.160
REMARK  Name = 
REMARK  6 active torsions:
REMARK  status: ('A' for Active; 'I' for Inactive)
REMARK    1  A    between atoms: C_1  and  C_2
REMARK    2  A    between atoms: C_2  and  O_3
REMARK    3  A    between atoms: O_3  and  C_4
REMARK    4  A    between atoms: C_4  and  C_6
REMARK    5  A    between atoms: C_7  and  C_8
REMARK    6  A    between atoms: N_18  and  C_19
REMARK                            x       y       z     vdW  Elec       q    Type
REMARK                         _______ _______ _______ _____ _____    ______ ____
ROOT
ATOM      1  C   UNL     1       3.464   4.464  19.600  0.00  0.00    +0.000 A 
ATOM      2  C   UNL     1       4.318   3.405  19.837  0.00  0.00    +0.000 A 
ATOM      3  C   UNL     1       4.154   2.096  20.512  0.00  0.00    +0.000 C 
ATOM      4  O   UNL     1       5.521   3.634  19.257  0.00  0.00    +0.000 OA
ATOM      5  C   UNL     1       5.451   4.839  18.631  0.00  0.00    +0.000 A 
ATOM      6  N   UNL     1       6.486   5.332  17.935  0.00  0.00    +0.000 NA
ATOM      7  C   UNL     1       6.183   6.505  17.394  0.00  0.00    +0.000 A 
ATOM      8  N   UNL     1       5.036   7.196  17.506  0.00  0.00    +0.000 NA
ATOM      9  C   UNL     1       4.014   6.709  18.262  0.00  0.00    +0.000 A 
ATOM     10  N   UNL     1       2.933   7.533  18.452  0.00  0.00    +0.000 N 
ATOM     11  C   UNL     1       2.099   7.539  19.649  0.00  0.00    +0.000 C 
ATOM     12  C   UNL     1       1.801   8.977  20.112  0.00  0.00    +0.000 C 
ATOM     13  N   UNL     1       1.211   9.747  19.006  0.00  0.00    +0.000 N 
ATOM     14  C   UNL     1       2.019   9.743  17.766  0.00  0.00    +0.000 C 
ATOM     15  C   UNL     1       2.394   8.306  17.322  0.00  0.00    +0.000 C 
ATOM     16  C   UNL     1       4.206   5.424  18.836  0.00  0.00    +0.000 A 
ENDROOT
BRANCH  13  17
ATOM     17  C   UNL     1      -0.026  10.339  19.128  0.00  0.00    +0.000 A 
ATOM     18  C   UNL     1      -1.021  10.162  18.149  0.00  0.00    +0.000 A 
ATOM     19  C   UNL     1      -2.283  10.756  18.250  0.00  0.00    +0.000 A 
ATOM     20  C   UNL     1      -2.589  11.549  19.346  0.00  0.00    +0.000 A 
ATOM     21  C   UNL     1      -1.629  11.749  20.331  0.00  0.00    +0.000 A 
ATOM     22  C   UNL     1      -0.366  11.151  20.219  0.00  0.00    +0.000 A 
ENDBRANCH  13  17
BRANCH   1  23
ATOM     23  C   UNL     1       2.088   4.476  20.015  0.00  0.00    +0.000 C 
ATOM     24  O   UNL     1       1.741   4.486  21.188  0.00  0.00    +0.000 OA
BRANCH  23  25
ATOM     25  O   UNL     1       1.230   4.451  18.957  0.00  0.00    +0.000 OA
BRANCH  25  27
ATOM     26  C   UNL     1       0.712   2.058  18.834  0.00  0.00    +0.000 C 
ATOM     27  C   UNL     1       1.266   3.281  18.126  0.00  0.00    +0.000 C 
ENDBRANCH  25  27
ENDBRANCH  23  25
ENDBRANCH   1  23
TORSDOF 4
ENDMDL
MODEL 5
REMARK VINA RESULT:      -6.5      2.279      4.129
REMARK  Name = 
REMARK  6 active torsions:
REMARK  status: ('A' for Active; 'I' for Inactive)
REMARK    1  A    between atoms: C_1  and  C_2
REMARK    2  A    between atoms: C_2  and  O_3
REMARK    3  A    between atoms: O_3  and  C_4
REMARK    4  A    between atoms: C_4  and  C_6
REMARK    5  A    between atoms: C_7  and  C_8
REMARK    6  A    between atoms: N_18  and  C_19
REMARK                            x       y       z     vdW  Elec       q    Type
REMARK                         _______ _______ _______ _____ _____    ______ ____
ROOT
ATOM      1  C   UNL     1       2.711   4.207  18.581  0.00  0.00    +0.000 A 
ATOM      2  C   UNL     1       3.401   3.070  18.211  0.00  0.00    +0.000 A 
ATOM      3  C   UNL     1       3.214   1.627  18.494  0.00  0.00    +0.000 C 
ATOM      4  O   UNL     1       4.409   3.387  17.363  0.00  0.00    +0.000 OA
ATOM      5  C   UNL     1       4.373   4.733  17.170  0.00  0.00    +0.000 A 
ATOM      6  N   UNL     1       5.235   5.350  16.349  0.00  0.00    +0.000 NA
ATOM      7  C   UNL     1       4.997   6.654  16.298  0.00  0.00    +0.000 A 
ATOM      8  N   UNL     1       4.067   7.352  16.972  0.00  0.00    +0.000 NA
ATOM      9  C   UNL     1       3.235   6.720  17.845  0.00  0.00    +0.000 A 
ATOM     10  N   UNL     1       2.413   7.513  18.606  0.00  0.00    +0.000 N 
ATOM     11  C   UNL     1       1.969   7.186  19.957  0.00  0.00    +0.000 C 
ATOM     12  C   UNL     1       2.069   8.410  20.886  0.00  0.00    +0.000 C 
ATOM     13  N   UNL     1       1.330   9.541  20.304  0.00  0.00    +0.000 N 
ATOM     14  C   UNL     1       1.737   9.885  18.924  0.00  0.00    +0.000 C 
ATOM     15  C   UNL     1       1.716   8.651  17.987  0.00  0.00    +0.000 C 
ATOM     16  C   UNL     1       3.359   5.308  17.928  0.00  0.00    +0.000 A 
ENDROOT
BRANCH  13  17
ATOM     17  C   UNL     1       0.301  10.150  20.988  0.00  0.00    +0.000 A 
ATOM     18  C   UNL     1       0.054   9.863  22.343  0.00  0.00    +0.000 A 
ATOM     19  C   UNL     1      -0.987  10.466  23.057  0.00  0.00    +0.000 A 
ATOM     20  C   UNL     1      -1.815  11.384  22.428  0.00  0.00    +0.000 A 
ATOM     21  C   UNL     1      -1.603  11.689  21.089  0.00  0.00    +0.000 A 
ATOM     22  C   UNL     1      -0.559  11.077  20.382  0.00  0.00    +0.000 A 
ENDBRANCH  13  17
BRANCH   1  23
ATOM     23  C   UNL     1       1.535   4.182  19.407  0.00  0.00    +0.000 C 
ATOM     24  O   UNL     1       0.436   3.835  18.999  0.00  0.00    +0.000 OA
BRANCH  23  25
ATOM     25  O   UNL     1       1.787   4.612  20.676  0.00  0.00    +0.000 OA
BRANCH  25  27
ATOM     26  C   UNL     1       1.523   2.475  21.846  0.00  0.00    +0.000 C 
ATOM     27  C   UNL     1       2.412   3.673  21.562  0.00  0.00    +0.000 C 
ENDBRANCH  25  27
ENDBRANCH  23  25
ENDBRANCH   1  23
TORSDOF 4
ENDMDL
MODEL 6
REMARK VINA RESULT:      -6.3      2.394      4.301
REMARK  Name = 
REMARK  6 active torsions:
REMARK  status: ('A' for Active; 'I' for Inactive)
REMARK    1  A    between atoms: C_1  and  C_2
REMARK    2  A    between atoms: C_2  and  O_3
REMARK    3  A    between atoms: O_3  and  C_4
REMARK    4  A    between atoms: C_4  and  C_6
REMARK    5  A    between atoms: C_7  and  C_8
REMARK    6  A    between atoms: N_18  and  C_19
REMARK                            x       y       z     vdW  Elec       q    Type
REMARK                         _______ _______ _______ _____ _____    ______ ____
ROOT
ATOM      1  C   UNL     1       3.220   4.686  19.538  0.00  0.00    +0.000 A 
ATOM      2  C   UNL     1       4.071   3.625  19.307  0.00  0.00    +0.000 A 
ATOM      3  C   UNL     1       4.192   2.270  19.893  0.00  0.00    +0.000 C 
ATOM      4  O   UNL     1       4.908   3.910  18.279  0.00  0.00    +0.000 OA
ATOM      5  C   UNL     1       4.596   5.156  17.830  0.00  0.00    +0.000 A 
ATOM      6  N   UNL     1       5.235   5.710  16.791  0.00  0.00    +0.000 NA
ATOM      7  C   UNL     1       4.749   6.914  16.517  0.00  0.00    +0.000 A 
ATOM      8  N   UNL     1       3.778   7.580  17.164  0.00  0.00    +0.000 NA
ATOM      9  C   UNL     1       3.176   7.027  18.253  0.00  0.00    +0.000 A 
ATOM     10  N   UNL     1       2.301   7.822  18.950  0.00  0.00    +0.000 N 
ATOM     11  C   UNL     1       2.069   7.732  20.389  0.00  0.00    +0.000 C 
ATOM     12  C   UNL     1       2.029   9.129  21.033  0.00  0.00    +0.000 C 
ATOM     13  N   UNL     1       1.032   9.968  20.350  0.00  0.00    +0.000 N 
ATOM     14  C   UNL     1       1.221  10.062  18.885  0.00  0.00    +0.000 C 
ATOM     15  C   UNL     1       1.340   8.665  18.224  0.00  0.00    +0.000 C 
ATOM     16  C   UNL     1       3.575   5.708  18.596  0.00  0.00    +0.000 A 
ENDROOT
BRANCH  13  17
ATOM     17  C   UNL     1      -0.018  10.534  21.038  0.00  0.00    +0.000 A 
ATOM     18  C   UNL     1      -0.909  11.423  20.409  0.00  0.00    +0.000 A 
ATOM     19  C   UNL     1      -1.981  12.012  21.088  0.00  0.00    +0.000 A 
ATOM     20  C   UNL     1      -2.194  11.722  22.428  0.00  0.00    +0.000 A 
ATOM     21  C   UNL     1      -1.332  10.850  23.082  0.00  0.00    +0.000 A 
ATOM     22  C   UNL     1      -0.259  10.267  22.393  0.00  0.00    +0.000 A 
ENDBRANCH  13  17
BRANCH   1  23
ATOM     23  C   UNL     1       2.161   4.651  20.510  0.00  0.00    +0.000 C 
ATOM     24  O   UNL     1       2.348   4.790  21.710  0.00  0.00    +0.000 OA
BRANCH  23  25
ATOM     25  O   UNL     1       0.945   4.423  19.939  0.00  0.00    +0.000 OA
BRANCH  25  27
ATOM     26  C   UNL     1       0.686   2.302  18.738  0.00  0.00    +0.000 C 
ATOM     27  C   UNL     1       0.439   3.082  20.016  0.00  0.00    +0.000 C 
ENDBRANCH  25  27
ENDBRANCH  23  25
ENDBRANCH   1  23
TORSDOF 4
ENDMDL
MODEL 7
REMARK VINA RESULT:      -6.2      4.991      9.003
REMARK  Name = 
REMARK  6 active torsions:
REMARK  status: ('A' for Active; 'I' for Inactive)
REMARK    1  A    between atoms: C_1  and  C_2
REMARK    2  A    between atoms: C_2  and  O_3
REMARK    3  A    between atoms: O_3  and  C_4
REMARK    4  A    between atoms: C_4  and  C_6
REMARK    5  A    between atoms: C_7  and  C_8
REMARK    6  A    between atoms: N_18  and  C_19
REMARK                            x       y       z     vdW  Elec       q    Type
REMARK                         _______ _______ _______ _____ _____    ______ ____
ROOT
ATOM      1  C   UNL     1      -3.813  11.547  18.489  0.00  0.00    +0.000 A 
ATOM      2  C   UNL     1      -4.880  12.411  18.347  0.00  0.00    +0.000 A 
ATOM      3  C   UNL     1      -5.985  12.513  17.365  0.00  0.00    +0.000 C 
ATOM      4  O   UNL     1      -4.915  13.288  19.380  0.00  0.00    +0.000 OA
ATOM      5  C   UNL     1      -3.875  12.990  20.204  0.00  0.00    +0.000 A 
ATOM      6  N   UNL     1      -3.659  13.670  21.340  0.00  0.00    +0.000 NA
ATOM      7  C   UNL     1      -2.607  13.191  21.991  0.00  0.00    +0.000 A 
ATOM      8  N   UNL     1      -1.789  12.192  21.621  0.00  0.00    +0.000 NA
ATOM      9  C   UNL     1      -1.987  11.548  20.437  0.00  0.00    +0.000 A 
ATOM     10  N   UNL     1      -1.030  10.642  20.055  0.00  0.00    +0.000 N 
ATOM     11  C   UNL     1      -0.673  10.351  18.670  0.00  0.00    +0.000 C 
ATOM     12  C   UNL     1       0.854  10.280  18.492  0.00  0.00    +0.000 C 
ATOM     13  N   UNL     1       1.423   9.309  19.440  0.00  0.00    +0.000 N 
ATOM     14  C   UNL     1       1.062   9.558  20.853  0.00  0.00    +0.000 C 
ATOM     15  C   UNL     1      -0.468   9.708  21.043  0.00  0.00    +0.000 C 
ATOM     16  C   UNL     1      -3.128  11.937  19.687  0.00  0.00    +0.000 A 
ENDROOT
BRANCH  13  17
ATOM     17  C   UNL     1       2.158   8.230  19.002  0.00  0.00    +0.000 A 
ATOM     18  C   UNL     1       2.249   7.050  19.763  0.00  0.00    +0.000 A 
ATOM     19  C   UNL     1       2.990   5.942  19.341  0.00  0.00    +0.000 A 
ATOM     20  C   UNL     1       3.666   5.984  18.130  0.00  0.00    +0.000 A 
ATOM     21  C   UNL     1       3.601   7.134  17.352  0.00  0.00    +0.000 A 
ATOM     22  C   UNL     1       2.857   8.239  17.787  0.00  0.00    +0.000 A 
ENDBRANCH  13  17
BRANCH   1  23
ATOM     23  C   UNL     1      -3.563  10.449  17.595  0.00  0.00    +0.000 C 
ATOM     24  O   UNL     1      -3.718   9.278  17.911  0.00  0.00    +0.000 OA
BRANCH  23  25
ATOM     25  O   UNL     1      -3.114  10.867  16.378  0.00  0.00    +0.000 OA
BRANCH  25  27
ATOM     26  C   UNL     1      -3.557  10.079  14.100  0.00  0.00    +0.000 C 
ATOM     27  C   UNL     1      -2.828   9.846  15.411  0.00  0.00    +0.000 C 
ENDBRANCH  25  27
ENDBRANCH  23  25
ENDBRANCH   1  23
TORSDOF 4
ENDMDL
MODEL 8
REMARK VINA RESULT:      -6.1      2.671      7.140
REMARK  Name = 
REMARK  6 active torsions:
REMARK  status: ('A' for Active; 'I' for Inactive)
REMARK    1  A    between atoms: C_1  and  C_2
REMARK    2  A    between atoms: C_2  and  O_3
REMARK    3  A    between atoms: O_3  and  C_4
REMARK    4  A    between atoms: C_4  and  C_6
REMARK    5  A    between atoms: C_7  and  C_8
REMARK    6  A    between atoms: N_18  and  C_19
REMARK                            x       y       z     vdW  Elec       q    Type
REMARK                         _______ _______ _______ _____ _____    ______ ____
ROOT
ATOM      1  C   UNL     1       2.426   6.707  19.451  0.00  0.00    +0.000 A 
ATOM      2  C   UNL     1       1.803   7.160  20.596  0.00  0.00    +0.000 A 
ATOM      3  C   UNL     1       1.249   8.473  21.003  0.00  0.00    +0.000 C 
ATOM      4  O   UNL     1       1.629   6.139  21.471  0.00  0.00    +0.000 OA
ATOM      5  C   UNL     1       2.130   5.015  20.893  0.00  0.00    +0.000 A 
ATOM      6  N   UNL     1       2.076   3.824  21.507  0.00  0.00    +0.000 NA
ATOM      7  C   UNL     1       2.602   2.871  20.748  0.00  0.00    +0.000 A 
ATOM      8  N   UNL     1       3.167   2.996  19.535  0.00  0.00    +0.000 NA
ATOM      9  C   UNL     1       3.265   4.222  18.949  0.00  0.00    +0.000 A 
ATOM     10  N   UNL     1       3.983   4.297  17.782  0.00  0.00    +0.000 N 
ATOM     11  C   UNL     1       4.748   5.465  17.356  0.00  0.00    +0.000 C 
ATOM     12  C   UNL     1       6.130   5.057  16.814  0.00  0.00    +0.000 C 
ATOM     13  N   UNL     1       5.974   4.060  15.744  0.00  0.00    +0.000 N 
ATOM     14  C   UNL     1       5.183   2.872  16.133  0.00  0.00    +0.000 C 
ATOM     15  C   UNL     1       3.816   3.261  16.751  0.00  0.00    +0.000 C 
ATOM     16  C   UNL     1       2.673   5.307  19.647  0.00  0.00    +0.000 A 
ENDROOT
BRANCH  13  17
ATOM     17  C   UNL     1       6.469   4.287  14.479  0.00  0.00    +0.000 A 
ATOM     18  C   UNL     1       6.002   3.558  13.370  0.00  0.00    +0.000 A 
ATOM     19  C   UNL     1       6.491   3.768  12.077  0.00  0.00    +0.000 A 
ATOM     20  C   UNL     1       7.469   4.727  11.855  0.00  0.00    +0.000 A 
ATOM     21  C   UNL     1       7.957   5.464  12.927  0.00  0.00    +0.000 A 
ATOM     22  C   UNL     1       7.461   5.243  14.220  0.00  0.00    +0.000 A 
ENDBRANCH  13  17
BRANCH   1  23
ATOM     23  C   UNL     1       2.670   7.538  18.304  0.00  0.00    +0.000 C 
ATOM     24  O   UNL     1       3.791   7.816  17.903  0.00  0.00    +0.000 OA
BRANCH  23  25
ATOM     25  O   UNL     1       1.514   7.991  17.741  0.00  0.00    +0.000 OA
BRANCH  25  27
ATOM     26  C   UNL     1      -0.046   9.870  17.945  0.00  0.00    +0.000 C 
ATOM     27  C   UNL     1       1.367   9.415  17.631  0.00  0.00    +0.000 C 
ENDBRANCH  25  27
ENDBRANCH  23  25
ENDBRANCH   1  23
TORSDOF 4
ENDMDL
MODEL 9
REMARK VINA RESULT:      -6.0      7.647     10.143
REMARK  Name = 
REMARK  6 active torsions:
REMARK  status: ('A' for Active; 'I' for Inactive)
REMARK    1  A    between atoms: C_1  and  C_2
REMARK    2  A    between atoms: C_2  and  O_3
REMARK    3  A    between atoms: O_3  and  C_4
REMARK    4  A    between atoms: C_4  and  C_6
REMARK    5  A    between atoms: C_7  and  C_8
REMARK    6  A    between atoms: N_18  and  C_19
REMARK                            x       y       z     vdW  Elec       q    Type
REMARK                         _______ _______ _______ _____ _____    ______ ____
ROOT
ATOM      1  C   UNL     1      10.236  13.485  18.945  0.00  0.00    +0.000 A 
ATOM      2  C   UNL     1      11.013  13.788  17.845  0.00  0.00    +0.000 A 
ATOM      3  C   UNL     1      12.045  13.039  17.090  0.00  0.00    +0.000 C 
ATOM      4  O   UNL     1      10.678  15.007  17.355  0.00  0.00    +0.000 OA
ATOM      5  C   UNL     1       9.674  15.497  18.129  0.00  0.00    +0.000 A 
ATOM      6  N   UNL     1       9.104  16.684  17.875  0.00  0.00    +0.000 NA
ATOM      7  C   UNL     1       8.135  16.945  18.743  0.00  0.00    +0.000 A 
ATOM      8  N   UNL     1       7.737  16.200  19.787  0.00  0.00    +0.000 NA
ATOM      9  C   UNL     1       8.363  15.023  20.067  0.00  0.00    +0.000 A 
ATOM     10  N   UNL     1       8.005  14.389  21.231  0.00  0.00    +0.000 N 
ATOM     11  C   UNL     1       8.903  13.566  22.034  0.00  0.00    +0.000 C 
ATOM     12  C   UNL     1       8.758  13.885  23.533  0.00  0.00    +0.000 C 
ATOM     13  N   UNL     1       7.351  13.750  23.939  0.00  0.00    +0.000 N 
ATOM     14  C   UNL     1       6.406  14.552  23.130  0.00  0.00    +0.000 C 
ATOM     15  C   UNL     1       6.587  14.303  21.611  0.00  0.00    +0.000 C 
ATOM     16  C   UNL     1       9.375  14.612  19.160  0.00  0.00    +0.000 A 
ENDROOT
BRANCH  13  17
ATOM     17  C   UNL     1       6.975  12.880  24.939  0.00  0.00    +0.000 A 
ATOM     18  C   UNL     1       6.026  11.867  24.708  0.00  0.00    +0.000 A 
ATOM     19  C   UNL     1       5.628  10.974  25.708  0.00  0.00    +0.000 A 
ATOM     20  C   UNL     1       6.176  11.069  26.979  0.00  0.00    +0.000 A 
ATOM     21  C   UNL     1       7.114  12.060  27.244  0.00  0.00    +0.000 A 
ATOM     22  C   UNL     1       7.505  12.951  26.235  0.00  0.00    +0.000 A 
ENDBRANCH  13  17
BRANCH   1  23
ATOM     23  C   UNL     1      10.298  12.224  19.632  0.00  0.00    +0.000 C 
ATOM     24  O   UNL     1      11.240  11.891  20.338  0.00  0.00    +0.000 OA
BRANCH  23  25
ATOM     25  O   UNL     1       9.207  11.447  19.384  0.00  0.00    +0.000 OA
BRANCH  25  27
ATOM     26  C   UNL     1       8.473   9.386  18.279  0.00  0.00    +0.000 C 
ATOM     27  C   UNL     1       9.209  10.707  18.154  0.00  0.00    +0.000 C 
ENDBRANCH  25  27
ENDBRANCH  23  25
ENDBRANCH   1  23
TORSDOF 4
ENDMDL
