MODEL 1
REMARK VINA RESULT:      -7.7      0.000      0.000
REMARK  Name = 
REMARK  5 active torsions:
REMARK  status: ('A' for Active; 'I' for Inactive)
REMARK    1  A    between atoms: C_1  and  N_2
REMARK    2  A    between atoms: C_5  and  N_6
REMARK    3  A    between atoms: C_13  and  C_14
REMARK    4  A    between atoms: C_18  and  N_19
REMARK    5  A    between atoms: C_20  and  C_22
REMARK                            x       y       z     vdW  Elec       q    Type
REMARK                         _______ _______ _______ _____ _____    ______ ____
ROOT
ATOM      1  N   UNL     1       1.660  14.752  20.622  0.00  0.00    +0.000 N 
ATOM      2  C   UNL     1       0.865  13.827  21.272  0.00  0.00    +0.000 A 
ATOM      3  C   UNL     1      -0.095  14.343  22.298  0.00  0.00    +0.000 A 
ATOM      4  C   UNL     1      -0.816  13.463  23.004  0.00  0.00    +0.000 A 
ATOM      5  C   UNL     1      -0.703  12.091  22.708  0.00  0.00    +0.000 A 
ATOM      6  N   UNL     1      -1.308  11.047  23.232  0.00  0.00    +0.000 NA
ATOM      7  C   UNL     1      -0.836   9.978  22.516  0.00  0.00    +0.000 A 
ATOM      8  C   UNL     1       0.065  10.358  21.531  0.00  0.00    +0.000 A 
ATOM      9  N   UNL     1       0.167  11.730  21.692  0.00  0.00    +0.000 N 
ATOM     10  N   UNL     1       0.983  12.563  20.981  0.00  0.00    +0.000 NA
ATOM     11  H   UNL     1       1.117  15.300  19.962  0.00  0.00    +0.000 HD
ENDROOT
BRANCH   1  16
ATOM     12  C   UNL     1       6.786  15.137  18.221  0.00  0.00    +0.000 C 
ATOM     13  N   UNL     1       5.456  15.310  18.807  0.00  0.00    +0.000 NA
ATOM     14  C   UNL     1       4.442  14.597  18.023  0.00  0.00    +0.000 C 
ATOM     15  C   UNL     1       3.043  14.816  18.604  0.00  0.00    +0.000 C 
ATOM     16  C   UNL     1       2.977  14.392  20.076  0.00  0.00    +0.000 C 
ATOM     17  C   UNL     1       4.093  15.092  20.859  0.00  0.00    +0.000 C 
ATOM     18  C   UNL     1       5.454  14.869  20.207  0.00  0.00    +0.000 C 
ENDBRANCH   1  16
BRANCH   8  19
ATOM     19  C   UNL     1       0.830   9.546  20.575  0.00  0.00    +0.000 A 
ATOM     20  C   UNL     1       0.943   9.990  19.252  0.00  0.00    +0.000 A 
ATOM     21  C   UNL     1       1.601   9.220  18.302  0.00  0.00    +0.000 A 
ATOM     22  C   UNL     1       2.154   7.992  18.658  0.00  0.00    +0.000 A 
ATOM     23  C   UNL     1       2.081   7.523  19.971  0.00  0.00    +0.000 A 
ATOM     24  C   UNL     1       1.436   8.321  20.925  0.00  0.00    +0.000 A 
BRANCH  23  25
ATOM     25  N   UNL     1       2.606   6.266  20.378  0.00  0.00    +0.000 N 
ATOM     26  C   UNL     1       1.869   5.116  20.603  0.00  0.00    +0.000 C 
ATOM     27  O   UNL     1       0.662   4.979  20.449  0.00  0.00    +0.000 OA
ATOM     28  H   UNL     1       3.597   6.227  20.550  0.00  0.00    +0.000 HD
BRANCH  26  29
ATOM     29  C   UNL     1       2.605   3.917  21.099  0.00  0.00    +0.000 C 
ATOM     30  C   UNL     1       1.930   2.652  21.565  0.00  0.00    +0.000 C 
ATOM     31  C   UNL     1       2.743   2.647  20.297  0.00  0.00    +0.000 C 
ENDBRANCH  26  29
ENDBRANCH  23  25
ENDBRANCH   8  19
TORSDOF 4
ENDMDL
MODEL 2
REMARK VINA RESULT:      -7.5      4.020      8.075
REMARK  Name = 
REMARK  5 active torsions:
REMARK  status: ('A' for Active; 'I' for Inactive)
REMARK    1  A    between atoms: C_1  and  N_2
REMARK    2  A    between atoms: C_5  and  N_6
REMARK    3  A    between atoms: C_13  and  C_14
REMARK    4  A    between atoms: C_18  and  N_19
REMARK    5  A    between atoms: C_20  and  C_22
REMARK                            x       y       z     vdW  Elec       q    Type
REMARK                         _______ _______ _______ _____ _____    ______ ____
ROOT
ATOM      1  N   UNL     1       1.059   6.672  19.950  0.00  0.00    +0.000 N 
ATOM      2  C   UNL     1       1.811   5.517  20.061  0.00  0.00    +0.000 A 
ATOM      3  C   UNL     1       1.222   4.384  20.842  0.00  0.00    +0.000 A 
ATOM      4  C   UNL     1       1.961   3.285  21.038  0.00  0.00    +0.000 A 
ATOM      5  C   UNL     1       3.235   3.201  20.444  0.00  0.00    +0.000 A 
ATOM      6  N   UNL     1       4.131   2.239  20.467  0.00  0.00    +0.000 NA
ATOM      7  C   UNL     1       5.153   2.698  19.677  0.00  0.00    +0.000 A 
ATOM      8  C   UNL     1       4.888   3.954  19.149  0.00  0.00    +0.000 A 
ATOM      9  N   UNL     1       3.654   4.282  19.685  0.00  0.00    +0.000 N 
ATOM     10  N   UNL     1       2.985   5.459  19.501  0.00  0.00    +0.000 NA
ATOM     11  H   UNL     1       0.273   6.536  19.323  0.00  0.00    +0.000 HD
ENDROOT
BRANCH   1  16
ATOM     12  C   UNL     1       1.875  12.091  18.483  0.00  0.00    +0.000 C 
ATOM     13  N   UNL     1       1.413  10.729  18.758  0.00  0.00    +0.000 NA
ATOM     14  C   UNL     1       2.208   9.746  18.016  0.00  0.00    +0.000 C 
ATOM     15  C   UNL     1       1.696   8.326  18.263  0.00  0.00    +0.000 C 
ATOM     16  C   UNL     1       1.688   7.987  19.758  0.00  0.00    +0.000 C 
ATOM     17  C   UNL     1       0.915   9.068  20.521  0.00  0.00    +0.000 C 
ATOM     18  C   UNL     1       1.447  10.462  20.201  0.00  0.00    +0.000 C 
ENDBRANCH   1  16
BRANCH   8  19
ATOM     19  C   UNL     1       5.711   4.821  18.295  0.00  0.00    +0.000 A 
ATOM     20  C   UNL     1       5.661   4.644  16.907  0.00  0.00    +0.000 A 
ATOM     21  C   UNL     1       6.473   5.398  16.069  0.00  0.00    +0.000 A 
ATOM     22  C   UNL     1       7.348   6.339  16.605  0.00  0.00    +0.000 A 
ATOM     23  C   UNL     1       7.413   6.562  17.981  0.00  0.00    +0.000 A 
ATOM     24  C   UNL     1       6.571   5.811  18.814  0.00  0.00    +0.000 A 
BRANCH  23  25
ATOM     25  N   UNL     1       8.307   7.491  18.578  0.00  0.00    +0.000 N 
ATOM     26  C   UNL     1       8.340   8.854  18.334  0.00  0.00    +0.000 C 
ATOM     27  O   UNL     1       7.587   9.484  17.603  0.00  0.00    +0.000 OA
ATOM     28  H   UNL     1       8.995   7.112  19.208  0.00  0.00    +0.000 HD
BRANCH  26  29
ATOM     29  C   UNL     1       9.409   9.645  19.011  0.00  0.00    +0.000 C 
ATOM     30  C   UNL     1       9.650  11.112  18.764  0.00  0.00    +0.000 C 
ATOM     31  C   UNL     1       9.123  10.652  20.098  0.00  0.00    +0.000 C 
ENDBRANCH  26  29
ENDBRANCH  23  25
ENDBRANCH   8  19
TORSDOF 4
ENDMDL
MODEL 3
REMARK VINA RESULT:      -7.5      3.882      8.075
REMARK  Name = 
REMARK  5 active torsions:
REMARK  status: ('A' for Active; 'I' for Inactive)
REMARK    1  A    between atoms: C_1  and  N_2
REMARK    2  A    between atoms: C_5  and  N_6
REMARK    3  A    between atoms: C_13  and  C_14
REMARK    4  A    between atoms: C_18  and  N_19
REMARK    5  A    between atoms: C_20  and  C_22
REMARK                            x       y       z     vdW  Elec       q    Type
REMARK                         _______ _______ _______ _____ _____    ______ ____
ROOT
ATOM      1  N   UNL     1       1.202   6.480  20.551  0.00  0.00    +0.000 N 
ATOM      2  C   UNL     1       1.933   5.313  20.425  0.00  0.00    +0.000 A 
ATOM      3  C   UNL     1       1.596   4.185  21.349  0.00  0.00    +0.000 A 
ATOM      4  C   UNL     1       2.343   3.074  21.308  0.00  0.00    +0.000 A 
ATOM      5  C   UNL     1       3.370   2.975  20.350  0.00  0.00    +0.000 A 
ATOM      6  N   UNL     1       4.215   2.000  20.096  0.00  0.00    +0.000 NA
ATOM      7  C   UNL     1       4.951   2.448  19.030  0.00  0.00    +0.000 A 
ATOM      8  C   UNL     1       4.556   3.711  18.609  0.00  0.00    +0.000 A 
ATOM      9  N   UNL     1       3.552   4.054  19.500  0.00  0.00    +0.000 N 
ATOM     10  N   UNL     1       2.877   5.241  19.531  0.00  0.00    +0.000 NA
ATOM     11  H   UNL     1       0.259   6.359  20.197  0.00  0.00    +0.000 HD
ENDROOT
BRANCH   1  16
ATOM     12  C   UNL     1       1.737  11.678  18.343  0.00  0.00    +0.000 C 
ATOM     13  N   UNL     1       1.346  10.346  18.807  0.00  0.00    +0.000 NA
ATOM     14  C   UNL     1       2.193   9.312  18.204  0.00  0.00    +0.000 C 
ATOM     15  C   UNL     1       1.756   7.915  18.648  0.00  0.00    +0.000 C 
ATOM     16  C   UNL     1       1.762   7.786  20.176  0.00  0.00    +0.000 C 
ATOM     17  C   UNL     1       0.932   8.922  20.786  0.00  0.00    +0.000 C 
ATOM     18  C   UNL     1       1.391  10.283  20.273  0.00  0.00    +0.000 C 
ENDBRANCH   1  16
BRANCH   8  19
ATOM     19  C   UNL     1       5.090   4.570  17.544  0.00  0.00    +0.000 A 
ATOM     20  C   UNL     1       5.142   4.070  16.237  0.00  0.00    +0.000 A 
ATOM     21  C   UNL     1       5.700   4.825  15.214  0.00  0.00    +0.000 A 
ATOM     22  C   UNL     1       6.216   6.091  15.481  0.00  0.00    +0.000 A 
ATOM     23  C   UNL     1       6.164   6.635  16.765  0.00  0.00    +0.000 A 
ATOM     24  C   UNL     1       5.576   5.872  17.784  0.00  0.00    +0.000 A 
BRANCH  23  25
ATOM     25  N   UNL     1       6.699   7.910  17.093  0.00  0.00    +0.000 N 
ATOM     26  C   UNL     1       7.763   8.145  17.948  0.00  0.00    +0.000 C 
ATOM     27  O   UNL     1       8.439   7.302  18.523  0.00  0.00    +0.000 OA
ATOM     28  H   UNL     1       6.237   8.709  16.692  0.00  0.00    +0.000 HD
BRANCH  26  29
ATOM     29  C   UNL     1       8.124   9.567  18.217  0.00  0.00    +0.000 C 
ATOM     30  C   UNL     1       9.145   9.994  19.240  0.00  0.00    +0.000 C 
ATOM     31  C   UNL     1       9.428  10.183  17.773  0.00  0.00    +0.000 C 
ENDBRANCH  26  29
ENDBRANCH  23  25
ENDBRANCH   8  19
TORSDOF 4
ENDMDL
MODEL 4
REMARK VINA RESULT:      -7.5      4.711      7.500
REMARK  Name = 
REMARK  5 active torsions:
REMARK  status: ('A' for Active; 'I' for Inactive)
REMARK    1  A    between atoms: C_1  and  N_2
REMARK    2  A    between atoms: C_5  and  N_6
REMARK    3  A    between atoms: C_13  and  C_14
REMARK    4  A    between atoms: C_18  and  N_19
REMARK    5  A    between atoms: C_20  and  C_22
REMARK                            x       y       z     vdW  Elec       q    Type
REMARK                         _______ _______ _______ _____ _____    ______ ____
ROOT
ATOM      1  N   UNL     1      -1.266  12.949  22.352  0.00  0.00    +0.000 N 
ATOM      2  C   UNL     1      -2.518  13.445  22.665  0.00  0.00    +0.000 A 
ATOM      3  C   UNL     1      -2.591  14.537  23.685  0.00  0.00    +0.000 A 
ATOM      4  C   UNL     1      -3.796  14.977  24.071  0.00  0.00    +0.000 A 
ATOM      5  C   UNL     1      -4.947  14.452  23.453  0.00  0.00    +0.000 A 
ATOM      6  N   UNL     1      -6.220  14.728  23.635  0.00  0.00    +0.000 NA
ATOM      7  C   UNL     1      -6.878  13.942  22.725  0.00  0.00    +0.000 A 
ATOM      8  C   UNL     1      -6.008  13.175  21.963  0.00  0.00    +0.000 A 
ATOM      9  N   UNL     1      -4.759  13.492  22.473  0.00  0.00    +0.000 N 
ATOM     10  N   UNL     1      -3.569  12.947  22.080  0.00  0.00    +0.000 NA
ATOM     11  H   UNL     1      -0.737  13.617  21.799  0.00  0.00    +0.000 HD
ENDROOT
BRANCH   1  16
ATOM     12  C   UNL     1       1.115   7.950  21.119  0.00  0.00    +0.000 C 
ATOM     13  N   UNL     1       0.747   9.302  21.542  0.00  0.00    +0.000 NA
ATOM     14  C   UNL     1       0.381  10.130  20.389  0.00  0.00    +0.000 C 
ATOM     15  C   UNL     1       0.042  11.557  20.822  0.00  0.00    +0.000 C 
ATOM     16  C   UNL     1      -1.078  11.573  21.868  0.00  0.00    +0.000 C 
ATOM     17  C   UNL     1      -0.706  10.643  23.028  0.00  0.00    +0.000 C 
ATOM     18  C   UNL     1      -0.341   9.249  22.527  0.00  0.00    +0.000 C 
ENDBRANCH   1  16
BRANCH   8  19
ATOM     19  C   UNL     1      -6.281  12.182  20.916  0.00  0.00    +0.000 A 
ATOM     20  C   UNL     1      -7.279  11.225  21.138  0.00  0.00    +0.000 A 
ATOM     21  C   UNL     1      -7.524  10.229  20.202  0.00  0.00    +0.000 A 
ATOM     22  C   UNL     1      -6.773  10.171  19.030  0.00  0.00    +0.000 A 
ATOM     23  C   UNL     1      -5.783  11.117  18.761  0.00  0.00    +0.000 A 
ATOM     24  C   UNL     1      -5.563  12.132  19.703  0.00  0.00    +0.000 A 
BRANCH  23  25
ATOM     25  N   UNL     1      -4.973  11.087  17.594  0.00  0.00    +0.000 N 
ATOM     26  C   UNL     1      -3.595  10.957  17.568  0.00  0.00    +0.000 C 
ATOM     27  O   UNL     1      -2.857  10.808  18.534  0.00  0.00    +0.000 OA
ATOM     28  H   UNL     1      -5.447  11.204  16.713  0.00  0.00    +0.000 HD
BRANCH  26  29
ATOM     29  C   UNL     1      -2.925  11.022  16.237  0.00  0.00    +0.000 C 
ATOM     30  C   UNL     1      -2.519   9.806  15.443  0.00  0.00    +0.000 C 
ATOM     31  C   UNL     1      -3.631  10.692  14.945  0.00  0.00    +0.000 C 
ENDBRANCH  26  29
ENDBRANCH  23  25
ENDBRANCH   8  19
TORSDOF 4
ENDMDL
MODEL 5
REMARK VINA RESULT:      -7.4      3.727      8.838
REMARK  Name = 
REMARK  5 active torsions:
REMARK  status: ('A' for Active; 'I' for Inactive)
REMARK    1  A    between atoms: C_1  and  N_2
REMARK    2  A    between atoms: C_5  and  N_6
REMARK    3  A    between atoms: C_13  and  C_14
REMARK    4  A    between atoms: C_18  and  N_19
REMARK    5  A    between atoms: C_20  and  C_22
REMARK                            x       y       z     vdW  Elec       q    Type
REMARK                         _______ _______ _______ _____ _____    ______ ____
ROOT
ATOM      1  N   UNL     1       5.969   3.657  18.487  0.00  0.00    +0.000 N 
ATOM      2  C   UNL     1       4.812   3.653  19.244  0.00  0.00    +0.000 A 
ATOM      3  C   UNL     1       4.544   2.445  20.087  0.00  0.00    +0.000 A 
ATOM      4  C   UNL     1       3.391   2.377  20.765  0.00  0.00    +0.000 A 
ATOM      5  C   UNL     1       2.506   3.471  20.722  0.00  0.00    +0.000 A 
ATOM      6  N   UNL     1       1.343   3.656  21.306  0.00  0.00    +0.000 NA
ATOM      7  C   UNL     1       0.967   4.922  20.936  0.00  0.00    +0.000 A 
ATOM      8  C   UNL     1       1.909   5.535  20.122  0.00  0.00    +0.000 A 
ATOM      9  N   UNL     1       2.886   4.566  19.963  0.00  0.00    +0.000 N 
ATOM     10  N   UNL     1       4.009   4.676  19.193  0.00  0.00    +0.000 NA
ATOM     11  H   UNL     1       6.789   3.778  19.073  0.00  0.00    +0.000 HD
ENDROOT
BRANCH   1  16
ATOM     12  C   UNL     1       7.102   5.084  13.114  0.00  0.00    +0.000 C 
ATOM     13  N   UNL     1       6.915   4.472  14.431  0.00  0.00    +0.000 NA
ATOM     14  C   UNL     1       7.699   5.174  15.451  0.00  0.00    +0.000 C 
ATOM     15  C   UNL     1       7.545   4.507  16.819  0.00  0.00    +0.000 C 
ATOM     16  C   UNL     1       6.072   4.427  17.239  0.00  0.00    +0.000 C 
ATOM     17  C   UNL     1       5.261   3.757  16.124  0.00  0.00    +0.000 C 
ATOM     18  C   UNL     1       5.489   4.443  14.781  0.00  0.00    +0.000 C 
ENDBRANCH   1  16
BRANCH   8  19
ATOM     19  C   UNL     1       1.895   6.854  19.476  0.00  0.00    +0.000 A 
ATOM     20  C   UNL     1       2.462   6.988  18.203  0.00  0.00    +0.000 A 
ATOM     21  C   UNL     1       2.528   8.230  17.586  0.00  0.00    +0.000 A 
ATOM     22  C   UNL     1       2.031   9.360  18.232  0.00  0.00    +0.000 A 
ATOM     23  C   UNL     1       1.439   9.266  19.492  0.00  0.00    +0.000 A 
ATOM     24  C   UNL     1       1.356   8.002  20.094  0.00  0.00    +0.000 A 
BRANCH  23  25
ATOM     25  N   UNL     1       0.940  10.391  20.204  0.00  0.00    +0.000 N 
ATOM     26  C   UNL     1      -0.325  10.937  20.071  0.00  0.00    +0.000 C 
ATOM     27  O   UNL     1      -1.229  10.523  19.357  0.00  0.00    +0.000 OA
ATOM     28  H   UNL     1       1.581  10.845  20.834  0.00  0.00    +0.000 HD
BRANCH  26  29
ATOM     29  C   UNL     1      -0.626  12.168  20.860  0.00  0.00    +0.000 C 
ATOM     30  C   UNL     1      -1.977  12.474  21.451  0.00  0.00    +0.000 C 
ATOM     31  C   UNL     1      -0.815  12.159  22.356  0.00  0.00    +0.000 C 
ENDBRANCH  26  29
ENDBRANCH  23  25
ENDBRANCH   8  19
TORSDOF 4
ENDMDL
MODEL 6
REMARK VINA RESULT:      -7.4      5.688      9.242
REMARK  Name = 
REMARK  5 active torsions:
REMARK  status: ('A' for Active; 'I' for Inactive)
REMARK    1  A    between atoms: C_1  and  N_2
REMARK    2  A    between atoms: C_5  and  N_6
REMARK    3  A    between atoms: C_13  and  C_14
REMARK    4  A    between atoms: C_18  and  N_19
REMARK    5  A    between atoms: C_20  and  C_22
REMARK                            x       y       z     vdW  Elec       q    Type
REMARK                         _______ _______ _______ _____ _____    ______ ____
ROOT
ATOM      1  N   UNL     1       6.587  16.967  19.084  0.00  0.00    +0.000 N 
ATOM      2  C   UNL     1       7.888  16.779  18.654  0.00  0.00    +0.000 A 
ATOM      3  C   UNL     1       8.620  17.974  18.128  0.00  0.00    +0.000 A 
ATOM      4  C   UNL     1       9.849  17.805  17.626  0.00  0.00    +0.000 A 
ATOM      5  C   UNL     1      10.441  16.529  17.678  0.00  0.00    +0.000 A 
ATOM      6  N   UNL     1      11.624  16.115  17.280  0.00  0.00    +0.000 NA
ATOM      7  C   UNL     1      11.661  14.789  17.626  0.00  0.00    +0.000 A 
ATOM      8  C   UNL     1      10.495  14.374  18.254  0.00  0.00    +0.000 A 
ATOM      9  N   UNL     1       9.699  15.508  18.248  0.00  0.00    +0.000 N 
ATOM     10  N   UNL     1       8.417  15.591  18.714  0.00  0.00    +0.000 NA
ATOM     11  H   UNL     1       6.563  17.476  19.962  0.00  0.00    +0.000 HD
ENDROOT
BRANCH   1  16
ATOM     12  C   UNL     1       1.792  14.024  19.812  0.00  0.00    +0.000 C 
ATOM     13  N   UNL     1       2.892  14.988  19.745  0.00  0.00    +0.000 NA
ATOM     14  C   UNL     1       4.045  14.521  20.521  0.00  0.00    +0.000 C 
ATOM     15  C   UNL     1       5.178  15.548  20.494  0.00  0.00    +0.000 C 
ATOM     16  C   UNL     1       5.600  15.878  19.057  0.00  0.00    +0.000 C 
ATOM     17  C   UNL     1       4.366  16.291  18.247  0.00  0.00    +0.000 C 
ATOM     18  C   UNL     1       3.260  15.245  18.347  0.00  0.00    +0.000 C 
ENDBRANCH   1  16
BRANCH   8  19
ATOM     19  C   UNL     1      10.099  13.049  18.749  0.00  0.00    +0.000 A 
ATOM     20  C   UNL     1       9.893  12.018  17.824  0.00  0.00    +0.000 A 
ATOM     21  C   UNL     1       9.454  10.769  18.245  0.00  0.00    +0.000 A 
ATOM     22  C   UNL     1       9.213  10.531  19.596  0.00  0.00    +0.000 A 
ATOM     23  C   UNL     1       9.427  11.525  20.552  0.00  0.00    +0.000 A 
ATOM     24  C   UNL     1       9.893  12.774  20.117  0.00  0.00    +0.000 A 
BRANCH  23  25
ATOM     25  N   UNL     1       9.171  11.341  21.938  0.00  0.00    +0.000 N 
ATOM     26  C   UNL     1       8.256  12.055  22.694  0.00  0.00    +0.000 C 
ATOM     27  O   UNL     1       7.496  12.925  22.291  0.00  0.00    +0.000 OA
ATOM     28  H   UNL     1       9.732  10.652  22.411  0.00  0.00    +0.000 HD
BRANCH  26  29
ATOM     29  C   UNL     1       8.193  11.755  24.154  0.00  0.00    +0.000 C 
ATOM     30  C   UNL     1       7.594  12.688  25.175  0.00  0.00    +0.000 C 
ATOM     31  C   UNL     1       6.915  11.381  24.862  0.00  0.00    +0.000 C 
ENDBRANCH  26  29
ENDBRANCH  23  25
ENDBRANCH   8  19
TORSDOF 4
ENDMDL
MODEL 7
REMARK VINA RESULT:      -7.4      4.520      7.079
REMARK  Name = 
REMARK  5 active torsions:
REMARK  status: ('A' for Active; 'I' for Inactive)
REMARK    1  A    between atoms: C_1  and  N_2
REMARK    2  A    between atoms: C_5  and  N_6
REMARK    3  A    between atoms: C_13  and  C_14
REMARK    4  A    between atoms: C_18  and  N_19
REMARK    5  A    between atoms: C_20  and  C_22
REMARK                            x       y       z     vdW  Elec       q    Type
REMARK                         _______ _______ _______ _____ _____    ______ ____
ROOT
ATOM      1  N   UNL     1      -0.595  12.805  21.582  0.00  0.00    +0.000 N 
ATOM      2  C   UNL     1      -1.751  13.195  22.233  0.00  0.00    +0.000 A 
ATOM      3  C   UNL     1      -1.599  14.006  23.482  0.00  0.00    +0.000 A 
ATOM      4  C   UNL     1      -2.697  14.324  24.179  0.00  0.00    +0.000 A 
ATOM      5  C   UNL     1      -3.959  13.952  23.677  0.00  0.00    +0.000 A 
ATOM      6  N   UNL     1      -5.167  14.160  24.152  0.00  0.00    +0.000 NA
ATOM      7  C   UNL     1      -6.007  13.611  23.218  0.00  0.00    +0.000 A 
ATOM      8  C   UNL     1      -5.317  13.063  22.146  0.00  0.00    +0.000 A 
ATOM      9  N   UNL     1      -3.986  13.261  22.477  0.00  0.00    +0.000 N 
ATOM     10  N   UNL     1      -2.907  12.843  21.750  0.00  0.00    +0.000 NA
ATOM     11  H   UNL     1      -0.153  13.594  21.119  0.00  0.00    +0.000 HD
ENDROOT
BRANCH   1  16
ATOM     12  C   UNL     1       1.161   8.862  17.902  0.00  0.00    +0.000 C 
ATOM     13  N   UNL     1       0.945  10.004  18.791  0.00  0.00    +0.000 NA
ATOM     14  C   UNL     1      -0.236  10.770  18.382  0.00  0.00    +0.000 C 
ATOM     15  C   UNL     1      -0.437  11.992  19.280  0.00  0.00    +0.000 C 
ATOM     16  C   UNL     1      -0.545  11.591  20.755  0.00  0.00    +0.000 C 
ATOM     17  C   UNL     1       0.663  10.729  21.139  0.00  0.00    +0.000 C 
ATOM     18  C   UNL     1       0.831   9.551  20.183  0.00  0.00    +0.000 C 
ENDBRANCH   1  16
BRANCH   8  19
ATOM     19  C   UNL     1      -5.811  12.351  20.960  0.00  0.00    +0.000 A 
ATOM     20  C   UNL     1      -7.008  11.632  21.054  0.00  0.00    +0.000 A 
ATOM     21  C   UNL     1      -7.475  10.891  19.976  0.00  0.00    +0.000 A 
ATOM     22  C   UNL     1      -6.751  10.856  18.786  0.00  0.00    +0.000 A 
ATOM     23  C   UNL     1      -5.565  11.577  18.643  0.00  0.00    +0.000 A 
ATOM     24  C   UNL     1      -5.117  12.339  19.732  0.00  0.00    +0.000 A 
BRANCH  23  25
ATOM     25  N   UNL     1      -4.777  11.553  17.461  0.00  0.00    +0.000 N 
ATOM     26  C   UNL     1      -3.828  10.598  17.139  0.00  0.00    +0.000 C 
ATOM     27  O   UNL     1      -3.542   9.603  17.792  0.00  0.00    +0.000 OA
ATOM     28  H   UNL     1      -4.902  12.321  16.821  0.00  0.00    +0.000 HD
BRANCH  26  29
ATOM     29  C   UNL     1      -3.056  10.797  15.878  0.00  0.00    +0.000 C 
ATOM     30  C   UNL     1      -2.373   9.682  15.129  0.00  0.00    +0.000 C 
ATOM     31  C   UNL     1      -3.567  10.372  14.524  0.00  0.00    +0.000 C 
ENDBRANCH  26  29
ENDBRANCH  23  25
ENDBRANCH   8  19
TORSDOF 4
ENDMDL
MODEL 8
REMARK VINA RESULT:      -7.3      1.577      1.713
REMARK  Name = 
REMARK  5 active torsions:
REMARK  status: ('A' for Active; 'I' for Inactive)
REMARK    1  A    between atoms: C_1  and  N_2
REMARK    2  A    between atoms: C_5  and  N_6
REMARK    3  A    between atoms: C_13  and  C_14
REMARK    4  A    between atoms: C_18  and  N_19
REMARK    5  A    between atoms: C_20  and  C_22
REMARK                            x       y       z     vdW  Elec       q    Type
REMARK                         _______ _______ _______ _____ _____    ______ ____
ROOT
ATOM      1  N   UNL     1       0.629  14.209  20.604  0.00  0.00    +0.000 N 
ATOM      2  C   UNL     1       0.168  13.078  21.251  0.00  0.00    +0.000 A 
ATOM      3  C   UNL     1      -0.761  13.275  22.408  0.00  0.00    +0.000 A 
ATOM      4  C   UNL     1      -1.156  12.203  23.105  0.00  0.00    +0.000 A 
ATOM      5  C   UNL     1      -0.745  10.923  22.686  0.00  0.00    +0.000 A 
ATOM      6  N   UNL     1      -1.009   9.733  23.178  0.00  0.00    +0.000 NA
ATOM      7  C   UNL     1      -0.377   8.860  22.332  0.00  0.00    +0.000 A 
ATOM      8  C   UNL     1       0.280   9.510  21.297  0.00  0.00    +0.000 A 
ATOM      9  N   UNL     1       0.060  10.852  21.561  0.00  0.00    +0.000 N 
ATOM     10  N   UNL     1       0.558  11.904  20.845  0.00  0.00    +0.000 NA
ATOM     11  H   UNL     1      -0.105  14.638  20.051  0.00  0.00    +0.000 HD
ENDROOT
BRANCH   1  16
ATOM     12  C   UNL     1       5.566  15.983  18.444  0.00  0.00    +0.000 C 
ATOM     13  N   UNL     1       4.271  15.782  19.097  0.00  0.00    +0.000 NA
ATOM     14  C   UNL     1       3.237  15.442  18.115  0.00  0.00    +0.000 C 
ATOM     15  C   UNL     1       1.873  15.279  18.788  0.00  0.00    +0.000 C 
ATOM     16  C   UNL     1       1.920  14.225  19.901  0.00  0.00    +0.000 C 
ATOM     17  C   UNL     1       3.057  14.562  20.872  0.00  0.00    +0.000 C 
ATOM     18  C   UNL     1       4.380  14.751  20.136  0.00  0.00    +0.000 C 
ENDBRANCH   1  16
BRANCH   8  19
ATOM     19  C   UNL     1       1.102   8.973  20.204  0.00  0.00    +0.000 A 
ATOM     20  C   UNL     1       1.223   9.716  19.024  0.00  0.00    +0.000 A 
ATOM     21  C   UNL     1       1.937   9.214  17.943  0.00  0.00    +0.000 A 
ATOM     22  C   UNL     1       2.538   7.960  18.024  0.00  0.00    +0.000 A 
ATOM     23  C   UNL     1       2.460   7.198  19.189  0.00  0.00    +0.000 A 
ATOM     24  C   UNL     1       1.757   7.726  20.281  0.00  0.00    +0.000 A 
BRANCH  23  25
ATOM     25  N   UNL     1       3.033   5.903  19.313  0.00  0.00    +0.000 N 
ATOM     26  C   UNL     1       4.242   5.499  18.773  0.00  0.00    +0.000 C 
ATOM     27  O   UNL     1       5.029   6.192  18.141  0.00  0.00    +0.000 OA
ATOM     28  H   UNL     1       2.491   5.216  19.811  0.00  0.00    +0.000 HD
BRANCH  26  29
ATOM     29  C   UNL     1       4.631   4.070  18.957  0.00  0.00    +0.000 C 
ATOM     30  C   UNL     1       3.836   3.084  19.774  0.00  0.00    +0.000 C 
ATOM     31  C   UNL     1       3.915   2.929  18.278  0.00  0.00    +0.000 C 
ENDBRANCH  26  29
ENDBRANCH  23  25
ENDBRANCH   8  19
TORSDOF 4
ENDMDL
MODEL 9
REMARK VINA RESULT:      -7.2      4.603      7.985
REMARK  Name = 
REMARK  5 active torsions:
REMARK  status: ('A' for Active; 'I' for Inactive)
REMARK    1  A    between atoms: C_1  and  N_2
REMARK    2  A    between atoms: C_5  and  N_6
REMARK    3  A    between atoms: C_13  and  C_14
REMARK    4  A    between atoms: C_18  and  N_19
REMARK    5  A    between atoms: C_20  and  C_22
REMARK                            x       y       z     vdW  Elec       q    Type
REMARK                         _______ _______ _______ _____ _____    ______ ____
ROOT
ATOM      1  N   UNL     1       1.050   6.651  19.912  0.00  0.00    +0.000 N 
ATOM      2  C   UNL     1       1.763   5.478  20.077  0.00  0.00    +0.000 A 
ATOM      3  C   UNL     1       1.108   4.375  20.848  0.00  0.00    +0.000 A 
ATOM      4  C   UNL     1       1.807   3.261  21.096  0.00  0.00    +0.000 A 
ATOM      5  C   UNL     1       3.104   3.133  20.564  0.00  0.00    +0.000 A 
ATOM      6  N   UNL     1       3.972   2.148  20.645  0.00  0.00    +0.000 NA
ATOM      7  C   UNL     1       5.042   2.567  19.897  0.00  0.00    +0.000 A 
ATOM      8  C   UNL     1       4.836   3.820  19.337  0.00  0.00    +0.000 A 
ATOM      9  N   UNL     1       3.587   4.189  19.809  0.00  0.00    +0.000 N 
ATOM     10  N   UNL     1       2.960   5.380  19.575  0.00  0.00    +0.000 NA
ATOM     11  H   UNL     1       0.290   6.526  19.251  0.00  0.00    +0.000 HD
ENDROOT
BRANCH   1  16
ATOM     12  C   UNL     1       2.073  12.027  18.416  0.00  0.00    +0.000 C 
ATOM     13  N   UNL     1       1.562  10.682  18.690  0.00  0.00    +0.000 NA
ATOM     14  C   UNL     1       2.355   9.669  17.988  0.00  0.00    +0.000 C 
ATOM     15  C   UNL     1       1.795   8.266  18.231  0.00  0.00    +0.000 C 
ATOM     16  C   UNL     1       1.722   7.945  19.729  0.00  0.00    +0.000 C 
ATOM     17  C   UNL     1       0.953   9.058  20.451  0.00  0.00    +0.000 C 
ATOM     18  C   UNL     1       1.536  10.432  20.136  0.00  0.00    +0.000 C 
ENDBRANCH   1  16
BRANCH   8  19
ATOM     19  C   UNL     1       5.722   4.649  18.509  0.00  0.00    +0.000 A 
ATOM     20  C   UNL     1       6.535   5.601  19.136  0.00  0.00    +0.000 A 
ATOM     21  C   UNL     1       7.337   6.450  18.385  0.00  0.00    +0.000 A 
ATOM     22  C   UNL     1       7.337   6.364  16.995  0.00  0.00    +0.000 A 
ATOM     23  C   UNL     1       6.558   5.415  16.332  0.00  0.00    +0.000 A 
ATOM     24  C   UNL     1       5.771   4.548  17.103  0.00  0.00    +0.000 A 
BRANCH  23  25
ATOM     25  N   UNL     1       6.503   5.304  14.916  0.00  0.00    +0.000 N 
ATOM     26  C   UNL     1       6.232   4.147  14.205  0.00  0.00    +0.000 C 
ATOM     27  O   UNL     1       5.957   3.049  14.672  0.00  0.00    +0.000 OA
ATOM     28  H   UNL     1       6.714   6.136  14.391  0.00  0.00    +0.000 HD
BRANCH  26  29
ATOM     29  C   UNL     1       6.295   4.227  12.716  0.00  0.00    +0.000 C 
ATOM     30  C   UNL     1       6.974   3.198  11.850  0.00  0.00    +0.000 C 
ATOM     31  C   UNL     1       5.475   3.343  11.810  0.00  0.00    +0.000 C 
ENDBRANCH  26  29
ENDBRANCH  23  25
ENDBRANCH   8  19
TORSDOF 4
ENDMDL
