MODEL 1
REMARK VINA RESULT:      -7.9      0.000      0.000
REMARK  Name = 
REMARK  9 active torsions:
REMARK  status: ('A' for Active; 'I' for Inactive)
REMARK    1  A    between atoms: C_1  and  C_2
REMARK    2  A    between atoms: C_3  and  C_4
REMARK    3  A    between atoms: C_5  and  C_6
REMARK    4  A    between atoms: C_6  and  C_8
REMARK    5  A    between atoms: C_9  and  C_10
REMARK    6  A    between atoms: C_13  and  N_14
REMARK    7  A    between atoms: C_19  and  C_20
REMARK    8  A    between atoms: C_19  and  C_21
REMARK    9  A    between atoms: C_24  and  O_25
REMARK                            x       y       z     vdW  Elec       q    Type
REMARK                         _______ _______ _______ _____ _____    ______ ____
ROOT
ATOM      1  C   UNL     1       2.665   6.153  18.482  0.00  0.00    +0.000 C 
ATOM      2  C   UNL     1       2.429   7.340  19.084  0.00  0.00    +0.000 C 
ENDROOT
BRANCH   1   5
ATOM      3  C   UNL     1       0.815   4.498  20.427  0.00  0.00    +0.000 C 
ATOM      4  C   UNL     1       2.227   4.158  19.960  0.00  0.00    +0.000 C 
ATOM      5  C   UNL     1       3.026   4.858  19.113  0.00  0.00    +0.000 C 
ATOM      6  C   UNL     1       4.419   4.304  18.680  0.00  0.00    +0.000 C 
ATOM      7  C   UNL     1       5.512   5.273  19.191  0.00  0.00    +0.000 C 
ATOM      8  C   UNL     1       4.508   4.185  17.132  0.00  0.00    +0.000 C 
ATOM      9  C   UNL     1       4.815   2.889  19.201  0.00  0.00    +0.000 C 
ATOM     10  C   UNL     1       3.922   2.166  20.185  0.00  0.00    +0.000 C 
ATOM     11  C   UNL     1       2.624   2.838  20.579  0.00  0.00    +0.000 C 
BRANCH  11  12
ATOM     12  O   UNL     1       2.649   3.017  22.000  0.00  0.00    +0.000 OA
ATOM     13  H   UNL     1       2.317   3.914  22.171  0.00  0.00    +0.000 HD
ENDBRANCH  11  12
ENDBRANCH   1   5
BRANCH   2  14
ATOM     14  C   UNL     1       2.030   8.566  18.331  0.00  0.00    +0.000 C 
ATOM     15  O   UNL     1       2.365   8.810  17.164  0.00  0.00    +0.000 OA
BRANCH  14  16
ATOM     16  C   UNL     1       1.154   9.469  19.128  0.00  0.00    +0.000 C 
ATOM     17  C   UNL     1       0.926   9.292  20.444  0.00  0.00    +0.000 C 
BRANCH  17  18
ATOM     18  C   UNL     1       0.002  10.150  21.202  0.00  0.00    +0.000 A 
ATOM     19  C   UNL     1      -0.268   9.844  22.543  0.00  0.00    +0.000 A 
ATOM     20  C   UNL     1      -1.173  10.611  23.285  0.00  0.00    +0.000 A 
ATOM     21  C   UNL     1      -1.801  11.711  22.687  0.00  0.00    +0.000 A 
ATOM     22  C   UNL     1      -1.528  12.044  21.357  0.00  0.00    +0.000 A 
ATOM     23  C   UNL     1      -0.629  11.265  20.623  0.00  0.00    +0.000 A 
BRANCH  21  24
ATOM     24  N   UNL     1      -2.751  12.520  23.461  0.00  0.00    +0.000 N 
ATOM     25  O   UNL     1      -3.819  11.992  23.795  0.00  0.00    +0.000 OA
ATOM     26  O   UNL     1      -2.427  13.687  23.731  0.00  0.00    +0.000 OA
ENDBRANCH  21  24
ENDBRANCH  17  18
ENDBRANCH  14  16
ENDBRANCH   2  14
TORSDOF 6
ENDMDL
MODEL 2
REMARK VINA RESULT:      -7.8      5.508      7.807
REMARK  Name = 
REMARK  9 active torsions:
REMARK  status: ('A' for Active; 'I' for Inactive)
REMARK    1  A    between atoms: C_1  and  C_2
REMARK    2  A    between atoms: C_3  and  C_4
REMARK    3  A    between atoms: C_5  and  C_6
REMARK    4  A    between atoms: C_6  and  C_8
REMARK    5  A    between atoms: C_9  and  C_10
REMARK    6  A    between atoms: C_13  and  N_14
REMARK    7  A    between atoms: C_19  and  C_20
REMARK    8  A    between atoms: C_19  and  C_21
REMARK    9  A    between atoms: C_24  and  O_25
REMARK                            x       y       z     vdW  Elec       q    Type
REMARK                         _______ _______ _______ _____ _____    ______ ____
ROOT
ATOM      1  C   UNL     1       4.789   5.585  17.668  0.00  0.00    +0.000 C 
ATOM      2  C   UNL     1       5.965   6.128  18.049  0.00  0.00    +0.000 C 
ENDROOT
BRANCH   1   5
ATOM      3  C   UNL     1       2.599   7.519  18.854  0.00  0.00    +0.000 C 
ATOM      4  C   UNL     1       2.716   6.010  19.040  0.00  0.00    +0.000 C 
ATOM      5  C   UNL     1       3.648   5.167  18.523  0.00  0.00    +0.000 C 
ATOM      6  C   UNL     1       3.555   3.627  18.756  0.00  0.00    +0.000 C 
ATOM      7  C   UNL     1       4.797   3.178  19.563  0.00  0.00    +0.000 C 
ATOM      8  C   UNL     1       3.509   2.866  17.400  0.00  0.00    +0.000 C 
ATOM      9  C   UNL     1       2.314   3.099  19.539  0.00  0.00    +0.000 C 
ATOM     10  C   UNL     1       1.329   4.074  20.144  0.00  0.00    +0.000 C 
ATOM     11  C   UNL     1       1.565   5.550  19.902  0.00  0.00    +0.000 C 
BRANCH  11  12
ATOM     12  O   UNL     1       1.705   6.176  21.183  0.00  0.00    +0.000 OA
ATOM     13  H   UNL     1       0.848   6.587  21.384  0.00  0.00    +0.000 HD
ENDBRANCH  11  12
ENDBRANCH   1   5
BRANCH   2  14
ATOM     14  C   UNL     1       7.020   6.544  17.077  0.00  0.00    +0.000 C 
ATOM     15  O   UNL     1       7.455   5.825  16.167  0.00  0.00    +0.000 OA
BRANCH  14  16
ATOM     16  C   UNL     1       7.483   7.941  17.298  0.00  0.00    +0.000 C 
ATOM     17  C   UNL     1       8.308   8.289  18.305  0.00  0.00    +0.000 C 
BRANCH  17  18
ATOM     18  C   UNL     1       8.700   9.685  18.552  0.00  0.00    +0.000 A 
ATOM     19  C   UNL     1       8.337  10.670  17.624  0.00  0.00    +0.000 A 
ATOM     20  C   UNL     1       8.728  12.002  17.803  0.00  0.00    +0.000 A 
ATOM     21  C   UNL     1       9.473  12.358  18.934  0.00  0.00    +0.000 A 
ATOM     22  C   UNL     1       9.826  11.392  19.882  0.00  0.00    +0.000 A 
ATOM     23  C   UNL     1       9.437  10.064  19.688  0.00  0.00    +0.000 A 
BRANCH  21  24
ATOM     24  N   UNL     1       9.886  13.754  19.127  0.00  0.00    +0.000 N 
ATOM     25  O   UNL     1       9.374  14.382  20.062  0.00  0.00    +0.000 OA
ATOM     26  O   UNL     1      10.721  14.222  18.338  0.00  0.00    +0.000 OA
ENDBRANCH  21  24
ENDBRANCH  17  18
ENDBRANCH  14  16
ENDBRANCH   2  14
TORSDOF 6
ENDMDL
MODEL 3
REMARK VINA RESULT:      -7.8      0.121      1.156
REMARK  Name = 
REMARK  9 active torsions:
REMARK  status: ('A' for Active; 'I' for Inactive)
REMARK    1  A    between atoms: C_1  and  C_2
REMARK    2  A    between atoms: C_3  and  C_4
REMARK    3  A    between atoms: C_5  and  C_6
REMARK    4  A    between atoms: C_6  and  C_8
REMARK    5  A    between atoms: C_9  and  C_10
REMARK    6  A    between atoms: C_13  and  N_14
REMARK    7  A    between atoms: C_19  and  C_20
REMARK    8  A    between atoms: C_19  and  C_21
REMARK    9  A    between atoms: C_24  and  O_25
REMARK                            x       y       z     vdW  Elec       q    Type
REMARK                         _______ _______ _______ _____ _____    ______ ____
ROOT
ATOM      1  C   UNL     1       2.517   6.114  18.474  0.00  0.00    +0.000 C 
ATOM      2  C   UNL     1       2.486   7.342  19.038  0.00  0.00    +0.000 C 
ENDROOT
BRANCH   1   5
ATOM      3  C   UNL     1       0.760   4.355  20.415  0.00  0.00    +0.000 C 
ATOM      4  C   UNL     1       2.183   4.085  19.934  0.00  0.00    +0.000 C 
ATOM      5  C   UNL     1       2.942   4.830  19.089  0.00  0.00    +0.000 C 
ATOM      6  C   UNL     1       4.356   4.345  18.640  0.00  0.00    +0.000 C 
ATOM      7  C   UNL     1       5.407   5.358  19.154  0.00  0.00    +0.000 C 
ATOM      8  C   UNL     1       4.438   4.246  17.090  0.00  0.00    +0.000 C 
ATOM      9  C   UNL     1       4.820   2.945  19.143  0.00  0.00    +0.000 C 
ATOM     10  C   UNL     1       3.969   2.172  20.125  0.00  0.00    +0.000 C 
ATOM     11  C   UNL     1       2.645   2.779  20.536  0.00  0.00    +0.000 C 
BRANCH  11  12
ATOM     12  O   UNL     1       2.672   2.944  21.958  0.00  0.00    +0.000 OA
ATOM     13  H   UNL     1       2.633   3.900  22.126  0.00  0.00    +0.000 HD
ENDBRANCH  11  12
ENDBRANCH   1   5
BRANCH   2  14
ATOM     14  C   UNL     1       1.994   8.553  18.318  0.00  0.00    +0.000 C 
ATOM     15  O   UNL     1       2.329   8.867  17.168  0.00  0.00    +0.000 OA
BRANCH  14  16
ATOM     16  C   UNL     1       1.024   9.344  19.124  0.00  0.00    +0.000 C 
ATOM     17  C   UNL     1       1.131   9.495  20.458  0.00  0.00    +0.000 C 
BRANCH  17  18
ATOM     18  C   UNL     1       0.125  10.220  21.250  0.00  0.00    +0.000 A 
ATOM     19  C   UNL     1      -0.497  11.347  20.694  0.00  0.00    +0.000 A 
ATOM     20  C   UNL     1      -1.428  12.088  21.431  0.00  0.00    +0.000 A 
ATOM     21  C   UNL     1      -1.757  11.686  22.732  0.00  0.00    +0.000 A 
ATOM     22  C   UNL     1      -1.162  10.553  23.295  0.00  0.00    +0.000 A 
ATOM     23  C   UNL     1      -0.228   9.826  22.552  0.00  0.00    +0.000 A 
BRANCH  21  24
ATOM     24  N   UNL     1      -2.733  12.460  23.510  0.00  0.00    +0.000 N 
ATOM     25  O   UNL     1      -2.465  13.641  23.760  0.00  0.00    +0.000 OA
ATOM     26  O   UNL     1      -3.768  11.880  23.874  0.00  0.00    +0.000 OA
ENDBRANCH  21  24
ENDBRANCH  17  18
ENDBRANCH  14  16
ENDBRANCH   2  14
TORSDOF 6
ENDMDL
MODEL 4
REMARK VINA RESULT:      -7.6      5.682      7.967
REMARK  Name = 
REMARK  9 active torsions:
REMARK  status: ('A' for Active; 'I' for Inactive)
REMARK    1  A    between atoms: C_1  and  C_2
REMARK    2  A    between atoms: C_3  and  C_4
REMARK    3  A    between atoms: C_5  and  C_6
REMARK    4  A    between atoms: C_6  and  C_8
REMARK    5  A    between atoms: C_9  and  C_10
REMARK    6  A    between atoms: C_13  and  N_14
REMARK    7  A    between atoms: C_19  and  C_20
REMARK    8  A    between atoms: C_19  and  C_21
REMARK    9  A    between atoms: C_24  and  O_25
REMARK                            x       y       z     vdW  Elec       q    Type
REMARK                         _______ _______ _______ _____ _____    ______ ____
ROOT
ATOM      1  C   UNL     1       4.936   5.428  17.618  0.00  0.00    +0.000 C 
ATOM      2  C   UNL     1       6.018   6.158  17.968  0.00  0.00    +0.000 C 
ENDROOT
BRANCH   1   5
ATOM      3  C   UNL     1       2.781   7.496  18.630  0.00  0.00    +0.000 C 
ATOM      4  C   UNL     1       2.831   5.993  18.885  0.00  0.00    +0.000 C 
ATOM      5  C   UNL     1       3.748   5.093  18.444  0.00  0.00    +0.000 C 
ATOM      6  C   UNL     1       3.584   3.569  18.738  0.00  0.00    +0.000 C 
ATOM      7  C   UNL     1       4.774   3.110  19.614  0.00  0.00    +0.000 C 
ATOM      8  C   UNL     1       3.561   2.752  17.415  0.00  0.00    +0.000 C 
ATOM      9  C   UNL     1       2.294   3.125  19.492  0.00  0.00    +0.000 C 
ATOM     10  C   UNL     1       1.325   4.162  20.013  0.00  0.00    +0.000 C 
ATOM     11  C   UNL     1       1.629   5.616  19.719  0.00  0.00    +0.000 C 
BRANCH  11  12
ATOM     12  O   UNL     1       1.744   6.292  20.976  0.00  0.00    +0.000 OA
ATOM     13  H   UNL     1       1.766   7.243  20.776  0.00  0.00    +0.000 HD
ENDBRANCH  11  12
ENDBRANCH   1   5
BRANCH   2  14
ATOM     14  C   UNL     1       7.134   6.458  17.022  0.00  0.00    +0.000 C 
ATOM     15  O   UNL     1       7.339   5.845  15.966  0.00  0.00    +0.000 OA
BRANCH  14  16
ATOM     16  C   UNL     1       7.973   7.604  17.470  0.00  0.00    +0.000 C 
ATOM     17  C   UNL     1       7.459   8.808  17.784  0.00  0.00    +0.000 C 
BRANCH  17  18
ATOM     18  C   UNL     1       8.307   9.951  18.157  0.00  0.00    +0.000 A 
ATOM     19  C   UNL     1       9.235   9.801  19.197  0.00  0.00    +0.000 A 
ATOM     20  C   UNL     1      10.030  10.877  19.609  0.00  0.00    +0.000 A 
ATOM     21  C   UNL     1       9.912  12.112  18.960  0.00  0.00    +0.000 A 
ATOM     22  C   UNL     1       9.007  12.274  17.906  0.00  0.00    +0.000 A 
ATOM     23  C   UNL     1       8.213  11.195  17.510  0.00  0.00    +0.000 A 
BRANCH  21  24
ATOM     24  N   UNL     1      10.744  13.244  19.387  0.00  0.00    +0.000 N 
ATOM     25  O   UNL     1      11.733  13.000  20.089  0.00  0.00    +0.000 OA
ATOM     26  O   UNL     1      10.403  14.379  19.021  0.00  0.00    +0.000 OA
ENDBRANCH  21  24
ENDBRANCH  17  18
ENDBRANCH  14  16
ENDBRANCH   2  14
TORSDOF 6
ENDMDL
MODEL 5
REMARK VINA RESULT:      -7.6      1.612      2.810
REMARK  Name = 
REMARK  9 active torsions:
REMARK  status: ('A' for Active; 'I' for Inactive)
REMARK    1  A    between atoms: C_1  and  C_2
REMARK    2  A    between atoms: C_3  and  C_4
REMARK    3  A    between atoms: C_5  and  C_6
REMARK    4  A    between atoms: C_6  and  C_8
REMARK    5  A    between atoms: C_9  and  C_10
REMARK    6  A    between atoms: C_13  and  N_14
REMARK    7  A    between atoms: C_19  and  C_20
REMARK    8  A    between atoms: C_19  and  C_21
REMARK    9  A    between atoms: C_24  and  O_25
REMARK                            x       y       z     vdW  Elec       q    Type
REMARK                         _______ _______ _______ _____ _____    ______ ____
ROOT
ATOM      1  C   UNL     1       2.637   7.022  18.032  0.00  0.00    +0.000 C 
ATOM      2  C   UNL     1       2.323   8.000  18.911  0.00  0.00    +0.000 C 
ENDROOT
BRANCH   1   5
ATOM      3  C   UNL     1       5.715   6.562  17.524  0.00  0.00    +0.000 C 
ATOM      4  C   UNL     1       4.693   5.562  18.056  0.00  0.00    +0.000 C 
ATOM      5  C   UNL     1       3.368   5.755  18.289  0.00  0.00    +0.000 C 
ATOM      6  C   UNL     1       2.492   4.629  18.922  0.00  0.00    +0.000 C 
ATOM      7  C   UNL     1       1.407   4.220  17.896  0.00  0.00    +0.000 C 
ATOM      8  C   UNL     1       1.815   5.127  20.230  0.00  0.00    +0.000 C 
ATOM      9  C   UNL     1       3.216   3.312  19.336  0.00  0.00    +0.000 C 
ATOM     10  C   UNL     1       4.679   3.117  19.009  0.00  0.00    +0.000 C 
ATOM     11  C   UNL     1       5.406   4.260  18.334  0.00  0.00    +0.000 C 
BRANCH  11  12
ATOM     12  O   UNL     1       5.914   3.769  17.089  0.00  0.00    +0.000 OA
ATOM     13  H   UNL     1       5.864   2.800  17.134  0.00  0.00    +0.000 HD
ENDBRANCH  11  12
ENDBRANCH   1   5
BRANCH   2  14
ATOM     14  C   UNL     1       1.543   9.214  18.529  0.00  0.00    +0.000 C 
ATOM     15  O   UNL     1       1.652   9.803  17.444  0.00  0.00    +0.000 OA
BRANCH  14  16
ATOM     16  C   UNL     1       0.586   9.637  19.588  0.00  0.00    +0.000 C 
ATOM     17  C   UNL     1       0.076  10.881  19.659  0.00  0.00    +0.000 C 
BRANCH  17  18
ATOM     18  C   UNL     1      -0.814  11.304  20.752  0.00  0.00    +0.000 A 
ATOM     19  C   UNL     1      -1.857  12.198  20.475  0.00  0.00    +0.000 A 
ATOM     20  C   UNL     1      -2.698  12.657  21.495  0.00  0.00    +0.000 A 
ATOM     21  C   UNL     1      -2.508  12.199  22.806  0.00  0.00    +0.000 A 
ATOM     22  C   UNL     1      -1.486  11.290  23.097  0.00  0.00    +0.000 A 
ATOM     23  C   UNL     1      -0.647  10.847  22.071  0.00  0.00    +0.000 A 
BRANCH  21  24
ATOM     24  N   UNL     1      -3.388  12.676  23.880  0.00  0.00    +0.000 N 
ATOM     25  O   UNL     1      -3.248  13.843  24.265  0.00  0.00    +0.000 OA
ATOM     26  O   UNL     1      -4.218  11.877  24.341  0.00  0.00    +0.000 OA
ENDBRANCH  21  24
ENDBRANCH  17  18
ENDBRANCH  14  16
ENDBRANCH   2  14
TORSDOF 6
ENDMDL
MODEL 6
REMARK VINA RESULT:      -7.5      4.035      9.341
REMARK  Name = 
REMARK  9 active torsions:
REMARK  status: ('A' for Active; 'I' for Inactive)
REMARK    1  A    between atoms: C_1  and  C_2
REMARK    2  A    between atoms: C_3  and  C_4
REMARK    3  A    between atoms: C_5  and  C_6
REMARK    4  A    between atoms: C_6  and  C_8
REMARK    5  A    between atoms: C_9  and  C_10
REMARK    6  A    between atoms: C_13  and  N_14
REMARK    7  A    between atoms: C_19  and  C_20
REMARK    8  A    between atoms: C_19  and  C_21
REMARK    9  A    between atoms: C_24  and  O_25
REMARK                            x       y       z     vdW  Elec       q    Type
REMARK                         _______ _______ _______ _____ _____    ______ ____
ROOT
ATOM      1  C   UNL     1       1.911   7.612  20.287  0.00  0.00    +0.000 C 
ATOM      2  C   UNL     1       1.408   6.398  20.600  0.00  0.00    +0.000 C 
ENDROOT
BRANCH   1   5
ATOM      3  C   UNL     1       1.754   9.456  17.733  0.00  0.00    +0.000 C 
ATOM      4  C   UNL     1       1.145   9.706  19.109  0.00  0.00    +0.000 C 
ATOM      5  C   UNL     1       1.197   8.913  20.211  0.00  0.00    +0.000 C 
ATOM      6  C   UNL     1       0.433   9.299  21.515  0.00  0.00    +0.000 C 
ATOM      7  C   UNL     1       1.471   9.521  22.642  0.00  0.00    +0.000 C 
ATOM      8  C   UNL     1      -0.556   8.172  21.930  0.00  0.00    +0.000 C 
ATOM      9  C   UNL     1      -0.443  10.588  21.472  0.00  0.00    +0.000 C 
ATOM     10  C   UNL     1      -0.431  11.471  20.245  0.00  0.00    +0.000 C 
ATOM     11  C   UNL     1       0.403  11.021  19.064  0.00  0.00    +0.000 C 
BRANCH  11  12
ATOM     12  O   UNL     1       1.362  12.051  18.800  0.00  0.00    +0.000 OA
ATOM     13  H   UNL     1       0.872  12.789  18.402  0.00  0.00    +0.000 HD
ENDBRANCH  11  12
ENDBRANCH   1   5
BRANCH   2  14
ATOM     14  C   UNL     1       2.249   5.168  20.682  0.00  0.00    +0.000 C 
ATOM     15  O   UNL     1       2.096   4.271  21.522  0.00  0.00    +0.000 OA
BRANCH  14  16
ATOM     16  C   UNL     1       3.289   5.113  19.617  0.00  0.00    +0.000 C 
ATOM     17  C   UNL     1       3.002   5.230  18.307  0.00  0.00    +0.000 C 
BRANCH  17  18
ATOM     18  C   UNL     1       4.031   5.103  17.263  0.00  0.00    +0.000 A 
ATOM     19  C   UNL     1       4.588   6.264  16.710  0.00  0.00    +0.000 A 
ATOM     20  C   UNL     1       5.539   6.185  15.686  0.00  0.00    +0.000 A 
ATOM     21  C   UNL     1       5.954   4.930  15.223  0.00  0.00    +0.000 A 
ATOM     22  C   UNL     1       5.425   3.760  15.778  0.00  0.00    +0.000 A 
ATOM     23  C   UNL     1       4.470   3.853  16.794  0.00  0.00    +0.000 A 
BRANCH  21  24
ATOM     24  N   UNL     1       6.952   4.840  14.149  0.00  0.00    +0.000 N 
ATOM     25  O   UNL     1       7.957   5.557  14.235  0.00  0.00    +0.000 OA
ATOM     26  O   UNL     1       6.726   4.053  13.217  0.00  0.00    +0.000 OA
ENDBRANCH  21  24
ENDBRANCH  17  18
ENDBRANCH  14  16
ENDBRANCH   2  14
TORSDOF 6
ENDMDL
MODEL 7
REMARK VINA RESULT:      -7.5      3.681      9.494
REMARK  Name = 
REMARK  9 active torsions:
REMARK  status: ('A' for Active; 'I' for Inactive)
REMARK    1  A    between atoms: C_1  and  C_2
REMARK    2  A    between atoms: C_3  and  C_4
REMARK    3  A    between atoms: C_5  and  C_6
REMARK    4  A    between atoms: C_6  and  C_8
REMARK    5  A    between atoms: C_9  and  C_10
REMARK    6  A    between atoms: C_13  and  N_14
REMARK    7  A    between atoms: C_19  and  C_20
REMARK    8  A    between atoms: C_19  and  C_21
REMARK    9  A    between atoms: C_24  and  O_25
REMARK                            x       y       z     vdW  Elec       q    Type
REMARK                         _______ _______ _______ _____ _____    ______ ____
ROOT
ATOM      1  C   UNL     1      -0.420  10.998  18.269  0.00  0.00    +0.000 C 
ATOM      2  C   UNL     1       0.283   9.952  18.755  0.00  0.00    +0.000 C 
ENDROOT
BRANCH   1   5
ATOM      3  C   UNL     1      -3.174  10.188  16.964  0.00  0.00    +0.000 C 
ATOM      4  C   UNL     1      -2.933  11.147  18.126  0.00  0.00    +0.000 C 
ATOM      5  C   UNL     1      -1.752  11.492  18.703  0.00  0.00    +0.000 C 
ATOM      6  C   UNL     1      -1.710  12.429  19.949  0.00  0.00    +0.000 C 
ATOM      7  C   UNL     1      -0.952  13.723  19.563  0.00  0.00    +0.000 C 
ATOM      8  C   UNL     1      -0.988  11.735  21.138  0.00  0.00    +0.000 C 
ATOM      9  C   UNL     1      -3.078  12.888  20.540  0.00  0.00    +0.000 C 
ATOM     10  C   UNL     1      -4.367  12.527  19.837  0.00  0.00    +0.000 C 
ATOM     11  C   UNL     1      -4.271  11.664  18.596  0.00  0.00    +0.000 C 
BRANCH  11  12
ATOM     12  O   UNL     1      -4.855  12.401  17.516  0.00  0.00    +0.000 OA
ATOM     13  H   UNL     1      -4.131  12.894  17.096  0.00  0.00    +0.000 HD
ENDBRANCH  11  12
ENDBRANCH   1   5
BRANCH   2  14
ATOM     14  C   UNL     1       1.641   9.583  18.254  0.00  0.00    +0.000 C 
ATOM     15  O   UNL     1       2.371  10.335  17.595  0.00  0.00    +0.000 OA
BRANCH  14  16
ATOM     16  C   UNL     1       2.046   8.208  18.656  0.00  0.00    +0.000 C 
ATOM     17  C   UNL     1       2.736   7.382  17.846  0.00  0.00    +0.000 C 
BRANCH  17  18
ATOM     18  C   UNL     1       3.067   6.001  18.231  0.00  0.00    +0.000 A 
ATOM     19  C   UNL     1       4.297   5.743  18.853  0.00  0.00    +0.000 A 
ATOM     20  C   UNL     1       4.667   4.437  19.195  0.00  0.00    +0.000 A 
ATOM     21  C   UNL     1       3.788   3.378  18.933  0.00  0.00    +0.000 A 
ATOM     22  C   UNL     1       2.548   3.620  18.334  0.00  0.00    +0.000 A 
ATOM     23  C   UNL     1       2.194   4.927  17.988  0.00  0.00    +0.000 A 
BRANCH  21  24
ATOM     24  N   UNL     1       4.170   2.007  19.292  0.00  0.00    +0.000 N 
ATOM     25  O   UNL     1       3.742   1.086  18.585  0.00  0.00    +0.000 OA
ATOM     26  O   UNL     1       4.898   1.852  20.284  0.00  0.00    +0.000 OA
ENDBRANCH  21  24
ENDBRANCH  17  18
ENDBRANCH  14  16
ENDBRANCH   2  14
TORSDOF 6
ENDMDL
MODEL 8
REMARK VINA RESULT:      -7.5      3.714      9.471
REMARK  Name = 
REMARK  9 active torsions:
REMARK  status: ('A' for Active; 'I' for Inactive)
REMARK    1  A    between atoms: C_1  and  C_2
REMARK    2  A    between atoms: C_3  and  C_4
REMARK    3  A    between atoms: C_5  and  C_6
REMARK    4  A    between atoms: C_6  and  C_8
REMARK    5  A    between atoms: C_9  and  C_10
REMARK    6  A    between atoms: C_13  and  N_14
REMARK    7  A    between atoms: C_19  and  C_20
REMARK    8  A    between atoms: C_19  and  C_21
REMARK    9  A    between atoms: C_24  and  O_25
REMARK                            x       y       z     vdW  Elec       q    Type
REMARK                         _______ _______ _______ _____ _____    ______ ____
ROOT
ATOM      1  C   UNL     1      -0.275  11.126  18.255  0.00  0.00    +0.000 C 
ATOM      2  C   UNL     1       0.353   9.959  18.519  0.00  0.00    +0.000 C 
ENDROOT
BRANCH   1   5
ATOM      3  C   UNL     1      -2.826  10.309  16.590  0.00  0.00    +0.000 C 
ATOM      4  C   UNL     1      -2.763  11.167  17.850  0.00  0.00    +0.000 C 
ATOM      5  C   UNL     1      -1.671  11.513  18.581  0.00  0.00    +0.000 C 
ATOM      6  C   UNL     1      -1.815  12.333  19.901  0.00  0.00    +0.000 C 
ATOM      7  C   UNL     1      -1.096  13.691  19.714  0.00  0.00    +0.000 C 
ATOM      8  C   UNL     1      -1.182  11.566  21.097  0.00  0.00    +0.000 C 
ATOM      9  C   UNL     1      -3.261  12.669  20.376  0.00  0.00    +0.000 C 
ATOM     10  C   UNL     1      -4.446  12.313  19.507  0.00  0.00    +0.000 C 
ATOM     11  C   UNL     1      -4.172  11.574  18.215  0.00  0.00    +0.000 C 
BRANCH  11  12
ATOM     12  O   UNL     1      -4.681  12.378  17.145  0.00  0.00    +0.000 OA
ATOM     13  H   UNL     1      -5.644  12.251  17.139  0.00  0.00    +0.000 HD
ENDBRANCH  11  12
ENDBRANCH   1   5
BRANCH   2  14
ATOM     14  C   UNL     1       1.783   9.710  18.171  0.00  0.00    +0.000 C 
ATOM     15  O   UNL     1       2.527  10.543  17.634  0.00  0.00    +0.000 OA
BRANCH  14  16
ATOM     16  C   UNL     1       2.241   8.349  18.565  0.00  0.00    +0.000 C 
ATOM     17  C   UNL     1       2.721   7.454  17.681  0.00  0.00    +0.000 C 
BRANCH  17  18
ATOM     18  C   UNL     1       3.103   6.089  18.075  0.00  0.00    +0.000 A 
ATOM     19  C   UNL     1       2.187   5.044  17.887  0.00  0.00    +0.000 A 
ATOM     20  C   UNL     1       2.498   3.739  18.288  0.00  0.00    +0.000 A 
ATOM     21  C   UNL     1       3.746   3.471  18.863  0.00  0.00    +0.000 A 
ATOM     22  C   UNL     1       4.680   4.497  19.038  0.00  0.00    +0.000 A 
ATOM     23  C   UNL     1       4.355   5.797  18.642  0.00  0.00    +0.000 A 
BRANCH  21  24
ATOM     24  N   UNL     1       4.078   2.103  19.285  0.00  0.00    +0.000 N 
ATOM     25  O   UNL     1       3.569   1.167  18.656  0.00  0.00    +0.000 OA
ATOM     26  O   UNL     1       4.846   1.969  20.250  0.00  0.00    +0.000 OA
ENDBRANCH  21  24
ENDBRANCH  17  18
ENDBRANCH  14  16
ENDBRANCH   2  14
TORSDOF 6
ENDMDL
MODEL 9
REMARK VINA RESULT:      -7.4      5.230      7.751
REMARK  Name = 
REMARK  9 active torsions:
REMARK  status: ('A' for Active; 'I' for Inactive)
REMARK    1  A    between atoms: C_1  and  C_2
REMARK    2  A    between atoms: C_3  and  C_4
REMARK    3  A    between atoms: C_5  and  C_6
REMARK    4  A    between atoms: C_6  and  C_8
REMARK    5  A    between atoms: C_9  and  C_10
REMARK    6  A    between atoms: C_13  and  N_14
REMARK    7  A    between atoms: C_19  and  C_20
REMARK    8  A    between atoms: C_19  and  C_21
REMARK    9  A    between atoms: C_24  and  O_25
REMARK                            x       y       z     vdW  Elec       q    Type
REMARK                         _______ _______ _______ _____ _____    ______ ____
ROOT
ATOM      1  C   UNL     1       5.043   4.488  18.203  0.00  0.00    +0.000 C 
ATOM      2  C   UNL     1       5.897   5.504  18.448  0.00  0.00    +0.000 C 
ENDROOT
BRANCH   1   5
ATOM      3  C   UNL     1       2.834   6.649  18.829  0.00  0.00    +0.000 C 
ATOM      4  C   UNL     1       2.791   5.153  19.122  0.00  0.00    +0.000 C 
ATOM      5  C   UNL     1       3.732   4.212  18.845  0.00  0.00    +0.000 C 
ATOM      6  C   UNL     1       3.472   2.703  19.144  0.00  0.00    +0.000 C 
ATOM      7  C   UNL     1       4.499   2.230  20.201  0.00  0.00    +0.000 C 
ATOM      8  C   UNL     1       3.620   1.851  17.852  0.00  0.00    +0.000 C 
ATOM      9  C   UNL     1       2.068   2.320  19.703  0.00  0.00    +0.000 C 
ATOM     10  C   UNL     1       1.069   3.402  20.049  0.00  0.00    +0.000 C 
ATOM     11  C   UNL     1       1.464   4.836  19.772  0.00  0.00    +0.000 C 
BRANCH  11  12
ATOM     12  O   UNL     1       1.412   5.543  21.016  0.00  0.00    +0.000 OA
ATOM     13  H   UNL     1       2.313   5.527  21.381  0.00  0.00    +0.000 HD
ENDBRANCH  11  12
ENDBRANCH   1   5
BRANCH   2  14
ATOM     14  C   UNL     1       7.174   5.691  17.697  0.00  0.00    +0.000 C 
ATOM     15  O   UNL     1       7.839   4.767  17.209  0.00  0.00    +0.000 OA
BRANCH  14  16
ATOM     16  C   UNL     1       7.559   7.123  17.567  0.00  0.00    +0.000 C 
ATOM     17  C   UNL     1       8.196   7.801  18.542  0.00  0.00    +0.000 C 
BRANCH  17  18
ATOM     18  C   UNL     1       8.507   9.234  18.427  0.00  0.00    +0.000 A 
ATOM     19  C   UNL     1       9.457   9.797  19.291  0.00  0.00    +0.000 A 
ATOM     20  C   UNL     1       9.750  11.165  19.240  0.00  0.00    +0.000 A 
ATOM     21  C   UNL     1       9.100  11.977  18.302  0.00  0.00    +0.000 A 
ATOM     22  C   UNL     1       8.165  11.429  17.419  0.00  0.00    +0.000 A 
ATOM     23  C   UNL     1       7.875  10.063  17.484  0.00  0.00    +0.000 A 
BRANCH  21  24
ATOM     24  N   UNL     1       9.403  13.412  18.245  0.00  0.00    +0.000 N 
ATOM     25  O   UNL     1      10.589  13.747  18.133  0.00  0.00    +0.000 OA
ATOM     26  O   UNL     1       8.451  14.205  18.315  0.00  0.00    +0.000 OA
ENDBRANCH  21  24
ENDBRANCH  17  18
ENDBRANCH  14  16
ENDBRANCH   2  14
TORSDOF 6
ENDMDL
