MODEL 1
REMARK VINA RESULT:      -6.2      0.000      0.000
REMARK  Name = 
REMARK  7 active torsions:
REMARK  status: ('A' for Active; 'I' for Inactive)
REMARK    1  A    between atoms: C_1  and  C_2
REMARK    2  A    between atoms: C_2  and  C_3
REMARK    3  A    between atoms: C_6  and  C_7
REMARK    4  A    between atoms: C_15  and  O_16
REMARK    5  A    between atoms: O_16  and  C_17
REMARK    6  A    between atoms: C_19  and  O_20
REMARK    7  A    between atoms: C_21  and  C_22
REMARK                            x       y       z     vdW  Elec       q    Type
REMARK                         _______ _______ _______ _____ _____    ______ ____
ROOT
ATOM      1  C   UNL     1       6.760   5.049  16.489  0.00  0.00    +0.000 C 
ATOM      2  O   UNL     1       7.484   4.385  15.748  0.00  0.00    +0.000 OA
ATOM      3  N   UNL     1       5.443   4.655  16.749  0.00  0.00    +0.000 N 
ATOM      4  C   UNL     1       4.998   3.326  16.365  0.00  0.00    +0.000 C 
ATOM      5  C   UNL     1       4.432   2.624  17.592  0.00  0.00    +0.000 C 
ATOM      6  C   UNL     1       3.317   3.447  18.287  0.00  0.00    +0.000 C 
ATOM      7  C   UNL     1       3.651   4.944  18.412  0.00  0.00    +0.000 C 
ATOM      8  C   UNL     1       4.349   5.517  17.179  0.00  0.00    +0.000 C 
ATOM      9  C   UNL     1       2.977   2.769  19.669  0.00  0.00    +0.000 C 
ATOM     10  C   UNL     1       1.819   2.030  18.969  0.00  0.00    +0.000 C 
ATOM     11  C   UNL     1       1.845   3.116  17.870  0.00  0.00    +0.000 C 
ENDROOT
BRANCH   1  15
ATOM     12  C   UNL     1       8.112   7.959  18.274  0.00  0.00    +0.000 A 
ATOM     13  N   UNL     1       7.837   8.469  17.070  0.00  0.00    +0.000 NA
ATOM     14  N   UNL     1       7.409   7.409  16.364  0.00  0.00    +0.000 N 
ATOM     15  C   UNL     1       7.278   6.255  17.100  0.00  0.00    +0.000 A 
ATOM     16  C   UNL     1       7.851   6.563  18.326  0.00  0.00    +0.000 A 
ATOM     17  C   UNL     1       8.163   5.681  19.471  0.00  0.00    +0.000 C 
ATOM     18  H   UNL     1       7.196   7.530  15.379  0.00  0.00    +0.000 HD
BRANCH  12  20
ATOM     19  C   UNL     1       9.137  10.169  18.885  0.00  0.00    +0.000 C 
ATOM     20  C   UNL     1       8.629   8.824  19.377  0.00  0.00    +0.000 C 
ENDBRANCH  12  20
ENDBRANCH   1  15
BRANCH   9  21
ATOM     21  O   UNL     1       2.581   3.660  20.741  0.00  0.00    +0.000 OA
ATOM     22  C   UNL     1       1.618   3.134  21.648  0.00  0.00    +0.000 C 
ENDBRANCH   9  21
BRANCH  11  23
ATOM     23  O   UNL     1       0.859   4.160  18.037  0.00  0.00    +0.000 OA
ATOM     24  H   UNL     1       0.189   3.783  18.644  0.00  0.00    +0.000 HD
ENDBRANCH  11  23
TORSDOF 4
ENDMDL
MODEL 2
REMARK VINA RESULT:      -6.1      4.430      6.265
REMARK  Name = 
REMARK  7 active torsions:
REMARK  status: ('A' for Active; 'I' for Inactive)
REMARK    1  A    between atoms: C_1  and  C_2
REMARK    2  A    between atoms: C_2  and  C_3
REMARK    3  A    between atoms: C_6  and  C_7
REMARK    4  A    between atoms: C_15  and  O_16
REMARK    5  A    between atoms: O_16  and  C_17
REMARK    6  A    between atoms: C_19  and  O_20
REMARK    7  A    between atoms: C_21  and  C_22
REMARK                            x       y       z     vdW  Elec       q    Type
REMARK                         _______ _______ _______ _____ _____    ______ ____
ROOT
ATOM      1  C   UNL     1       3.482   6.055  19.044  0.00  0.00    +0.000 C 
ATOM      2  O   UNL     1       3.557   5.335  20.040  0.00  0.00    +0.000 OA
ATOM      3  N   UNL     1       2.460   7.001  18.917  0.00  0.00    +0.000 N 
ATOM      4  C   UNL     1       1.635   7.332  20.067  0.00  0.00    +0.000 C 
ATOM      5  C   UNL     1       1.690   8.837  20.293  0.00  0.00    +0.000 C 
ATOM      6  C   UNL     1       1.299   9.644  19.028  0.00  0.00    +0.000 C 
ATOM      7  C   UNL     1       1.926   9.094  17.735  0.00  0.00    +0.000 C 
ATOM      8  C   UNL     1       1.952   7.567  17.672  0.00  0.00    +0.000 C 
ATOM      9  C   UNL     1       1.627  11.165  19.279  0.00  0.00    +0.000 C 
ATOM     10  C   UNL     1       0.158  11.364  19.704  0.00  0.00    +0.000 C 
ATOM     11  C   UNL     1      -0.200  10.082  18.918  0.00  0.00    +0.000 C 
ENDROOT
BRANCH   1  15
ATOM     12  C   UNL     1       5.913   5.432  16.363  0.00  0.00    +0.000 A 
ATOM     13  N   UNL     1       6.053   6.745  16.572  0.00  0.00    +0.000 NA
ATOM     14  N   UNL     1       5.120   7.022  17.498  0.00  0.00    +0.000 N 
ATOM     15  C   UNL     1       4.465   5.918  17.989  0.00  0.00    +0.000 A 
ATOM     16  C   UNL     1       4.883   4.878  17.170  0.00  0.00    +0.000 A 
ATOM     17  C   UNL     1       4.398   3.484  17.091  0.00  0.00    +0.000 C 
ATOM     18  H   UNL     1       4.983   7.987  17.782  0.00  0.00    +0.000 HD
BRANCH  12  20
ATOM     19  C   UNL     1       6.042   4.342  14.104  0.00  0.00    +0.000 C 
ATOM     20  C   UNL     1       6.778   4.713  15.381  0.00  0.00    +0.000 C 
ENDBRANCH  12  20
ENDBRANCH   1  15
BRANCH   9  21
ATOM     21  O   UNL     1       2.042  11.932  18.121  0.00  0.00    +0.000 OA
ATOM     22  C   UNL     1       2.613  13.205  18.405  0.00  0.00    +0.000 C 
ENDBRANCH   9  21
BRANCH  11  23
ATOM     23  O   UNL     1      -0.724  10.321  17.592  0.00  0.00    +0.000 OA
ATOM     24  H   UNL     1      -0.449  11.234  17.370  0.00  0.00    +0.000 HD
ENDBRANCH  11  23
TORSDOF 4
ENDMDL
MODEL 3
REMARK VINA RESULT:      -6.0      3.907      4.940
REMARK  Name = 
REMARK  7 active torsions:
REMARK  status: ('A' for Active; 'I' for Inactive)
REMARK    1  A    between atoms: C_1  and  C_2
REMARK    2  A    between atoms: C_2  and  C_3
REMARK    3  A    between atoms: C_6  and  C_7
REMARK    4  A    between atoms: C_15  and  O_16
REMARK    5  A    between atoms: O_16  and  C_17
REMARK    6  A    between atoms: C_19  and  O_20
REMARK    7  A    between atoms: C_21  and  C_22
REMARK                            x       y       z     vdW  Elec       q    Type
REMARK                         _______ _______ _______ _____ _____    ______ ____
ROOT
ATOM      1  C   UNL     1       3.278   7.584  17.767  0.00  0.00    +0.000 C 
ATOM      2  O   UNL     1       4.300   8.124  17.344  0.00  0.00    +0.000 OA
ATOM      3  N   UNL     1       3.111   6.198  17.681  0.00  0.00    +0.000 N 
ATOM      4  C   UNL     1       4.243   5.353  17.338  0.00  0.00    +0.000 C 
ATOM      5  C   UNL     1       4.414   4.298  18.423  0.00  0.00    +0.000 C 
ATOM      6  C   UNL     1       3.118   3.484  18.671  0.00  0.00    +0.000 C 
ATOM      7  C   UNL     1       1.850   4.354  18.717  0.00  0.00    +0.000 C 
ATOM      8  C   UNL     1       1.843   5.476  17.679  0.00  0.00    +0.000 C 
ATOM      9  C   UNL     1       3.315   2.605  19.965  0.00  0.00    +0.000 C 
ATOM     10  C   UNL     1       3.724   1.433  19.051  0.00  0.00    +0.000 C 
ATOM     11  C   UNL     1       2.983   2.134  17.890  0.00  0.00    +0.000 C 
ENDROOT
BRANCH   1  15
ATOM     12  C   UNL     1       0.642   9.467  19.495  0.00  0.00    +0.000 A 
ATOM     13  N   UNL     1       0.759  10.136  18.344  0.00  0.00    +0.000 NA
ATOM     14  N   UNL     1       1.773   9.517  17.716  0.00  0.00    +0.000 N 
ATOM     15  C   UNL     1       2.235   8.394  18.360  0.00  0.00    +0.000 A 
ATOM     16  C   UNL     1       1.591   8.413  19.589  0.00  0.00    +0.000 A 
ATOM     17  C   UNL     1       1.804   7.564  20.781  0.00  0.00    +0.000 C 
ATOM     18  H   UNL     1       2.102   9.890  16.831  0.00  0.00    +0.000 HD
BRANCH  12  20
ATOM     19  C   UNL     1       0.108  10.886  21.497  0.00  0.00    +0.000 C 
ATOM     20  C   UNL     1      -0.390   9.847  20.505  0.00  0.00    +0.000 C 
ENDBRANCH  12  20
ENDBRANCH   1  15
BRANCH   9  21
ATOM     21  O   UNL     1       2.133   2.375  20.771  0.00  0.00    +0.000 OA
ATOM     22  C   UNL     1       2.086   3.085  22.003  0.00  0.00    +0.000 C 
ENDBRANCH   9  21
BRANCH  11  23
ATOM     23  O   UNL     1       1.646   1.640  17.648  0.00  0.00    +0.000 OA
ATOM     24  H   UNL     1       1.678   1.249  16.751  0.00  0.00    +0.000 HD
ENDBRANCH  11  23
TORSDOF 4
ENDMDL
MODEL 4
REMARK VINA RESULT:      -5.8      2.349      4.185
REMARK  Name = 
REMARK  7 active torsions:
REMARK  status: ('A' for Active; 'I' for Inactive)
REMARK    1  A    between atoms: C_1  and  C_2
REMARK    2  A    between atoms: C_2  and  C_3
REMARK    3  A    between atoms: C_6  and  C_7
REMARK    4  A    between atoms: C_15  and  O_16
REMARK    5  A    between atoms: O_16  and  C_17
REMARK    6  A    between atoms: C_19  and  O_20
REMARK    7  A    between atoms: C_21  and  C_22
REMARK                            x       y       z     vdW  Elec       q    Type
REMARK                         _______ _______ _______ _____ _____    ______ ____
ROOT
ATOM      1  C   UNL     1       6.058   6.285  17.218  0.00  0.00    +0.000 C 
ATOM      2  O   UNL     1       6.364   7.456  17.439  0.00  0.00    +0.000 OA
ATOM      3  N   UNL     1       5.326   5.546  18.153  0.00  0.00    +0.000 N 
ATOM      4  C   UNL     1       4.693   6.222  19.273  0.00  0.00    +0.000 C 
ATOM      5  C   UNL     1       3.208   5.882  19.275  0.00  0.00    +0.000 C 
ATOM      6  C   UNL     1       2.948   4.353  19.279  0.00  0.00    +0.000 C 
ATOM      7  C   UNL     1       3.856   3.577  18.310  0.00  0.00    +0.000 C 
ATOM      8  C   UNL     1       5.295   4.093  18.277  0.00  0.00    +0.000 C 
ATOM      9  C   UNL     1       1.413   4.102  19.027  0.00  0.00    +0.000 C 
ATOM     10  C   UNL     1       1.224   4.009  20.555  0.00  0.00    +0.000 C 
ATOM     11  C   UNL     1       2.731   3.688  20.679  0.00  0.00    +0.000 C 
ENDROOT
BRANCH   1  15
ATOM     12  C   UNL     1       6.828   4.585  14.056  0.00  0.00    +0.000 A 
ATOM     13  N   UNL     1       7.958   5.256  14.299  0.00  0.00    +0.000 NA
ATOM     14  N   UNL     1       7.683   5.952  15.414  0.00  0.00    +0.000 N 
ATOM     15  C   UNL     1       6.462   5.664  15.974  0.00  0.00    +0.000 A 
ATOM     16  C   UNL     1       5.833   4.861  15.032  0.00  0.00    +0.000 A 
ATOM     17  C   UNL     1       4.437   4.375  14.985  0.00  0.00    +0.000 C 
ATOM     18  H   UNL     1       8.378   6.602  15.770  0.00  0.00    +0.000 HD
BRANCH  12  20
ATOM     19  C   UNL     1       7.253   4.292  11.598  0.00  0.00    +0.000 C 
ATOM     20  C   UNL     1       6.711   3.676  12.877  0.00  0.00    +0.000 C 
ENDBRANCH  12  20
ENDBRANCH   1  15
BRANCH   9  21
ATOM     21  O   UNL     1       1.071   2.902  18.291  0.00  0.00    +0.000 OA
ATOM     22  C   UNL     1       0.330   1.929  19.019  0.00  0.00    +0.000 C 
ENDBRANCH   9  21
BRANCH  11  23
ATOM     23  O   UNL     1       3.034   2.279  20.798  0.00  0.00    +0.000 OA
ATOM     24  H   UNL     1       2.737   1.883  19.953  0.00  0.00    +0.000 HD
ENDBRANCH  11  23
TORSDOF 4
ENDMDL
MODEL 5
REMARK VINA RESULT:      -5.7      2.726      4.675
REMARK  Name = 
REMARK  7 active torsions:
REMARK  status: ('A' for Active; 'I' for Inactive)
REMARK    1  A    between atoms: C_1  and  C_2
REMARK    2  A    between atoms: C_2  and  C_3
REMARK    3  A    between atoms: C_6  and  C_7
REMARK    4  A    between atoms: C_15  and  O_16
REMARK    5  A    between atoms: O_16  and  C_17
REMARK    6  A    between atoms: C_19  and  O_20
REMARK    7  A    between atoms: C_21  and  C_22
REMARK                            x       y       z     vdW  Elec       q    Type
REMARK                         _______ _______ _______ _____ _____    ______ ____
ROOT
ATOM      1  C   UNL     1       7.093   4.417  16.931  0.00  0.00    +0.000 C 
ATOM      2  O   UNL     1       8.142   4.271  17.557  0.00  0.00    +0.000 OA
ATOM      3  N   UNL     1       5.859   4.430  17.589  0.00  0.00    +0.000 N 
ATOM      4  C   UNL     1       5.815   4.538  19.038  0.00  0.00    +0.000 C 
ATOM      5  C   UNL     1       4.942   5.728  19.415  0.00  0.00    +0.000 C 
ATOM      6  C   UNL     1       3.530   5.656  18.780  0.00  0.00    +0.000 C 
ATOM      7  C   UNL     1       3.545   5.223  17.304  0.00  0.00    +0.000 C 
ATOM      8  C   UNL     1       4.560   4.120  17.004  0.00  0.00    +0.000 C 
ATOM      9  C   UNL     1       2.800   7.033  19.016  0.00  0.00    +0.000 C 
ATOM     10  C   UNL     1       2.133   6.414  20.260  0.00  0.00    +0.000 C 
ATOM     11  C   UNL     1       2.404   5.016  19.660  0.00  0.00    +0.000 C 
ENDROOT
BRANCH   1  15
ATOM     12  C   UNL     1       7.020   4.610  13.265  0.00  0.00    +0.000 A 
ATOM     13  N   UNL     1       7.891   5.573  13.581  0.00  0.00    +0.000 NA
ATOM     14  N   UNL     1       7.884   5.582  14.924  0.00  0.00    +0.000 N 
ATOM     15  C   UNL     1       7.137   4.577  15.492  0.00  0.00    +0.000 A 
ATOM     16  C   UNL     1       6.463   4.003  14.423  0.00  0.00    +0.000 A 
ATOM     17  C   UNL     1       5.384   2.993  14.419  0.00  0.00    +0.000 C 
ATOM     18  H   UNL     1       8.429   6.286  15.413  0.00  0.00    +0.000 HD
BRANCH  12  20
ATOM     19  C   UNL     1       7.216   2.891  11.443  0.00  0.00    +0.000 C 
ATOM     20  C   UNL     1       6.727   4.275  11.839  0.00  0.00    +0.000 C 
ENDBRANCH  12  20
ENDBRANCH   1  15
BRANCH   9  21
ATOM     21  O   UNL     1       1.886   7.461  17.976  0.00  0.00    +0.000 OA
ATOM     22  C   UNL     1       1.740   8.870  17.834  0.00  0.00    +0.000 C 
ENDBRANCH   9  21
BRANCH  11  23
ATOM     23  O   UNL     1       1.275   4.433  18.969  0.00  0.00    +0.000 OA
ATOM     24  H   UNL     1       0.506   4.603  19.551  0.00  0.00    +0.000 HD
ENDBRANCH  11  23
TORSDOF 4
ENDMDL
MODEL 6
REMARK VINA RESULT:      -5.7      2.846      4.985
REMARK  Name = 
REMARK  7 active torsions:
REMARK  status: ('A' for Active; 'I' for Inactive)
REMARK    1  A    between atoms: C_1  and  C_2
REMARK    2  A    between atoms: C_2  and  C_3
REMARK    3  A    between atoms: C_6  and  C_7
REMARK    4  A    between atoms: C_15  and  O_16
REMARK    5  A    between atoms: O_16  and  C_17
REMARK    6  A    between atoms: C_19  and  O_20
REMARK    7  A    between atoms: C_21  and  C_22
REMARK                            x       y       z     vdW  Elec       q    Type
REMARK                         _______ _______ _______ _____ _____    ______ ____
ROOT
ATOM      1  C   UNL     1       5.510   5.848  15.294  0.00  0.00    +0.000 C 
ATOM      2  O   UNL     1       5.713   7.049  15.114  0.00  0.00    +0.000 OA
ATOM      3  N   UNL     1       5.024   5.378  16.519  0.00  0.00    +0.000 N 
ATOM      4  C   UNL     1       4.502   6.318  17.497  0.00  0.00    +0.000 C 
ATOM      5  C   UNL     1       3.085   5.902  17.869  0.00  0.00    +0.000 C 
ATOM      6  C   UNL     1       3.004   4.431  18.353  0.00  0.00    +0.000 C 
ATOM      7  C   UNL     1       3.830   3.458  17.494  0.00  0.00    +0.000 C 
ATOM      8  C   UNL     1       5.177   4.030  17.052  0.00  0.00    +0.000 C 
ATOM      9  C   UNL     1       1.486   4.022  18.470  0.00  0.00    +0.000 C 
ATOM     10  C   UNL     1       1.553   4.377  19.969  0.00  0.00    +0.000 C 
ATOM     11  C   UNL     1       3.087   4.202  19.900  0.00  0.00    +0.000 C 
ENDROOT
BRANCH   1  15
ATOM     12  C   UNL     1       6.441   3.604  12.541  0.00  0.00    +0.000 A 
ATOM     13  N   UNL     1       5.241   3.134  12.896  0.00  0.00    +0.000 NA
ATOM     14  N   UNL     1       4.903   3.887  13.956  0.00  0.00    +0.000 N 
ATOM     15  C   UNL     1       5.781   4.911  14.225  0.00  0.00    +0.000 A 
ATOM     16  C   UNL     1       6.859   4.668  13.386  0.00  0.00    +0.000 A 
ATOM     17  C   UNL     1       8.184   5.322  13.336  0.00  0.00    +0.000 C 
ATOM     18  H   UNL     1       4.044   3.676  14.454  0.00  0.00    +0.000 HD
BRANCH  12  20
ATOM     19  C   UNL     1       6.809   1.577  11.105  0.00  0.00    +0.000 C 
ATOM     20  C   UNL     1       7.183   3.024  11.383  0.00  0.00    +0.000 C 
ENDBRANCH  12  20
ENDBRANCH   1  15
BRANCH   9  21
ATOM     21  O   UNL     1       1.171   2.637  18.179  0.00  0.00    +0.000 OA
ATOM     22  C   UNL     1       0.467   1.943  19.204  0.00  0.00    +0.000 C 
ENDBRANCH   9  21
BRANCH  11  23
ATOM     23  O   UNL     1       3.563   2.915  20.354  0.00  0.00    +0.000 OA
ATOM     24  H   UNL     1       3.981   2.506  19.569  0.00  0.00    +0.000 HD
ENDBRANCH  11  23
TORSDOF 4
ENDMDL
MODEL 7
REMARK VINA RESULT:      -5.7      4.471      6.433
REMARK  Name = 
REMARK  7 active torsions:
REMARK  status: ('A' for Active; 'I' for Inactive)
REMARK    1  A    between atoms: C_1  and  C_2
REMARK    2  A    between atoms: C_2  and  C_3
REMARK    3  A    between atoms: C_6  and  C_7
REMARK    4  A    between atoms: C_15  and  O_16
REMARK    5  A    between atoms: O_16  and  C_17
REMARK    6  A    between atoms: C_19  and  O_20
REMARK    7  A    between atoms: C_21  and  C_22
REMARK                            x       y       z     vdW  Elec       q    Type
REMARK                         _______ _______ _______ _____ _____    ______ ____
ROOT
ATOM      1  C   UNL     1       2.254   8.399  18.104  0.00  0.00    +0.000 C 
ATOM      2  O   UNL     1       2.022   9.106  17.124  0.00  0.00    +0.000 OA
ATOM      3  N   UNL     1       3.059   7.261  17.994  0.00  0.00    +0.000 N 
ATOM      4  C   UNL     1       3.846   7.046  16.791  0.00  0.00    +0.000 C 
ATOM      5  C   UNL     1       5.306   6.864  17.184  0.00  0.00    +0.000 C 
ATOM      6  C   UNL     1       5.503   5.739  18.233  0.00  0.00    +0.000 C 
ATOM      7  C   UNL     1       4.458   5.766  19.362  0.00  0.00    +0.000 C 
ATOM      8  C   UNL     1       3.048   6.101  18.878  0.00  0.00    +0.000 C 
ATOM      9  C   UNL     1       6.988   5.796  18.759  0.00  0.00    +0.000 C 
ATOM     10  C   UNL     1       7.349   4.715  17.720  0.00  0.00    +0.000 C 
ATOM     11  C   UNL     1       5.856   4.320  17.673  0.00  0.00    +0.000 C 
ENDROOT
BRANCH   1  15
ATOM     12  C   UNL     1       0.675   9.500  21.231  0.00  0.00    +0.000 A 
ATOM     13  N   UNL     1       1.402   8.453  21.635  0.00  0.00    +0.000 NA
ATOM     14  N   UNL     1       1.935   7.977  20.498  0.00  0.00    +0.000 N 
ATOM     15  C   UNL     1       1.684   8.749  19.388  0.00  0.00    +0.000 A 
ATOM     16  C   UNL     1       0.757   9.686  19.824  0.00  0.00    +0.000 A 
ATOM     17  C   UNL     1      -0.021  10.677  19.051  0.00  0.00    +0.000 C 
ATOM     18  H   UNL     1       2.488   7.126  20.534  0.00  0.00    +0.000 HD
BRANCH  12  20
ATOM     19  C   UNL     1      -0.419   9.572  23.491  0.00  0.00    +0.000 C 
ATOM     20  C   UNL     1      -0.099  10.323  22.208  0.00  0.00    +0.000 C 
ENDBRANCH  12  20
ENDBRANCH   1  15
BRANCH   9  21
ATOM     21  O   UNL     1       7.194   5.414  20.142  0.00  0.00    +0.000 OA
ATOM     22  C   UNL     1       8.551   5.226  20.528  0.00  0.00    +0.000 C 
ENDBRANCH   9  21
BRANCH  11  23
ATOM     23  O   UNL     1       5.513   3.180  18.494  0.00  0.00    +0.000 OA
ATOM     24  H   UNL     1       5.903   2.409  18.034  0.00  0.00    +0.000 HD
ENDBRANCH  11  23
TORSDOF 4
ENDMDL
MODEL 8
REMARK VINA RESULT:      -5.6      4.207      6.115
REMARK  Name = 
REMARK  7 active torsions:
REMARK  status: ('A' for Active; 'I' for Inactive)
REMARK    1  A    between atoms: C_1  and  C_2
REMARK    2  A    between atoms: C_2  and  C_3
REMARK    3  A    between atoms: C_6  and  C_7
REMARK    4  A    between atoms: C_15  and  O_16
REMARK    5  A    between atoms: O_16  and  C_17
REMARK    6  A    between atoms: C_19  and  O_20
REMARK    7  A    between atoms: C_21  and  C_22
REMARK                            x       y       z     vdW  Elec       q    Type
REMARK                         _______ _______ _______ _____ _____    ______ ____
ROOT
ATOM      1  C   UNL     1       3.177   5.501  19.432  0.00  0.00    +0.000 C 
ATOM      2  O   UNL     1       3.173   4.861  20.483  0.00  0.00    +0.000 OA
ATOM      3  N   UNL     1       2.265   6.541  19.221  0.00  0.00    +0.000 N 
ATOM      4  C   UNL     1       1.483   7.053  20.334  0.00  0.00    +0.000 C 
ATOM      5  C   UNL     1       1.704   8.557  20.438  0.00  0.00    +0.000 C 
ATOM      6  C   UNL     1       1.402   9.296  19.110  0.00  0.00    +0.000 C 
ATOM      7  C   UNL     1       1.963   8.577  17.870  0.00  0.00    +0.000 C 
ATOM      8  C   UNL     1       1.820   7.056  17.931  0.00  0.00    +0.000 C 
ATOM      9  C   UNL     1       1.896  10.787  19.239  0.00  0.00    +0.000 C 
ATOM     10  C   UNL     1       0.459  11.180  19.635  0.00  0.00    +0.000 C 
ATOM     11  C   UNL     1      -0.039   9.886  18.953  0.00  0.00    +0.000 C 
ENDROOT
BRANCH   1  15
ATOM     12  C   UNL     1       5.813   4.762  16.986  0.00  0.00    +0.000 A 
ATOM     13  N   UNL     1       4.709   4.381  16.335  0.00  0.00    +0.000 NA
ATOM     14  N   UNL     1       3.728   4.568  17.234  0.00  0.00    +0.000 N 
ATOM     15  C   UNL     1       4.136   5.172  18.399  0.00  0.00    +0.000 A 
ATOM     16  C   UNL     1       5.521   5.196  18.307  0.00  0.00    +0.000 A 
ATOM     17  C   UNL     1       6.530   5.566  19.323  0.00  0.00    +0.000 C 
ATOM     18  H   UNL     1       2.783   4.284  16.994  0.00  0.00    +0.000 HD
BRANCH  12  20
ATOM     19  C   UNL     1       7.066   4.680  14.810  0.00  0.00    +0.000 C 
ATOM     20  C   UNL     1       7.152   4.706  16.328  0.00  0.00    +0.000 C 
ENDBRANCH  12  20
ENDBRANCH   1  15
BRANCH   9  21
ATOM     21  O   UNL     1       2.391  11.407  18.026  0.00  0.00    +0.000 OA
ATOM     22  C   UNL     1       2.531  12.822  18.077  0.00  0.00    +0.000 C 
ENDBRANCH   9  21
BRANCH  11  23
ATOM     23  O   UNL     1      -0.536  10.072  17.608  0.00  0.00    +0.000 OA
ATOM     24  H   UNL     1      -0.052   9.417  17.065  0.00  0.00    +0.000 HD
ENDBRANCH  11  23
TORSDOF 4
ENDMDL
MODEL 9
REMARK VINA RESULT:      -5.6      4.211      5.512
REMARK  Name = 
REMARK  7 active torsions:
REMARK  status: ('A' for Active; 'I' for Inactive)
REMARK    1  A    between atoms: C_1  and  C_2
REMARK    2  A    between atoms: C_2  and  C_3
REMARK    3  A    between atoms: C_6  and  C_7
REMARK    4  A    between atoms: C_15  and  O_16
REMARK    5  A    between atoms: O_16  and  C_17
REMARK    6  A    between atoms: C_19  and  O_20
REMARK    7  A    between atoms: C_21  and  C_22
REMARK                            x       y       z     vdW  Elec       q    Type
REMARK                         _______ _______ _______ _____ _____    ______ ____
ROOT
ATOM      1  C   UNL     1       2.761   7.620  18.423  0.00  0.00    +0.000 C 
ATOM      2  O   UNL     1       3.592   8.272  17.792  0.00  0.00    +0.000 OA
ATOM      3  N   UNL     1       2.596   6.250  18.191  0.00  0.00    +0.000 N 
ATOM      4  C   UNL     1       3.578   5.529  17.398  0.00  0.00    +0.000 C 
ATOM      5  C   UNL     1       4.095   4.349  18.212  0.00  0.00    +0.000 C 
ATOM      6  C   UNL     1       2.954   3.434  18.724  0.00  0.00    +0.000 C 
ATOM      7  C   UNL     1       1.749   4.212  19.282  0.00  0.00    +0.000 C 
ATOM      8  C   UNL     1       1.403   5.461  18.471  0.00  0.00    +0.000 C 
ATOM      9  C   UNL     1       3.557   2.403  19.753  0.00  0.00    +0.000 C 
ATOM     10  C   UNL     1       3.678   1.390  18.596  0.00  0.00    +0.000 C 
ATOM     11  C   UNL     1       2.602   2.195  17.833  0.00  0.00    +0.000 C 
ENDROOT
BRANCH   1  15
ATOM     12  C   UNL     1       0.583   9.455  20.740  0.00  0.00    +0.000 A 
ATOM     13  N   UNL     1       1.204   8.597  21.555  0.00  0.00    +0.000 NA
ATOM     14  N   UNL     1       1.956   7.855  20.726  0.00  0.00    +0.000 N 
ATOM     15  C   UNL     1       1.942   8.279  19.418  0.00  0.00    +0.000 A 
ATOM     16  C   UNL     1       0.953   9.252  19.383  0.00  0.00    +0.000 A 
ATOM     17  C   UNL     1       0.357   9.952  18.225  0.00  0.00    +0.000 C 
ATOM     18  H   UNL     1       2.483   7.076  21.107  0.00  0.00    +0.000 HD
BRANCH  12  20
ATOM     19  C   UNL     1      -0.728  10.241  22.734  0.00  0.00    +0.000 C 
ATOM     20  C   UNL     1      -0.369  10.474  21.275  0.00  0.00    +0.000 C 
ENDBRANCH  12  20
ENDBRANCH   1  15
BRANCH   9  21
ATOM     21  O   UNL     1       2.688   1.996  20.839  0.00  0.00    +0.000 OA
ATOM     22  C   UNL     1       2.457   2.983  21.838  0.00  0.00    +0.000 C 
ENDBRANCH   9  21
BRANCH  11  23
ATOM     23  O   UNL     1       1.264   1.658  17.943  0.00  0.00    +0.000 OA
ATOM     24  H   UNL     1       1.094   1.594  18.905  0.00  0.00    +0.000 HD
ENDBRANCH  11  23
TORSDOF 4
ENDMDL
