MODEL 1
REMARK VINA RESULT:      -6.5      0.000      0.000
REMARK  Name = 
REMARK  4 active torsions:
REMARK  status: ('A' for Active; 'I' for Inactive)
REMARK    1  A    between atoms: N_1  and  C_2
REMARK    2  A    between atoms: C_2  and  C_3
REMARK    3  A    between atoms: C_6  and  N_7
REMARK    4  A    between atoms: C_16  and  C_17
REMARK                            x       y       z     vdW  Elec       q    Type
REMARK                         _______ _______ _______ _____ _____    ______ ____
ROOT
ATOM      1  N   UNL     1      -2.644  12.638  20.841  0.00  0.00    +0.000 N 
ATOM      2  C   UNL     1      -3.657  12.923  21.756  0.00  0.00    +0.000 A 
ATOM      3  I   UNL     1      -3.581  13.524  23.769  0.00  0.00    +0.000 I 
ATOM      4  C   UNL     1      -4.888  12.713  21.162  0.00  0.00    +0.000 A 
ATOM      5 CL   UNL     1      -6.434  12.938  21.870  0.00  0.00    +0.000 Cl
ATOM      6  C   UNL     1      -4.668  12.226  19.850  0.00  0.00    +0.000 A 
ATOM      7  C   UNL     1      -5.454  11.790  18.764  0.00  0.00    +0.000 A 
ATOM      8 CL   UNL     1      -7.157  11.795  18.913  0.00  0.00    +0.000 Cl
ATOM      9  C   UNL     1      -4.875  11.352  17.595  0.00  0.00    +0.000 A 
ATOM     10  C   UNL     1      -3.498  11.350  17.537  0.00  0.00    +0.000 A 
ATOM     11  N   UNL     1      -2.656  11.733  18.544  0.00  0.00    +0.000 NA
ATOM     12  C   UNL     1      -3.278  12.173  19.670  0.00  0.00    +0.000 A 
ENDROOT
BRANCH   1  16
ATOM     13  C   UNL     1      -0.375   9.748  21.833  0.00  0.00    +0.000 C 
ATOM     14  C   UNL     1      -0.974  10.760  22.832  0.00  0.00    +0.000 C 
ATOM     15  C   UNL     1      -0.689  12.220  22.475  0.00  0.00    +0.000 C 
ATOM     16  C   UNL     1      -1.178  12.589  21.047  0.00  0.00    +0.000 C 
ATOM     17  C   UNL     1      -0.334  11.666  20.139  0.00  0.00    +0.000 C 
ATOM     18  C   UNL     1      -0.627  10.183  20.380  0.00  0.00    +0.000 C 
BRANCH  13  19
ATOM     19  C   UNL     1       1.126   9.473  22.053  0.00  0.00    +0.000 C 
BRANCH  19  20
ATOM     20  N   UNL     1       1.531   8.188  21.493  0.00  0.00    +0.000 NA
ATOM     21  H   UNL     1       0.791   7.504  21.649  0.00  0.00    +0.000 HD
ATOM     22  H   UNL     1       2.347   7.837  21.996  0.00  0.00    +0.000 HD
ENDBRANCH  19  20
ENDBRANCH  13  19
ENDBRANCH   1  16
BRANCH  10  23
ATOM     23  C   UNL     1      -2.885  10.893  16.243  0.00  0.00    +0.000 C 
ATOM     24  N   UNL     1      -1.859   9.996  16.321  0.00  0.00    +0.000 N 
ATOM     25  O   UNL     1      -3.271  11.307  15.156  0.00  0.00    +0.000 OA
ATOM     26  H   UNL     1      -1.512   9.679  17.214  0.00  0.00    +0.000 HD
ATOM     27  H   UNL     1      -1.406   9.702  15.464  0.00  0.00    +0.000 HD
ENDBRANCH  10  23
TORSDOF 4
ENDMDL
MODEL 2
REMARK VINA RESULT:      -6.3      3.168      4.832
REMARK  Name = 
REMARK  4 active torsions:
REMARK  status: ('A' for Active; 'I' for Inactive)
REMARK    1  A    between atoms: N_1  and  C_2
REMARK    2  A    between atoms: C_2  and  C_3
REMARK    3  A    between atoms: C_6  and  N_7
REMARK    4  A    between atoms: C_16  and  C_17
REMARK                            x       y       z     vdW  Elec       q    Type
REMARK                         _______ _______ _______ _____ _____    ______ ____
ROOT
ATOM      1  N   UNL     1      -3.234  12.489  19.826  0.00  0.00    +0.000 N 
ATOM      2  C   UNL     1      -4.371  12.042  19.155  0.00  0.00    +0.000 A 
ATOM      3  I   UNL     1      -4.654  11.415  17.169  0.00  0.00    +0.000 I 
ATOM      4  C   UNL     1      -5.458  12.087  20.009  0.00  0.00    +0.000 A 
ATOM      5 CL   UNL     1      -7.073  11.628  19.658  0.00  0.00    +0.000 Cl
ATOM      6  C   UNL     1      -5.026  12.629  21.244  0.00  0.00    +0.000 A 
ATOM      7  C   UNL     1      -5.608  12.971  22.482  0.00  0.00    +0.000 A 
ATOM      8 CL   UNL     1      -7.283  12.720  22.714  0.00  0.00    +0.000 Cl
ATOM      9  C   UNL     1      -4.855  13.512  23.499  0.00  0.00    +0.000 A 
ATOM     10  C   UNL     1      -3.515  13.712  23.251  0.00  0.00    +0.000 A 
ATOM     11  N   UNL     1      -2.869  13.432  22.079  0.00  0.00    +0.000 NA
ATOM     12  C   UNL     1      -3.654  12.883  21.113  0.00  0.00    +0.000 A 
ENDROOT
BRANCH   1  16
ATOM     13  C   UNL     1      -0.251  10.155  19.446  0.00  0.00    +0.000 C 
ATOM     14  C   UNL     1      -0.482  11.073  20.665  0.00  0.00    +0.000 C 
ATOM     15  C   UNL     1      -0.696  12.542  20.297  0.00  0.00    +0.000 C 
ATOM     16  C   UNL     1      -1.871  12.741  19.301  0.00  0.00    +0.000 C 
ATOM     17  C   UNL     1      -1.406  11.963  18.049  0.00  0.00    +0.000 C 
ATOM     18  C   UNL     1      -1.250  10.464  18.318  0.00  0.00    +0.000 C 
BRANCH  13  19
ATOM     19  C   UNL     1       1.192  10.193  18.904  0.00  0.00    +0.000 C 
BRANCH  19  20
ATOM     20  N   UNL     1       1.278   9.658  17.550  0.00  0.00    +0.000 NA
ATOM     21  H   UNL     1       0.449   9.097  17.355  0.00  0.00    +0.000 HD
ATOM     22  H   UNL     1       2.070   9.018  17.484  0.00  0.00    +0.000 HD
ENDBRANCH  19  20
ENDBRANCH  13  19
ENDBRANCH   1  16
BRANCH  10  23
ATOM     23  C   UNL     1      -2.703  14.280  24.382  0.00  0.00    +0.000 C 
ATOM     24  N   UNL     1      -3.376  14.632  25.517  0.00  0.00    +0.000 N 
ATOM     25  O   UNL     1      -1.491  14.436  24.302  0.00  0.00    +0.000 OA
ATOM     26  H   UNL     1      -4.379  14.542  25.576  0.00  0.00    +0.000 HD
ATOM     27  H   UNL     1      -2.855  15.051  26.278  0.00  0.00    +0.000 HD
ENDBRANCH  10  23
TORSDOF 4
ENDMDL
MODEL 3
REMARK VINA RESULT:      -6.3      9.062     11.444
REMARK  Name = 
REMARK  4 active torsions:
REMARK  status: ('A' for Active; 'I' for Inactive)
REMARK    1  A    between atoms: N_1  and  C_2
REMARK    2  A    between atoms: C_2  and  C_3
REMARK    3  A    between atoms: C_6  and  N_7
REMARK    4  A    between atoms: C_16  and  C_17
REMARK                            x       y       z     vdW  Elec       q    Type
REMARK                         _______ _______ _______ _____ _____    ______ ____
ROOT
ATOM      1  N   UNL     1       4.442   5.182  18.759  0.00  0.00    +0.000 N 
ATOM      2  C   UNL     1       3.315   5.996  18.865  0.00  0.00    +0.000 A 
ATOM      3  I   UNL     1       2.899   7.900  18.080  0.00  0.00    +0.000 I 
ATOM      4  C   UNL     1       2.376   5.380  19.672  0.00  0.00    +0.000 A 
ATOM      5 CL   UNL     1       0.822   5.972  20.095  0.00  0.00    +0.000 Cl
ATOM      6  C   UNL     1       2.930   4.165  20.146  0.00  0.00    +0.000 A 
ATOM      7  C   UNL     1       2.540   3.118  21.006  0.00  0.00    +0.000 A 
ATOM      8 CL   UNL     1       1.005   3.182  21.755  0.00  0.00    +0.000 Cl
ATOM      9  C   UNL     1       3.376   2.054  21.258  0.00  0.00    +0.000 A 
ATOM     10  C   UNL     1       4.609   2.064  20.644  0.00  0.00    +0.000 A 
ATOM     11  N   UNL     1       5.081   3.043  19.814  0.00  0.00    +0.000 NA
ATOM     12  C   UNL     1       4.210   4.062  19.583  0.00  0.00    +0.000 A 
ENDROOT
BRANCH   1  16
ATOM     13  C   UNL     1       5.591   4.691  15.164  0.00  0.00    +0.000 C 
ATOM     14  C   UNL     1       5.816   3.663  16.292  0.00  0.00    +0.000 C 
ATOM     15  C   UNL     1       6.508   4.244  17.526  0.00  0.00    +0.000 C 
ATOM     16  C   UNL     1       5.747   5.464  18.116  0.00  0.00    +0.000 C 
ATOM     17  C   UNL     1       5.796   6.496  16.967  0.00  0.00    +0.000 C 
ATOM     18  C   UNL     1       5.049   6.019  15.719  0.00  0.00    +0.000 C 
BRANCH  13  19
ATOM     19  C   UNL     1       6.842   4.947  14.299  0.00  0.00    +0.000 C 
BRANCH  19  20
ATOM     20  N   UNL     1       6.812   4.181  13.059  0.00  0.00    +0.000 NA
ATOM     21  H   UNL     1       7.428   3.373  13.146  0.00  0.00    +0.000 HD
ATOM     22  H   UNL     1       7.195   4.744  12.298  0.00  0.00    +0.000 HD
ENDBRANCH  19  20
ENDBRANCH  13  19
ENDBRANCH   1  16
BRANCH  10  23
ATOM     23  C   UNL     1       5.498   0.881  20.911  0.00  0.00    +0.000 C 
ATOM     24  N   UNL     1       5.606  -0.054  19.923  0.00  0.00    +0.000 N 
ATOM     25  O   UNL     1       6.099   0.742  21.970  0.00  0.00    +0.000 OA
ATOM     26  H   UNL     1       5.085   0.034  19.064  0.00  0.00    +0.000 HD
ATOM     27  H   UNL     1       6.170  -0.878  20.096  0.00  0.00    +0.000 HD
ENDBRANCH  10  23
TORSDOF 4
ENDMDL
MODEL 4
REMARK VINA RESULT:      -6.2      3.061      4.566
REMARK  Name = 
REMARK  4 active torsions:
REMARK  status: ('A' for Active; 'I' for Inactive)
REMARK    1  A    between atoms: N_1  and  C_2
REMARK    2  A    between atoms: C_2  and  C_3
REMARK    3  A    between atoms: C_6  and  N_7
REMARK    4  A    between atoms: C_16  and  C_17
REMARK                            x       y       z     vdW  Elec       q    Type
REMARK                         _______ _______ _______ _____ _____    ______ ____
ROOT
ATOM      1  N   UNL     1      -2.344  12.235  20.336  0.00  0.00    +0.000 N 
ATOM      2  C   UNL     1      -3.000  11.848  19.168  0.00  0.00    +0.000 A 
ATOM      3  I   UNL     1      -2.295  10.905  17.427  0.00  0.00    +0.000 I 
ATOM      4  C   UNL     1      -4.330  12.220  19.241  0.00  0.00    +0.000 A 
ATOM      5 CL   UNL     1      -5.548  11.956  18.062  0.00  0.00    +0.000 Cl
ATOM      6  C   UNL     1      -4.528  12.916  20.459  0.00  0.00    +0.000 A 
ATOM      7  C   UNL     1      -5.590  13.573  21.113  0.00  0.00    +0.000 A 
ATOM      8 CL   UNL     1      -7.124  13.629  20.362  0.00  0.00    +0.000 Cl
ATOM      9  C   UNL     1      -5.410  14.176  22.337  0.00  0.00    +0.000 A 
ATOM     10  C   UNL     1      -4.148  14.118  22.887  0.00  0.00    +0.000 A 
ATOM     11  N   UNL     1      -3.055  13.524  22.318  0.00  0.00    +0.000 NA
ATOM     12  C   UNL     1      -3.291  12.927  21.119  0.00  0.00    +0.000 A 
ENDROOT
BRANCH   1  16
ATOM     13  C   UNL     1      -0.312   9.511  22.048  0.00  0.00    +0.000 C 
ATOM     14  C   UNL     1      -0.929  10.720  22.781  0.00  0.00    +0.000 C 
ATOM     15  C   UNL     1      -0.541  12.070  22.176  0.00  0.00    +0.000 C 
ATOM     16  C   UNL     1      -0.901  12.172  20.669  0.00  0.00    +0.000 C 
ATOM     17  C   UNL     1      -0.044  11.058  20.026  0.00  0.00    +0.000 C 
ATOM     18  C   UNL     1      -0.432   9.663  20.522  0.00  0.00    +0.000 C 
BRANCH  13  19
ATOM     19  C   UNL     1       1.152   9.227  22.440  0.00  0.00    +0.000 C 
BRANCH  19  20
ATOM     20  N   UNL     1       1.751   8.199  21.597  0.00  0.00    +0.000 NA
ATOM     21  H   UNL     1       2.663   8.517  21.272  0.00  0.00    +0.000 HD
ATOM     22  H   UNL     1       1.184   8.071  20.757  0.00  0.00    +0.000 HD
ENDBRANCH  19  20
ENDBRANCH  13  19
ENDBRANCH   1  16
BRANCH  10  23
ATOM     23  C   UNL     1      -3.977  14.760  24.236  0.00  0.00    +0.000 C 
ATOM     24  N   UNL     1      -4.900  15.697  24.602  0.00  0.00    +0.000 N 
ATOM     25  O   UNL     1      -3.048  14.473  24.982  0.00  0.00    +0.000 OA
ATOM     26  H   UNL     1      -5.645  15.965  23.977  0.00  0.00    +0.000 HD
ATOM     27  H   UNL     1      -4.783  16.170  25.490  0.00  0.00    +0.000 HD
ENDBRANCH  10  23
TORSDOF 4
ENDMDL
MODEL 5
REMARK VINA RESULT:      -6.2      3.128      5.121
REMARK  Name = 
REMARK  4 active torsions:
REMARK  status: ('A' for Active; 'I' for Inactive)
REMARK    1  A    between atoms: N_1  and  C_2
REMARK    2  A    between atoms: C_2  and  C_3
REMARK    3  A    between atoms: C_6  and  N_7
REMARK    4  A    between atoms: C_16  and  C_17
REMARK                            x       y       z     vdW  Elec       q    Type
REMARK                         _______ _______ _______ _____ _____    ______ ____
ROOT
ATOM      1  N   UNL     1      -3.244  13.184  20.956  0.00  0.00    +0.000 N 
ATOM      2  C   UNL     1      -2.060  13.084  21.686  0.00  0.00    +0.000 A 
ATOM      3  I   UNL     1      -1.430  14.041  23.447  0.00  0.00    +0.000 I 
ATOM      4  C   UNL     1      -1.197  12.212  21.047  0.00  0.00    +0.000 A 
ATOM      5 CL   UNL     1       0.374  11.748  21.556  0.00  0.00    +0.000 Cl
ATOM      6  C   UNL     1      -1.813  11.781  19.847  0.00  0.00    +0.000 A 
ATOM      7  C   UNL     1      -1.481  10.955  18.754  0.00  0.00    +0.000 A 
ATOM      8 CL   UNL     1       0.046  10.188  18.722  0.00  0.00    +0.000 Cl
ATOM      9  C   UNL     1      -2.359  10.765  17.711  0.00  0.00    +0.000 A 
ATOM     10  C   UNL     1      -3.567  11.423  17.778  0.00  0.00    +0.000 A 
ATOM     11  N   UNL     1      -3.967  12.259  18.785  0.00  0.00    +0.000 NA
ATOM     12  C   UNL     1      -3.071  12.398  19.798  0.00  0.00    +0.000 A 
ENDROOT
BRANCH   1  16
ATOM     13  C   UNL     1      -6.456  12.663  22.929  0.00  0.00    +0.000 C 
ATOM     14  C   UNL     1      -6.316  12.393  21.417  0.00  0.00    +0.000 C 
ATOM     15  C   UNL     1      -5.773  13.584  20.627  0.00  0.00    +0.000 C 
ATOM     16  C   UNL     1      -4.404  14.082  21.166  0.00  0.00    +0.000 C 
ATOM     17  C   UNL     1      -4.738  14.533  22.606  0.00  0.00    +0.000 C 
ATOM     18  C   UNL     1      -5.211  13.373  23.487  0.00  0.00    +0.000 C 
BRANCH  13  19
ATOM     19  C   UNL     1      -7.729  13.449  23.306  0.00  0.00    +0.000 C 
BRANCH  19  20
ATOM     20  N   UNL     1      -7.874  13.590  24.750  0.00  0.00    +0.000 NA
ATOM     21  H   UNL     1      -7.265  12.919  25.218  0.00  0.00    +0.000 HD
ATOM     22  H   UNL     1      -8.825  13.343  25.025  0.00  0.00    +0.000 HD
ENDBRANCH  19  20
ENDBRANCH  13  19
ENDBRANCH   1  16
BRANCH  10  23
ATOM     23  C   UNL     1      -4.523  11.183  16.642  0.00  0.00    +0.000 C 
ATOM     24  N   UNL     1      -5.828  11.533  16.840  0.00  0.00    +0.000 N 
ATOM     25  O   UNL     1      -4.164  10.686  15.582  0.00  0.00    +0.000 OA
ATOM     26  H   UNL     1      -6.137  11.908  17.724  0.00  0.00    +0.000 HD
ATOM     27  H   UNL     1      -6.496  11.346  16.103  0.00  0.00    +0.000 HD
ENDBRANCH  10  23
TORSDOF 4
ENDMDL
MODEL 6
REMARK VINA RESULT:      -6.0      3.330      4.591
REMARK  Name = 
REMARK  4 active torsions:
REMARK  status: ('A' for Active; 'I' for Inactive)
REMARK    1  A    between atoms: N_1  and  C_2
REMARK    2  A    between atoms: C_2  and  C_3
REMARK    3  A    between atoms: C_6  and  N_7
REMARK    4  A    between atoms: C_16  and  C_17
REMARK                            x       y       z     vdW  Elec       q    Type
REMARK                         _______ _______ _______ _____ _____    ______ ____
ROOT
ATOM      1  N   UNL     1      -2.070  12.359  19.895  0.00  0.00    +0.000 N 
ATOM      2  C   UNL     1      -0.931  11.602  19.623  0.00  0.00    +0.000 A 
ATOM      3  I   UNL     1       0.968  11.579  20.522  0.00  0.00    +0.000 I 
ATOM      4  C   UNL     1      -1.173  10.780  18.538  0.00  0.00    +0.000 A 
ATOM      5 CL   UNL     1      -0.090   9.654  17.827  0.00  0.00    +0.000 Cl
ATOM      6  C   UNL     1      -2.478  11.051  18.060  0.00  0.00    +0.000 A 
ATOM      7  C   UNL     1      -3.303  10.616  17.002  0.00  0.00    +0.000 A 
ATOM      8 CL   UNL     1      -2.712   9.437  15.915  0.00  0.00    +0.000 Cl
ATOM      9  C   UNL     1      -4.568  11.130  16.827  0.00  0.00    +0.000 A 
ATOM     10  C   UNL     1      -4.985  12.092  17.720  0.00  0.00    +0.000 A 
ATOM     11  N   UNL     1      -4.250  12.590  18.760  0.00  0.00    +0.000 NA
ATOM     12  C   UNL     1      -3.015  12.037  18.900  0.00  0.00    +0.000 A 
ENDROOT
BRANCH   1  16
ATOM     13  C   UNL     1      -3.561  12.347  23.396  0.00  0.00    +0.000 C 
ATOM     14  C   UNL     1      -4.356  12.687  22.118  0.00  0.00    +0.000 C 
ATOM     15  C   UNL     1      -3.718  13.791  21.273  0.00  0.00    +0.000 C 
ATOM     16  C   UNL     1      -2.255  13.460  20.869  0.00  0.00    +0.000 C 
ATOM     17  C   UNL     1      -1.527  13.373  22.230  0.00  0.00    +0.000 C 
ATOM     18  C   UNL     1      -2.056  12.232  23.103  0.00  0.00    +0.000 C 
BRANCH  13  19
ATOM     19  C   UNL     1      -3.803  13.330  24.559  0.00  0.00    +0.000 C 
BRANCH  19  20
ATOM     20  N   UNL     1      -5.143  13.905  24.516  0.00  0.00    +0.000 NA
ATOM     21  H   UNL     1      -5.501  14.000  25.466  0.00  0.00    +0.000 HD
ATOM     22  H   UNL     1      -5.777  13.261  24.042  0.00  0.00    +0.000 HD
ENDBRANCH  19  20
ENDBRANCH  13  19
ENDBRANCH   1  16
BRANCH  10  23
ATOM     23  C   UNL     1      -6.379  12.622  17.527  0.00  0.00    +0.000 C 
ATOM     24  N   UNL     1      -6.506  13.825  16.893  0.00  0.00    +0.000 N 
ATOM     25  O   UNL     1      -7.368  12.018  17.925  0.00  0.00    +0.000 OA
ATOM     26  H   UNL     1      -5.695  14.345  16.597  0.00  0.00    +0.000 HD
ATOM     27  H   UNL     1      -7.433  14.219  16.786  0.00  0.00    +0.000 HD
ENDBRANCH  10  23
TORSDOF 4
ENDMDL
MODEL 7
REMARK VINA RESULT:      -5.9      1.759      2.525
REMARK  Name = 
REMARK  4 active torsions:
REMARK  status: ('A' for Active; 'I' for Inactive)
REMARK    1  A    between atoms: N_1  and  C_2
REMARK    2  A    between atoms: C_2  and  C_3
REMARK    3  A    between atoms: C_6  and  N_7
REMARK    4  A    between atoms: C_16  and  C_17
REMARK                            x       y       z     vdW  Elec       q    Type
REMARK                         _______ _______ _______ _____ _____    ______ ____
ROOT
ATOM      1  N   UNL     1      -2.917  12.423  20.794  0.00  0.00    +0.000 N 
ATOM      2  C   UNL     1      -3.945  12.919  21.594  0.00  0.00    +0.000 A 
ATOM      3  I   UNL     1      -3.993  13.441  23.629  0.00  0.00    +0.000 I 
ATOM      4  C   UNL     1      -5.104  13.019  20.846  0.00  0.00    +0.000 A 
ATOM      5 CL   UNL     1      -6.634  13.587  21.373  0.00  0.00    +0.000 Cl
ATOM      6  C   UNL     1      -4.835  12.521  19.547  0.00  0.00    +0.000 A 
ATOM      7  C   UNL     1      -5.553  12.307  18.353  0.00  0.00    +0.000 A 
ATOM      8 CL   UNL     1      -7.213  12.711  18.295  0.00  0.00    +0.000 Cl
ATOM      9  C   UNL     1      -4.945  11.770  17.241  0.00  0.00    +0.000 A 
ATOM     10  C   UNL     1      -3.611  11.444  17.350  0.00  0.00    +0.000 A 
ATOM     11  N   UNL     1      -2.840  11.596  18.469  0.00  0.00    +0.000 NA
ATOM     12  C   UNL     1      -3.483  12.146  19.534  0.00  0.00    +0.000 A 
ENDROOT
BRANCH   1  16
ATOM     13  C   UNL     1       0.342  14.387  20.714  0.00  0.00    +0.000 C 
ATOM     14  C   UNL     1      -0.138  13.460  19.578  0.00  0.00    +0.000 C 
ATOM     15  C   UNL     1      -0.476  12.042  20.042  0.00  0.00    +0.000 C 
ATOM     16  C   UNL     1      -1.540  12.025  21.173  0.00  0.00    +0.000 C 
ATOM     17  C   UNL     1      -0.842  12.786  22.323  0.00  0.00    +0.000 C 
ATOM     18  C   UNL     1      -0.544  14.244  21.962  0.00  0.00    +0.000 C 
BRANCH  13  19
ATOM     19  C   UNL     1       1.825  14.193  21.090  0.00  0.00    +0.000 C 
BRANCH  19  20
ATOM     20  N   UNL     1       2.157  14.852  22.348  0.00  0.00    +0.000 NA
ATOM     21  H   UNL     1       1.552  15.662  22.475  0.00  0.00    +0.000 HD
ATOM     22  H   UNL     1       3.109  15.218  22.302  0.00  0.00    +0.000 HD
ENDBRANCH  19  20
ENDBRANCH  13  19
ENDBRANCH   1  16
BRANCH  10  23
ATOM     23  C   UNL     1      -2.957  10.884  16.117  0.00  0.00    +0.000 C 
ATOM     24  N   UNL     1      -1.892  10.049  16.300  0.00  0.00    +0.000 N 
ATOM     25  O   UNL     1      -3.346  11.162  14.989  0.00  0.00    +0.000 OA
ATOM     26  H   UNL     1      -1.544   9.846  17.225  0.00  0.00    +0.000 HD
ATOM     27  H   UNL     1      -1.414   9.690  15.483  0.00  0.00    +0.000 HD
ENDBRANCH  10  23
TORSDOF 4
ENDMDL
MODEL 8
REMARK VINA RESULT:      -5.8      2.614      3.440
REMARK  Name = 
REMARK  4 active torsions:
REMARK  status: ('A' for Active; 'I' for Inactive)
REMARK    1  A    between atoms: N_1  and  C_2
REMARK    2  A    between atoms: C_2  and  C_3
REMARK    3  A    between atoms: C_6  and  N_7
REMARK    4  A    between atoms: C_16  and  C_17
REMARK                            x       y       z     vdW  Elec       q    Type
REMARK                         _______ _______ _______ _____ _____    ______ ____
ROOT
ATOM      1  N   UNL     1      -2.247  13.099  19.947  0.00  0.00    +0.000 N 
ATOM      2  C   UNL     1      -1.803  13.574  21.180  0.00  0.00    +0.000 A 
ATOM      3  I   UNL     1       0.095  14.207  21.821  0.00  0.00    +0.000 I 
ATOM      4  C   UNL     1      -2.849  13.559  22.084  0.00  0.00    +0.000 A 
ATOM      5 CL   UNL     1      -2.811  14.060  23.724  0.00  0.00    +0.000 Cl
ATOM      6  C   UNL     1      -3.983  13.007  21.438  0.00  0.00    +0.000 A 
ATOM      7  C   UNL     1      -5.311  12.681  21.781  0.00  0.00    +0.000 A 
ATOM      8 CL   UNL     1      -5.857  12.977  23.374  0.00  0.00    +0.000 Cl
ATOM      9  C   UNL     1      -6.169  12.122  20.861  0.00  0.00    +0.000 A 
ATOM     10  C   UNL     1      -5.670  11.886  19.599  0.00  0.00    +0.000 A 
ATOM     11  N   UNL     1      -4.394  12.148  19.182  0.00  0.00    +0.000 NA
ATOM     12  C   UNL     1      -3.593  12.717  20.123  0.00  0.00    +0.000 A 
ENDROOT
BRANCH   1  16
ATOM     13  C   UNL     1      -0.080  10.109  19.028  0.00  0.00    +0.000 C 
ATOM     14  C   UNL     1       0.463  11.412  19.650  0.00  0.00    +0.000 C 
ATOM     15  C   UNL     1       0.065  12.673  18.881  0.00  0.00    +0.000 C 
ATOM     16  C   UNL     1      -1.473  12.810  18.716  0.00  0.00    +0.000 C 
ATOM     17  C   UNL     1      -1.849  11.563  17.884  0.00  0.00    +0.000 C 
ATOM     18  C   UNL     1      -1.557  10.256  18.625  0.00  0.00    +0.000 C 
BRANCH  13  19
ATOM     19  C   UNL     1       0.749   9.599  17.831  0.00  0.00    +0.000 C 
BRANCH  19  20
ATOM     20  N   UNL     1       1.983  10.357  17.662  0.00  0.00    +0.000 NA
ATOM     21  H   UNL     1       2.262  10.754  18.560  0.00  0.00    +0.000 HD
ATOM     22  H   UNL     1       1.816  11.152  17.045  0.00  0.00    +0.000 HD
ENDBRANCH  19  20
ENDBRANCH  13  19
ENDBRANCH   1  16
BRANCH  10  23
ATOM     23  C   UNL     1      -6.629  11.298  18.601  0.00  0.00    +0.000 C 
ATOM     24  N   UNL     1      -7.137  10.062  18.878  0.00  0.00    +0.000 N 
ATOM     25  O   UNL     1      -6.942  11.886  17.573  0.00  0.00    +0.000 OA
ATOM     26  H   UNL     1      -6.854   9.556  19.704  0.00  0.00    +0.000 HD
ATOM     27  H   UNL     1      -7.756   9.631  18.202  0.00  0.00    +0.000 HD
ENDBRANCH  10  23
TORSDOF 4
ENDMDL
MODEL 9
REMARK VINA RESULT:      -5.8     10.369     12.271
REMARK  Name = 
REMARK  4 active torsions:
REMARK  status: ('A' for Active; 'I' for Inactive)
REMARK    1  A    between atoms: N_1  and  C_2
REMARK    2  A    between atoms: C_2  and  C_3
REMARK    3  A    between atoms: C_6  and  N_7
REMARK    4  A    between atoms: C_16  and  C_17
REMARK                            x       y       z     vdW  Elec       q    Type
REMARK                         _______ _______ _______ _____ _____    ______ ____
ROOT
ATOM      1  N   UNL     1       7.221  15.140  20.609  0.00  0.00    +0.000 N 
ATOM      2  C   UNL     1       7.295  14.126  21.564  0.00  0.00    +0.000 A 
ATOM      3  I   UNL     1       6.029  13.634  23.167  0.00  0.00    +0.000 I 
ATOM      4  C   UNL     1       8.449  13.390  21.366  0.00  0.00    +0.000 A 
ATOM      5 CL   UNL     1       8.982  12.032  22.270  0.00  0.00    +0.000 Cl
ATOM      6  C   UNL     1       9.168  13.975  20.296  0.00  0.00    +0.000 A 
ATOM      7  C   UNL     1      10.394  13.757  19.633  0.00  0.00    +0.000 A 
ATOM      8 CL   UNL     1      11.398  12.471  20.139  0.00  0.00    +0.000 Cl
ATOM      9  C   UNL     1      10.797  14.567  18.595  0.00  0.00    +0.000 A 
ATOM     10  C   UNL     1       9.958  15.601  18.242  0.00  0.00    +0.000 A 
ATOM     11  N   UNL     1       8.765  15.902  18.839  0.00  0.00    +0.000 NA
ATOM     12  C   UNL     1       8.404  15.061  19.846  0.00  0.00    +0.000 A 
ENDROOT
BRANCH   1  16
ATOM     13  C   UNL     1       3.917  15.357  18.733  0.00  0.00    +0.000 C 
ATOM     14  C   UNL     1       5.270  15.830  18.161  0.00  0.00    +0.000 C 
ATOM     15  C   UNL     1       6.009  16.817  19.067  0.00  0.00    +0.000 C 
ATOM     16  C   UNL     1       6.249  16.252  20.493  0.00  0.00    +0.000 C 
ATOM     17  C   UNL     1       4.816  16.039  21.031  0.00  0.00    +0.000 C 
ATOM     18  C   UNL     1       4.037  14.997  20.224  0.00  0.00    +0.000 C 
BRANCH  13  19
ATOM     19  C   UNL     1       2.766  16.361  18.520  0.00  0.00    +0.000 C 
BRANCH  19  20
ATOM     20  N   UNL     1       3.011  17.234  17.378  0.00  0.00    +0.000 NA
ATOM     21  H   UNL     1       2.188  17.243  16.777  0.00  0.00    +0.000 HD
ATOM     22  H   UNL     1       3.768  16.852  16.810  0.00  0.00    +0.000 HD
ENDBRANCH  19  20
ENDBRANCH  13  19
ENDBRANCH   1  16
BRANCH  10  23
ATOM     23  C   UNL     1      10.403  16.459  17.090  0.00  0.00    +0.000 C 
ATOM     24  N   UNL     1      10.774  15.819  15.943  0.00  0.00    +0.000 N 
ATOM     25  O   UNL     1      10.447  17.681  17.166  0.00  0.00    +0.000 OA
ATOM     26  H   UNL     1      10.777  14.812  15.887  0.00  0.00    +0.000 HD
ATOM     27  H   UNL     1      11.114  16.374  15.167  0.00  0.00    +0.000 HD
ENDBRANCH  10  23
TORSDOF 4
ENDMDL
