MODEL 1
REMARK VINA RESULT:      -7.5      0.000      0.000
REMARK  Name = 
REMARK  6 active torsions:
REMARK  status: ('A' for Active; 'I' for Inactive)
REMARK    1  A    between atoms: C_1  and  N_2
REMARK    2  A    between atoms: C_5  and  C_6
REMARK    3  A    between atoms: C_14  and  C_16
REMARK    4  A    between atoms: C_16  and  C_17
REMARK    5  A    between atoms: C_16  and  C_18
REMARK    6  A    between atoms: C_16  and  C_19
REMARK                            x       y       z     vdW  Elec       q    Type
REMARK                         _______ _______ _______ _____ _____    ______ ____
ROOT
ATOM      1  C   UNL     1       4.065   3.302  18.133  0.00  0.00    +0.000 A 
ATOM      2  C   UNL     1       3.996   1.934  17.919  0.00  0.00    +0.000 A 
ATOM      3  N   UNL     1       2.873   1.455  18.531  0.00  0.00    +0.000 N 
ATOM      4  C   UNL     1       2.199   2.481  19.147  0.00  0.00    +0.000 A 
ATOM      5  C   UNL     1       1.020   2.504  19.884  0.00  0.00    +0.000 A 
ATOM      6  C   UNL     1       0.632   3.759  20.372  0.00  0.00    +0.000 A 
ATOM      7  C   UNL     1       1.411   4.891  20.111  0.00  0.00    +0.000 A 
ATOM      8  N   UNL     1       0.967   6.130  20.638  0.00  0.00    +0.000 N 
ATOM      9  C   UNL     1       1.637   7.332  20.469  0.00  0.00    +0.000 C 
ATOM     10  O   UNL     1       2.707   7.467  19.871  0.00  0.00    +0.000 OA
ATOM     11  N   UNL     1       2.541   4.848  19.392  0.00  0.00    +0.000 NA
ATOM     12  C   UNL     1       2.924   3.644  18.916  0.00  0.00    +0.000 A 
ATOM     13  H   UNL     1       2.581   0.489  18.533  0.00  0.00    +0.000 HD
ATOM     14  H   UNL     1       0.112   6.118  21.174  0.00  0.00    +0.000 HD
ENDROOT
BRANCH   1  19
ATOM     15  C   UNL     1       7.515   7.788  17.247  0.00  0.00    +0.000 C 
ATOM     16  N   UNL     1       6.501   6.827  17.684  0.00  0.00    +0.000 NA
ATOM     17  C   UNL     1       5.624   6.469  16.560  0.00  0.00    +0.000 C 
ATOM     18  C   UNL     1       4.531   5.498  16.999  0.00  0.00    +0.000 C 
ATOM     19  C   UNL     1       5.134   4.236  17.633  0.00  0.00    +0.000 C 
ATOM     20  C   UNL     1       6.105   4.631  18.754  0.00  0.00    +0.000 C 
ATOM     21  C   UNL     1       7.143   5.634  18.255  0.00  0.00    +0.000 C 
ENDBRANCH   1  19
BRANCH   9  22
ATOM     22  C   UNL     1       0.959   8.576  21.096  0.00  0.00    +0.000 C 
ATOM     23  C   UNL     1       0.866   9.720  20.079  0.00  0.00    +0.000 C 
ATOM     24  C   UNL     1      -0.471   8.201  21.554  0.00  0.00    +0.000 C 
ATOM     25  C   UNL     1       1.747   9.037  22.330  0.00  0.00    +0.000 C 
ENDBRANCH   9  22
TORSDOF 2
ENDMDL
MODEL 2
REMARK VINA RESULT:      -7.2      1.988      2.776
REMARK  Name = 
REMARK  6 active torsions:
REMARK  status: ('A' for Active; 'I' for Inactive)
REMARK    1  A    between atoms: C_1  and  N_2
REMARK    2  A    between atoms: C_5  and  C_6
REMARK    3  A    between atoms: C_14  and  C_16
REMARK    4  A    between atoms: C_16  and  C_17
REMARK    5  A    between atoms: C_16  and  C_18
REMARK    6  A    between atoms: C_16  and  C_19
REMARK                            x       y       z     vdW  Elec       q    Type
REMARK                         _______ _______ _______ _____ _____    ______ ____
ROOT
ATOM      1  C   UNL     1       4.385   4.287  18.293  0.00  0.00    +0.000 A 
ATOM      2  C   UNL     1       4.568   3.035  18.859  0.00  0.00    +0.000 A 
ATOM      3  N   UNL     1       3.777   2.940  19.969  0.00  0.00    +0.000 N 
ATOM      4  C   UNL     1       3.077   4.109  20.148  0.00  0.00    +0.000 A 
ATOM      5  C   UNL     1       2.156   4.498  21.115  0.00  0.00    +0.000 A 
ATOM      6  C   UNL     1       1.641   5.794  20.977  0.00  0.00    +0.000 A 
ATOM      7  C   UNL     1       2.054   6.612  19.921  0.00  0.00    +0.000 A 
ATOM      8  N   UNL     1       1.500   7.914  19.842  0.00  0.00    +0.000 N 
ATOM      9  C   UNL     1       1.820   8.836  18.857  0.00  0.00    +0.000 C 
ATOM     10  O   UNL     1       2.639   8.653  17.955  0.00  0.00    +0.000 OA
ATOM     11  N   UNL     1       2.938   6.214  18.995  0.00  0.00    +0.000 NA
ATOM     12  C   UNL     1       3.441   4.967  19.117  0.00  0.00    +0.000 A 
ATOM     13  H   UNL     1       3.717   2.133  20.571  0.00  0.00    +0.000 HD
ATOM     14  H   UNL     1       0.838   8.173  20.559  0.00  0.00    +0.000 HD
ENDROOT
BRANCH   1  19
ATOM     15  C   UNL     1       7.593   4.956  13.594  0.00  0.00    +0.000 C 
ATOM     16  N   UNL     1       6.906   4.505  14.806  0.00  0.00    +0.000 NA
ATOM     17  C   UNL     1       7.248   5.379  15.937  0.00  0.00    +0.000 C 
ATOM     18  C   UNL     1       6.576   4.905  17.224  0.00  0.00    +0.000 C 
ATOM     19  C   UNL     1       5.053   4.818  17.053  0.00  0.00    +0.000 C 
ATOM     20  C   UNL     1       4.716   3.965  15.823  0.00  0.00    +0.000 C 
ATOM     21  C   UNL     1       5.453   4.470  14.584  0.00  0.00    +0.000 C 
ENDBRANCH   1  19
BRANCH   9  22
ATOM     22  C   UNL     1       1.071  10.190  18.934  0.00  0.00    +0.000 C 
ATOM     23  C   UNL     1       0.756  10.561  20.388  0.00  0.00    +0.000 C 
ATOM     24  C   UNL     1       1.958  11.300  18.320  0.00  0.00    +0.000 C 
ATOM     25  C   UNL     1      -0.229  10.117  18.120  0.00  0.00    +0.000 C 
ENDBRANCH   9  22
TORSDOF 2
ENDMDL
MODEL 3
REMARK VINA RESULT:      -7.0      1.327      1.680
REMARK  Name = 
REMARK  6 active torsions:
REMARK  status: ('A' for Active; 'I' for Inactive)
REMARK    1  A    between atoms: C_1  and  N_2
REMARK    2  A    between atoms: C_5  and  C_6
REMARK    3  A    between atoms: C_14  and  C_16
REMARK    4  A    between atoms: C_16  and  C_17
REMARK    5  A    between atoms: C_16  and  C_18
REMARK    6  A    between atoms: C_16  and  C_19
REMARK                            x       y       z     vdW  Elec       q    Type
REMARK                         _______ _______ _______ _____ _____    ______ ____
ROOT
ATOM      1  C   UNL     1       3.843   3.247  17.860  0.00  0.00    +0.000 A 
ATOM      2  C   UNL     1       3.889   1.862  17.857  0.00  0.00    +0.000 A 
ATOM      3  N   UNL     1       3.055   1.396  18.833  0.00  0.00    +0.000 N 
ATOM      4  C   UNL     1       2.459   2.450  19.483  0.00  0.00    +0.000 A 
ATOM      5  C   UNL     1       1.544   2.495  20.530  0.00  0.00    +0.000 A 
ATOM      6  C   UNL     1       1.156   3.777  20.943  0.00  0.00    +0.000 A 
ATOM      7  C   UNL     1       1.680   4.912  20.316  0.00  0.00    +0.000 A 
ATOM      8  N   UNL     1       1.251   6.178  20.786  0.00  0.00    +0.000 N 
ATOM      9  C   UNL     1       1.689   7.388  20.269  0.00  0.00    +0.000 C 
ATOM     10  O   UNL     1       2.519   7.513  19.366  0.00  0.00    +0.000 OA
ATOM     11  N   UNL     1       2.556   4.846  19.304  0.00  0.00    +0.000 NA
ATOM     12  C   UNL     1       2.937   3.616  18.897  0.00  0.00    +0.000 A 
ATOM     13  H   UNL     1       2.900   0.423  19.048  0.00  0.00    +0.000 HD
ATOM     14  H   UNL     1       0.591   6.183  21.550  0.00  0.00    +0.000 HD
ENDROOT
BRANCH   1  19
ATOM     15  C   UNL     1       7.640   5.579  14.260  0.00  0.00    +0.000 C 
ATOM     16  N   UNL     1       6.854   4.733  15.160  0.00  0.00    +0.000 NA
ATOM     17  C   UNL     1       6.798   5.334  16.501  0.00  0.00    +0.000 C 
ATOM     18  C   UNL     1       6.016   4.451  17.470  0.00  0.00    +0.000 C 
ATOM     19  C   UNL     1       4.600   4.173  16.946  0.00  0.00    +0.000 C 
ATOM     20  C   UNL     1       4.674   3.618  15.517  0.00  0.00    +0.000 C 
ATOM     21  C   UNL     1       5.504   4.529  14.615  0.00  0.00    +0.000 C 
ENDBRANCH   1  19
BRANCH   9  22
ATOM     22  C   UNL     1       1.066   8.657  20.902  0.00  0.00    +0.000 C 
ATOM     23  C   UNL     1       1.004   9.803  19.885  0.00  0.00    +0.000 C 
ATOM     24  C   UNL     1      -0.372   8.337  21.376  0.00  0.00    +0.000 C 
ATOM     25  C   UNL     1       1.884   9.089  22.126  0.00  0.00    +0.000 C 
ENDBRANCH   9  22
TORSDOF 2
ENDMDL
MODEL 4
REMARK VINA RESULT:      -6.7      6.883     11.621
REMARK  Name = 
REMARK  6 active torsions:
REMARK  status: ('A' for Active; 'I' for Inactive)
REMARK    1  A    between atoms: C_1  and  N_2
REMARK    2  A    between atoms: C_5  and  C_6
REMARK    3  A    between atoms: C_14  and  C_16
REMARK    4  A    between atoms: C_16  and  C_17
REMARK    5  A    between atoms: C_16  and  C_18
REMARK    6  A    between atoms: C_16  and  C_19
REMARK                            x       y       z     vdW  Elec       q    Type
REMARK                         _______ _______ _______ _____ _____    ______ ____
ROOT
ATOM      1  C   UNL     1      -6.048  12.100  19.209  0.00  0.00    +0.000 A 
ATOM      2  C   UNL     1      -7.058  12.128  18.261  0.00  0.00    +0.000 A 
ATOM      3  N   UNL     1      -6.515  11.845  17.040  0.00  0.00    +0.000 N 
ATOM      4  C   UNL     1      -5.163  11.633  17.163  0.00  0.00    +0.000 A 
ATOM      5  C   UNL     1      -4.186  11.317  16.227  0.00  0.00    +0.000 A 
ATOM      6  C   UNL     1      -2.885  11.179  16.729  0.00  0.00    +0.000 A 
ATOM      7  C   UNL     1      -2.629  11.358  18.092  0.00  0.00    +0.000 A 
ATOM      8  N   UNL     1      -1.291  11.211  18.534  0.00  0.00    +0.000 N 
ATOM      9  C   UNL     1      -0.886  11.365  19.851  0.00  0.00    +0.000 C 
ATOM     10  O   UNL     1      -1.626  11.676  20.787  0.00  0.00    +0.000 OA
ATOM     11  N   UNL     1      -3.588  11.655  18.979  0.00  0.00    +0.000 NA
ATOM     12  C   UNL     1      -4.846  11.790  18.507  0.00  0.00    +0.000 A 
ATOM     13  H   UNL     1      -7.030  11.800  16.173  0.00  0.00    +0.000 HD
ATOM     14  H   UNL     1      -0.600  10.986  17.833  0.00  0.00    +0.000 HD
ENDROOT
BRANCH   1  19
ATOM     15  C   UNL     1      -7.775  13.886  24.371  0.00  0.00    +0.000 C 
ATOM     16  N   UNL     1      -7.571  13.601  22.950  0.00  0.00    +0.000 NA
ATOM     17  C   UNL     1      -6.252  14.085  22.519  0.00  0.00    +0.000 C 
ATOM     18  C   UNL     1      -6.031  13.836  21.030  0.00  0.00    +0.000 C 
ATOM     19  C   UNL     1      -6.195  12.349  20.687  0.00  0.00    +0.000 C 
ATOM     20  C   UNL     1      -7.545  11.841  21.210  0.00  0.00    +0.000 C 
ATOM     21  C   UNL     1      -7.715  12.161  22.694  0.00  0.00    +0.000 C 
ENDBRANCH   1  19
BRANCH   9  22
ATOM     22  C   UNL     1       0.619  11.123  20.127  0.00  0.00    +0.000 C 
ATOM     23  C   UNL     1       1.318  12.425  20.536  0.00  0.00    +0.000 C 
ATOM     24  C   UNL     1       0.769  10.098  21.277  0.00  0.00    +0.000 C 
ATOM     25  C   UNL     1       1.294  10.538  18.878  0.00  0.00    +0.000 C 
ENDBRANCH   9  22
TORSDOF 2
ENDMDL
MODEL 5
REMARK VINA RESULT:      -6.6      7.574      9.671
REMARK  Name = 
REMARK  6 active torsions:
REMARK  status: ('A' for Active; 'I' for Inactive)
REMARK    1  A    between atoms: C_1  and  N_2
REMARK    2  A    between atoms: C_5  and  C_6
REMARK    3  A    between atoms: C_14  and  C_16
REMARK    4  A    between atoms: C_16  and  C_17
REMARK    5  A    between atoms: C_16  and  C_18
REMARK    6  A    between atoms: C_16  and  C_19
REMARK                            x       y       z     vdW  Elec       q    Type
REMARK                         _______ _______ _______ _____ _____    ______ ____
ROOT
ATOM      1  C   UNL     1      -2.793  11.388  17.510  0.00  0.00    +0.000 A 
ATOM      2  C   UNL     1      -3.176  11.005  16.234  0.00  0.00    +0.000 A 
ATOM      3  N   UNL     1      -4.540  10.983  16.178  0.00  0.00    +0.000 N 
ATOM      4  C   UNL     1      -5.066  11.343  17.395  0.00  0.00    +0.000 A 
ATOM      5  C   UNL     1      -6.379  11.472  17.836  0.00  0.00    +0.000 A 
ATOM      6  C   UNL     1      -6.537  11.863  19.172  0.00  0.00    +0.000 A 
ATOM      7  C   UNL     1      -5.418  12.096  19.978  0.00  0.00    +0.000 A 
ATOM      8  N   UNL     1      -5.645  12.482  21.323  0.00  0.00    +0.000 N 
ATOM      9  C   UNL     1      -4.637  12.739  22.239  0.00  0.00    +0.000 C 
ATOM     10  O   UNL     1      -3.430  12.636  22.011  0.00  0.00    +0.000 OA
ATOM     11  N   UNL     1      -4.160  11.972  19.532  0.00  0.00    +0.000 NA
ATOM     12  C   UNL     1      -3.996  11.597  18.245  0.00  0.00    +0.000 A 
ATOM     13  H   UNL     1      -5.083  10.737  15.364  0.00  0.00    +0.000 HD
ATOM     14  H   UNL     1      -6.607  12.563  21.618  0.00  0.00    +0.000 HD
ENDROOT
BRANCH   1  19
ATOM     15  C   UNL     1       1.865  12.638  20.602  0.00  0.00    +0.000 C 
ATOM     16  N   UNL     1       0.522  12.448  20.050  0.00  0.00    +0.000 NA
ATOM     17  C   UNL     1       0.388  13.178  18.781  0.00  0.00    +0.000 C 
ATOM     18  C   UNL     1      -1.017  13.028  18.203  0.00  0.00    +0.000 C 
ATOM     19  C   UNL     1      -1.383  11.550  18.014  0.00  0.00    +0.000 C 
ATOM     20  C   UNL     1      -1.165  10.788  19.328  0.00  0.00    +0.000 C 
ATOM     21  C   UNL     1       0.245  11.016  19.868  0.00  0.00    +0.000 C 
ENDBRANCH   1  19
BRANCH   9  22
ATOM     22  C   UNL     1      -5.104  13.184  23.648  0.00  0.00    +0.000 C 
ATOM     23  C   UNL     1      -4.953  14.700  23.821  0.00  0.00    +0.000 C 
ATOM     24  C   UNL     1      -6.594  12.810  23.834  0.00  0.00    +0.000 C 
ATOM     25  C   UNL     1      -4.292  12.452  24.726  0.00  0.00    +0.000 C 
ENDBRANCH   9  22
TORSDOF 2
ENDMDL
MODEL 6
REMARK VINA RESULT:      -6.5      6.312     10.855
REMARK  Name = 
REMARK  6 active torsions:
REMARK  status: ('A' for Active; 'I' for Inactive)
REMARK    1  A    between atoms: C_1  and  N_2
REMARK    2  A    between atoms: C_5  and  C_6
REMARK    3  A    between atoms: C_14  and  C_16
REMARK    4  A    between atoms: C_16  and  C_17
REMARK    5  A    between atoms: C_16  and  C_18
REMARK    6  A    between atoms: C_16  and  C_19
REMARK                            x       y       z     vdW  Elec       q    Type
REMARK                         _______ _______ _______ _____ _____    ______ ____
ROOT
ATOM      1  C   UNL     1      -5.205  12.078  18.775  0.00  0.00    +0.000 A 
ATOM      2  C   UNL     1      -6.325  12.291  17.988  0.00  0.00    +0.000 A 
ATOM      3  N   UNL     1      -6.045  11.884  16.714  0.00  0.00    +0.000 N 
ATOM      4  C   UNL     1      -4.758  11.409  16.645  0.00  0.00    +0.000 A 
ATOM      5  C   UNL     1      -4.018  10.887  15.590  0.00  0.00    +0.000 A 
ATOM      6  C   UNL     1      -2.707  10.500  15.898  0.00  0.00    +0.000 A 
ATOM      7  C   UNL     1      -2.213  10.648  17.198  0.00  0.00    +0.000 A 
ATOM      8  N   UNL     1      -0.877  10.244  17.443  0.00  0.00    +0.000 N 
ATOM      9  C   UNL     1      -0.250  10.337  18.677  0.00  0.00    +0.000 C 
ATOM     10  O   UNL     1      -0.761  10.805  19.696  0.00  0.00    +0.000 OA
ATOM     11  N   UNL     1      -2.946  11.146  18.203  0.00  0.00    +0.000 NA
ATOM     12  C   UNL     1      -4.211  11.522  17.918  0.00  0.00    +0.000 A 
ATOM     13  H   UNL     1      -6.687  11.929  15.937  0.00  0.00    +0.000 HD
ATOM     14  H   UNL     1      -0.361   9.873  16.659  0.00  0.00    +0.000 HD
ENDROOT
BRANCH   1  19
ATOM     15  C   UNL     1      -5.323  14.520  23.956  0.00  0.00    +0.000 C 
ATOM     16  N   UNL     1      -5.422  14.163  22.540  0.00  0.00    +0.000 NA
ATOM     17  C   UNL     1      -4.084  13.920  21.983  0.00  0.00    +0.000 C 
ATOM     18  C   UNL     1      -4.157  13.585  20.495  0.00  0.00    +0.000 C 
ATOM     19  C   UNL     1      -5.070  12.376  20.245  0.00  0.00    +0.000 C 
ATOM     20  C   UNL     1      -6.438  12.614  20.898  0.00  0.00    +0.000 C 
ATOM     21  C   UNL     1      -6.286  12.985  22.372  0.00  0.00    +0.000 C 
ENDBRANCH   1  19
BRANCH   9  22
ATOM     22  C   UNL     1       1.203   9.803  18.736  0.00  0.00    +0.000 C 
ATOM     23  C   UNL     1       1.501   9.178  20.104  0.00  0.00    +0.000 C 
ATOM     24  C   UNL     1       1.394   8.722  17.646  0.00  0.00    +0.000 C 
ATOM     25  C   UNL     1       2.193  10.942  18.456  0.00  0.00    +0.000 C 
ENDBRANCH   9  22
TORSDOF 2
ENDMDL
MODEL 7
REMARK VINA RESULT:      -6.3      6.101     10.720
REMARK  Name = 
REMARK  6 active torsions:
REMARK  status: ('A' for Active; 'I' for Inactive)
REMARK    1  A    between atoms: C_1  and  N_2
REMARK    2  A    between atoms: C_5  and  C_6
REMARK    3  A    between atoms: C_14  and  C_16
REMARK    4  A    between atoms: C_16  and  C_17
REMARK    5  A    between atoms: C_16  and  C_18
REMARK    6  A    between atoms: C_16  and  C_19
REMARK                            x       y       z     vdW  Elec       q    Type
REMARK                         _______ _______ _______ _____ _____    ______ ____
ROOT
ATOM      1  C   UNL     1      -5.320  12.485  18.896  0.00  0.00    +0.000 A 
ATOM      2  C   UNL     1      -6.470  12.608  18.132  0.00  0.00    +0.000 A 
ATOM      3  N   UNL     1      -6.233  12.067  16.900  0.00  0.00    +0.000 N 
ATOM      4  C   UNL     1      -4.946  11.591  16.836  0.00  0.00    +0.000 A 
ATOM      5  C   UNL     1      -4.241  10.961  15.816  0.00  0.00    +0.000 A 
ATOM      6  C   UNL     1      -2.916  10.614  16.116  0.00  0.00    +0.000 A 
ATOM      7  C   UNL     1      -2.377  10.903  17.374  0.00  0.00    +0.000 A 
ATOM      8  N   UNL     1      -1.030  10.532  17.612  0.00  0.00    +0.000 N 
ATOM      9  C   UNL     1      -0.360  10.760  18.804  0.00  0.00    +0.000 C 
ATOM     10  O   UNL     1      -0.836  11.334  19.785  0.00  0.00    +0.000 OA
ATOM     11  N   UNL     1      -3.076  11.505  18.346  0.00  0.00    +0.000 NA
ATOM     12  C   UNL     1      -4.354  11.843  18.068  0.00  0.00    +0.000 A 
ATOM     13  H   UNL     1      -6.903  12.025  16.147  0.00  0.00    +0.000 HD
ATOM     14  H   UNL     1      -0.540  10.081  16.853  0.00  0.00    +0.000 HD
ENDROOT
BRANCH   1  19
ATOM     15  C   UNL     1      -4.430  12.740  24.550  0.00  0.00    +0.000 C 
ATOM     16  N   UNL     1      -4.622  12.369  23.146  0.00  0.00    +0.000 NA
ATOM     17  C   UNL     1      -5.965  12.761  22.697  0.00  0.00    +0.000 C 
ATOM     18  C   UNL     1      -6.205  12.349  21.247  0.00  0.00    +0.000 C 
ATOM     19  C   UNL     1      -5.135  12.941  20.319  0.00  0.00    +0.000 C 
ATOM     20  C   UNL     1      -3.737  12.586  20.845  0.00  0.00    +0.000 C 
ATOM     21  C   UNL     1      -3.583  12.989  22.311  0.00  0.00    +0.000 C 
ENDBRANCH   1  19
BRANCH   9  22
ATOM     22  C   UNL     1       1.098  10.241  18.867  0.00  0.00    +0.000 C 
ATOM     23  C   UNL     1       1.400   9.619  20.236  0.00  0.00    +0.000 C 
ATOM     24  C   UNL     1       1.304   9.162  17.777  0.00  0.00    +0.000 C 
ATOM     25  C   UNL     1       2.078  11.390  18.590  0.00  0.00    +0.000 C 
ENDBRANCH   9  22
TORSDOF 2
ENDMDL
MODEL 8
REMARK VINA RESULT:      -6.3      3.617      8.044
REMARK  Name = 
REMARK  6 active torsions:
REMARK  status: ('A' for Active; 'I' for Inactive)
REMARK    1  A    between atoms: C_1  and  N_2
REMARK    2  A    between atoms: C_5  and  C_6
REMARK    3  A    between atoms: C_14  and  C_16
REMARK    4  A    between atoms: C_16  and  C_17
REMARK    5  A    between atoms: C_16  and  C_18
REMARK    6  A    between atoms: C_16  and  C_19
REMARK                            x       y       z     vdW  Elec       q    Type
REMARK                         _______ _______ _______ _____ _____    ______ ____
ROOT
ATOM      1  C   UNL     1      -1.225  11.008  19.884  0.00  0.00    +0.000 A 
ATOM      2  C   UNL     1      -1.751  11.770  20.914  0.00  0.00    +0.000 A 
ATOM      3  N   UNL     1      -1.133  11.414  22.079  0.00  0.00    +0.000 N 
ATOM      4  C   UNL     1      -0.209  10.426  21.837  0.00  0.00    +0.000 A 
ATOM      5  C   UNL     1       0.663   9.746  22.681  0.00  0.00    +0.000 A 
ATOM      6  C   UNL     1       1.472   8.780  22.068  0.00  0.00    +0.000 A 
ATOM      7  C   UNL     1       1.378   8.546  20.693  0.00  0.00    +0.000 A 
ATOM      8  N   UNL     1       2.220   7.552  20.136  0.00  0.00    +0.000 N 
ATOM      9  C   UNL     1       2.233   7.206  18.793  0.00  0.00    +0.000 C 
ATOM     10  O   UNL     1       1.500   7.694  17.930  0.00  0.00    +0.000 OA
ATOM     11  N   UNL     1       0.536   9.219  19.896  0.00  0.00    +0.000 NA
ATOM     12  C   UNL     1      -0.249  10.153  20.475  0.00  0.00    +0.000 A 
ATOM     13  H   UNL     1      -1.327  11.814  22.985  0.00  0.00    +0.000 HD
ATOM     14  H   UNL     1       2.839   7.070  20.771  0.00  0.00    +0.000 HD
ENDROOT
BRANCH   1  19
ATOM     15  C   UNL     1      -3.729  10.253  14.787  0.00  0.00    +0.000 C 
ATOM     16  N   UNL     1      -3.300  10.239  16.187  0.00  0.00    +0.000 NA
ATOM     17  C   UNL     1      -1.909   9.773  16.286  0.00  0.00    +0.000 C 
ATOM     18  C   UNL     1      -1.449   9.711  17.740  0.00  0.00    +0.000 C 
ATOM     19  C   UNL     1      -1.610  11.073  18.430  0.00  0.00    +0.000 C 
ATOM     20  C   UNL     1      -3.047  11.580  18.251  0.00  0.00    +0.000 C 
ATOM     21  C   UNL     1      -3.453  11.576  16.779  0.00  0.00    +0.000 C 
ENDBRANCH   1  19
BRANCH   9  22
ATOM     22  C   UNL     1       3.258   6.119  18.387  0.00  0.00    +0.000 C 
ATOM     23  C   UNL     1       4.037   5.616  19.608  0.00  0.00    +0.000 C 
ATOM     24  C   UNL     1       2.509   4.923  17.750  0.00  0.00    +0.000 C 
ATOM     25  C   UNL     1       4.232   6.680  17.341  0.00  0.00    +0.000 C 
ENDBRANCH   9  22
TORSDOF 2
ENDMDL
MODEL 9
REMARK VINA RESULT:      -6.2      6.893     10.051
REMARK  Name = 
REMARK  6 active torsions:
REMARK  status: ('A' for Active; 'I' for Inactive)
REMARK    1  A    between atoms: C_1  and  N_2
REMARK    2  A    between atoms: C_5  and  C_6
REMARK    3  A    between atoms: C_14  and  C_16
REMARK    4  A    between atoms: C_16  and  C_17
REMARK    5  A    between atoms: C_16  and  C_18
REMARK    6  A    between atoms: C_16  and  C_19
REMARK                            x       y       z     vdW  Elec       q    Type
REMARK                         _______ _______ _______ _____ _____    ______ ____
ROOT
ATOM      1  C   UNL     1      -3.610  11.272  17.707  0.00  0.00    +0.000 A 
ATOM      2  C   UNL     1      -3.978  11.091  16.383  0.00  0.00    +0.000 A 
ATOM      3  N   UNL     1      -5.286  11.457  16.241  0.00  0.00    +0.000 N 
ATOM      4  C   UNL     1      -5.791  11.875  17.448  0.00  0.00    +0.000 A 
ATOM      5  C   UNL     1      -7.049  12.340  17.815  0.00  0.00    +0.000 A 
ATOM      6  C   UNL     1      -7.203  12.677  19.167  0.00  0.00    +0.000 A 
ATOM      7  C   UNL     1      -6.133  12.538  20.057  0.00  0.00    +0.000 A 
ATOM      8  N   UNL     1      -6.356  12.889  21.412  0.00  0.00    +0.000 N 
ATOM      9  C   UNL     1      -5.395  12.796  22.407  0.00  0.00    +0.000 C 
ATOM     10  O   UNL     1      -4.248  12.373  22.246  0.00  0.00    +0.000 OA
ATOM     11  N   UNL     1      -4.926  12.093  19.681  0.00  0.00    +0.000 NA
ATOM     12  C   UNL     1      -4.766  11.766  18.380  0.00  0.00    +0.000 A 
ATOM     13  H   UNL     1      -5.807  11.422  15.378  0.00  0.00    +0.000 HD
ATOM     14  H   UNL     1      -7.279  13.219  21.652  0.00  0.00    +0.000 HD
ENDROOT
BRANCH   1  19
ATOM     15  C   UNL     1       2.015  10.863  18.710  0.00  0.00    +0.000 C 
ATOM     16  N   UNL     1       0.668  11.096  18.186  0.00  0.00    +0.000 NA
ATOM     17  C   UNL     1      -0.044   9.819  18.030  0.00  0.00    +0.000 C 
ATOM     18  C   UNL     1      -1.439  10.031  17.447  0.00  0.00    +0.000 C 
ATOM     19  C   UNL     1      -2.258  11.001  18.309  0.00  0.00    +0.000 C 
ATOM     20  C   UNL     1      -1.468  12.299  18.525  0.00  0.00    +0.000 C 
ATOM     21  C   UNL     1      -0.071  12.009  19.070  0.00  0.00    +0.000 C 
ENDBRANCH   1  19
BRANCH   9  22
ATOM     22  C   UNL     1      -5.835  13.269  23.815  0.00  0.00    +0.000 C 
ATOM     23  C   UNL     1      -5.657  14.784  23.966  0.00  0.00    +0.000 C 
ATOM     24  C   UNL     1      -7.328  12.922  24.026  0.00  0.00    +0.000 C 
ATOM     25  C   UNL     1      -5.021  12.538  24.892  0.00  0.00    +0.000 C 
ENDBRANCH   9  22
TORSDOF 2
ENDMDL
