MODEL 1
REMARK VINA RESULT:      -7.6      0.000      0.000
REMARK  Name = 
REMARK  10 active torsions:
REMARK  status: ('A' for Active; 'I' for Inactive)
REMARK    1  A    between atoms: C_1  and  O_2
REMARK    2  A    between atoms: O_2  and  C_3
REMARK    3  A    between atoms: C_6  and  C_7
REMARK    4  A    between atoms: C_7  and  C_8
REMARK    5  A    between atoms: C_8  and  O_9
REMARK    6  A    between atoms: C_8  and  C_10
REMARK    7  A    between atoms: C_11  and  C_12
REMARK    8  A    between atoms: C_13  and  C_14
REMARK    9  A    between atoms: C_23  and  O_24
REMARK   10  A    between atoms: O_24  and  C_25
REMARK                            x       y       z     vdW  Elec       q    Type
REMARK                         _______ _______ _______ _____ _____    ______ ____
ROOT
ATOM      1  C   UNL     1       6.983   6.054  16.886  0.00  0.00    +0.000 C 
ENDROOT
BRANCH   1   2
ATOM      2  O   UNL     1       7.684   5.776  15.676  0.00  0.00    +0.000 OA
ATOM      3  H   UNL     1       8.197   4.964  15.815  0.00  0.00    +0.000 HD
ENDBRANCH   1   2
BRANCH   1   4
ATOM      4  C   UNL     1       7.841   7.034  17.650  0.00  0.00    +0.000 C 
ATOM      5  C   UNL     1       7.653   8.363  17.710  0.00  0.00    +0.000 C 
BRANCH   5   6
ATOM      6  C   UNL     1       8.522   9.274  18.402  0.00  0.00    +0.000 C 
ATOM      7  C   UNL     1       8.612  10.561  18.030  0.00  0.00    +0.000 C 
BRANCH   7   8
ATOM      8  C   UNL     1       9.611  11.421  18.683  0.00  0.00    +0.000 C 
ATOM      9  O   UNL     1      10.492  10.915  19.369  0.00  0.00    +0.000 OA
ATOM     10  N   UNL     1       9.470  12.778  18.457  0.00  0.00    +0.000 N 
ATOM     11  C   UNL     1       8.457  13.411  17.598  0.00  0.00    +0.000 C 
ATOM     12  C   UNL     1       7.563  14.378  18.376  0.00  0.00    +0.000 C 
ATOM     13  S   UNL     1       8.521  15.720  19.156  0.00  0.00    +0.000 S 
ATOM     14  C   UNL     1       9.755  14.685  20.021  0.00  0.00    +0.000 C 
ATOM     15  C   UNL     1      10.432  13.694  19.073  0.00  0.00    +0.000 C 
ENDBRANCH   7   8
ENDBRANCH   5   6
ENDBRANCH   1   4
BRANCH   1  16
ATOM     16  C   UNL     1       5.559   6.559  16.583  0.00  0.00    +0.000 C 
BRANCH  16  20
ATOM     17  C   UNL     1       2.164   4.619  18.406  0.00  0.00    +0.000 A 
ATOM     18  C   UNL     1       2.400   5.986  18.622  0.00  0.00    +0.000 A 
ATOM     19  C   UNL     1       3.509   6.622  18.064  0.00  0.00    +0.000 A 
ATOM     20  C   UNL     1       4.437   5.887  17.330  0.00  0.00    +0.000 A 
ATOM     21  C   UNL     1       4.251   4.504  17.204  0.00  0.00    +0.000 A 
ATOM     22  C   UNL     1       3.129   3.854  17.737  0.00  0.00    +0.000 A 
BRANCH  17  24
ATOM     23  C   UNL     1       1.051   3.546  20.192  0.00  0.00    +0.000 C 
ATOM     24  O   UNL     1       1.010   4.029  18.848  0.00  0.00    +0.000 OA
ENDBRANCH  17  24
BRANCH  22  25
ATOM     25  O   UNL     1       3.147   2.514  17.466  0.00  0.00    +0.000 OA
ATOM     26  C   UNL     1       3.687   1.620  18.423  0.00  0.00    +0.000 C 
ENDBRANCH  22  25
ENDBRANCH  16  20
ENDBRANCH   1  16
TORSDOF 8
ENDMDL
MODEL 2
REMARK VINA RESULT:      -7.6      1.856      2.419
REMARK  Name = 
REMARK  10 active torsions:
REMARK  status: ('A' for Active; 'I' for Inactive)
REMARK    1  A    between atoms: C_1  and  O_2
REMARK    2  A    between atoms: O_2  and  C_3
REMARK    3  A    between atoms: C_6  and  C_7
REMARK    4  A    between atoms: C_7  and  C_8
REMARK    5  A    between atoms: C_8  and  O_9
REMARK    6  A    between atoms: C_8  and  C_10
REMARK    7  A    between atoms: C_11  and  C_12
REMARK    8  A    between atoms: C_13  and  C_14
REMARK    9  A    between atoms: C_23  and  O_24
REMARK   10  A    between atoms: O_24  and  C_25
REMARK                            x       y       z     vdW  Elec       q    Type
REMARK                         _______ _______ _______ _____ _____    ______ ____
ROOT
ATOM      1  C   UNL     1       7.262   6.281  17.085  0.00  0.00    +0.000 C 
ENDROOT
BRANCH   1   2
ATOM      2  O   UNL     1       6.184   6.957  16.440  0.00  0.00    +0.000 OA
ATOM      3  H   UNL     1       6.027   7.783  16.925  0.00  0.00    +0.000 HD
ENDBRANCH   1   2
BRANCH   1   4
ATOM      4  C   UNL     1       7.844   7.266  18.070  0.00  0.00    +0.000 C 
ATOM      5  C   UNL     1       8.143   8.550  17.813  0.00  0.00    +0.000 C 
BRANCH   5   6
ATOM      6  C   UNL     1       8.748   9.446  18.760  0.00  0.00    +0.000 C 
ATOM      7  C   UNL     1       9.109  10.688  18.402  0.00  0.00    +0.000 C 
BRANCH   7   8
ATOM      8  C   UNL     1       9.841  11.521  19.369  0.00  0.00    +0.000 C 
ATOM      9  O   UNL     1       9.491  11.540  20.543  0.00  0.00    +0.000 OA
ATOM     10  N   UNL     1      10.908  12.236  18.854  0.00  0.00    +0.000 N 
ATOM     11  C   UNL     1      11.386  12.194  17.463  0.00  0.00    +0.000 C 
ATOM     12  C   UNL     1      11.324  13.567  16.789  0.00  0.00    +0.000 C 
ATOM     13  S   UNL     1      12.333  14.806  17.668  0.00  0.00    +0.000 S 
ATOM     14  C   UNL     1      11.648  14.555  19.344  0.00  0.00    +0.000 C 
ATOM     15  C   UNL     1      11.685  13.084  19.760  0.00  0.00    +0.000 C 
ENDBRANCH   7   8
ENDBRANCH   5   6
ENDBRANCH   1   4
BRANCH   1  16
ATOM     16  C   UNL     1       6.773   4.963  17.718  0.00  0.00    +0.000 C 
BRANCH  16  20
ATOM     17  C   UNL     1       2.562   4.109  18.108  0.00  0.00    +0.000 A 
ATOM     18  C   UNL     1       3.261   3.723  16.951  0.00  0.00    +0.000 A 
ATOM     19  C   UNL     1       4.615   4.018  16.797  0.00  0.00    +0.000 A 
ATOM     20  C   UNL     1       5.282   4.758  17.770  0.00  0.00    +0.000 A 
ATOM     21  C   UNL     1       4.556   5.229  18.872  0.00  0.00    +0.000 A 
ATOM     22  C   UNL     1       3.201   4.921  19.055  0.00  0.00    +0.000 A 
BRANCH  17  24
ATOM     23  C   UNL     1       1.118   2.487  19.037  0.00  0.00    +0.000 C 
ATOM     24  O   UNL     1       1.269   3.708  18.310  0.00  0.00    +0.000 OA
ENDBRANCH  17  24
BRANCH  22  25
ATOM     25  O   UNL     1       2.712   5.462  20.212  0.00  0.00    +0.000 OA
ATOM     26  C   UNL     1       2.010   6.691  20.160  0.00  0.00    +0.000 C 
ENDBRANCH  22  25
ENDBRANCH  16  20
ENDBRANCH   1  16
TORSDOF 8
ENDMDL
MODEL 3
REMARK VINA RESULT:      -7.2      1.181      1.185
REMARK  Name = 
REMARK  10 active torsions:
REMARK  status: ('A' for Active; 'I' for Inactive)
REMARK    1  A    between atoms: C_1  and  O_2
REMARK    2  A    between atoms: O_2  and  C_3
REMARK    3  A    between atoms: C_6  and  C_7
REMARK    4  A    between atoms: C_7  and  C_8
REMARK    5  A    between atoms: C_8  and  O_9
REMARK    6  A    between atoms: C_8  and  C_10
REMARK    7  A    between atoms: C_11  and  C_12
REMARK    8  A    between atoms: C_13  and  C_14
REMARK    9  A    between atoms: C_23  and  O_24
REMARK   10  A    between atoms: O_24  and  C_25
REMARK                            x       y       z     vdW  Elec       q    Type
REMARK                         _______ _______ _______ _____ _____    ______ ____
ROOT
ATOM      1  C   UNL     1       6.958   5.519  17.743  0.00  0.00    +0.000 C 
ENDROOT
BRANCH   1   2
ATOM      2  O   UNL     1       7.742   4.843  16.762  0.00  0.00    +0.000 OA
ATOM      3  H   UNL     1       8.107   5.516  16.165  0.00  0.00    +0.000 HD
ENDBRANCH   1   2
BRANCH   1   4
ATOM      4  C   UNL     1       7.805   6.669  18.234  0.00  0.00    +0.000 C 
ATOM      5  C   UNL     1       7.706   7.947  17.829  0.00  0.00    +0.000 C 
BRANCH   5   6
ATOM      6  C   UNL     1       8.567   9.007  18.277  0.00  0.00    +0.000 C 
ATOM      7  C   UNL     1       8.387  10.267  17.853  0.00  0.00    +0.000 C 
BRANCH   7   8
ATOM      8  C   UNL     1       9.371  11.292  18.235  0.00  0.00    +0.000 C 
ATOM      9  O   UNL     1      10.380  10.965  18.849  0.00  0.00    +0.000 OA
ATOM     10  N   UNL     1       9.066  12.586  17.853  0.00  0.00    +0.000 N 
ATOM     11  C   UNL     1       7.891  13.002  17.071  0.00  0.00    +0.000 C 
ATOM     12  C   UNL     1       7.013  13.996  17.833  0.00  0.00    +0.000 C 
ATOM     13  S   UNL     1       7.925  15.511  18.281  0.00  0.00    +0.000 S 
ATOM     14  C   UNL     1       9.359  14.718  19.091  0.00  0.00    +0.000 C 
ATOM     15  C   UNL     1      10.003  13.657  18.197  0.00  0.00    +0.000 C 
ENDBRANCH   7   8
ENDBRANCH   5   6
ENDBRANCH   1   4
BRANCH   1  16
ATOM     16  C   UNL     1       5.598   5.939  17.153  0.00  0.00    +0.000 C 
BRANCH  16  20
ATOM     17  C   UNL     1       2.084   4.456  19.169  0.00  0.00    +0.000 A 
ATOM     18  C   UNL     1       1.984   5.522  18.260  0.00  0.00    +0.000 A 
ATOM     19  C   UNL     1       3.114   6.033  17.623  0.00  0.00    +0.000 A 
ATOM     20  C   UNL     1       4.375   5.526  17.929  0.00  0.00    +0.000 A 
ATOM     21  C   UNL     1       4.480   4.534  18.913  0.00  0.00    +0.000 A 
ATOM     22  C   UNL     1       3.352   3.992  19.544  0.00  0.00    +0.000 A 
BRANCH  17  24
ATOM     23  C   UNL     1       0.573   2.642  19.090  0.00  0.00    +0.000 C 
ATOM     24  O   UNL     1       0.960   3.877  19.695  0.00  0.00    +0.000 OA
ENDBRANCH  17  24
BRANCH  22  25
ATOM     25  O   UNL     1       3.696   3.021  20.444  0.00  0.00    +0.000 OA
ATOM     26  C   UNL     1       4.578   1.987  20.045  0.00  0.00    +0.000 C 
ENDBRANCH  22  25
ENDBRANCH  16  20
ENDBRANCH   1  16
TORSDOF 8
ENDMDL
MODEL 4
REMARK VINA RESULT:      -7.2      1.250      1.265
REMARK  Name = 
REMARK  10 active torsions:
REMARK  status: ('A' for Active; 'I' for Inactive)
REMARK    1  A    between atoms: C_1  and  O_2
REMARK    2  A    between atoms: O_2  and  C_3
REMARK    3  A    between atoms: C_6  and  C_7
REMARK    4  A    between atoms: C_7  and  C_8
REMARK    5  A    between atoms: C_8  and  O_9
REMARK    6  A    between atoms: C_8  and  C_10
REMARK    7  A    between atoms: C_11  and  C_12
REMARK    8  A    between atoms: C_13  and  C_14
REMARK    9  A    between atoms: C_23  and  O_24
REMARK   10  A    between atoms: O_24  and  C_25
REMARK                            x       y       z     vdW  Elec       q    Type
REMARK                         _______ _______ _______ _____ _____    ______ ____
ROOT
ATOM      1  C   UNL     1       7.176   6.594  17.463  0.00  0.00    +0.000 C 
ENDROOT
BRANCH   1   2
ATOM      2  O   UNL     1       7.728   6.430  16.158  0.00  0.00    +0.000 OA
ATOM      3  H   UNL     1       8.403   7.117  16.039  0.00  0.00    +0.000 HD
ENDBRANCH   1   2
BRANCH   1   4
ATOM      4  C   UNL     1       8.087   7.559  18.184  0.00  0.00    +0.000 C 
ATOM      5  C   UNL     1       8.115   8.891  18.011  0.00  0.00    +0.000 C 
BRANCH   5   6
ATOM      6  C   UNL     1       9.034   9.774  18.673  0.00  0.00    +0.000 C 
ATOM      7  C   UNL     1       9.323  10.981  18.161  0.00  0.00    +0.000 C 
BRANCH   7   8
ATOM      8  C   UNL     1      10.367  11.794  18.804  0.00  0.00    +0.000 C 
ATOM      9  O   UNL     1      11.369  11.250  19.255  0.00  0.00    +0.000 OA
ATOM     10  N   UNL     1      10.124  13.155  18.844  0.00  0.00    +0.000 N 
ATOM     11  C   UNL     1       8.959  13.843  18.267  0.00  0.00    +0.000 C 
ATOM     12  C   UNL     1       8.149  14.595  19.325  0.00  0.00    +0.000 C 
ATOM     13  S   UNL     1       9.148  15.857  20.183  0.00  0.00    +0.000 S 
ATOM     14  C   UNL     1      10.553  14.790  20.663  0.00  0.00    +0.000 C 
ATOM     15  C   UNL     1      11.123  14.026  19.467  0.00  0.00    +0.000 C 
ENDBRANCH   7   8
ENDBRANCH   5   6
ENDBRANCH   1   4
BRANCH   1  16
ATOM     16  C   UNL     1       5.708   7.051  17.377  0.00  0.00    +0.000 C 
BRANCH  16  20
ATOM     17  C   UNL     1       2.798   4.272  18.936  0.00  0.00    +0.000 A 
ATOM     18  C   UNL     1       2.397   5.539  18.478  0.00  0.00    +0.000 A 
ATOM     19  C   UNL     1       3.328   6.460  17.999  0.00  0.00    +0.000 A 
ATOM     20  C   UNL     1       4.687   6.153  18.025  0.00  0.00    +0.000 A 
ATOM     21  C   UNL     1       5.090   4.931  18.579  0.00  0.00    +0.000 A 
ATOM     22  C   UNL     1       4.166   3.984  19.041  0.00  0.00    +0.000 A 
BRANCH  17  24
ATOM     23  C   UNL     1       1.635   2.315  18.306  0.00  0.00    +0.000 C 
ATOM     24  O   UNL     1       1.870   3.328  19.285  0.00  0.00    +0.000 OA
ENDBRANCH  17  24
BRANCH  22  25
ATOM     25  O   UNL     1       4.787   2.859  19.508  0.00  0.00    +0.000 OA
ATOM     26  C   UNL     1       4.396   2.319  20.758  0.00  0.00    +0.000 C 
ENDBRANCH  22  25
ENDBRANCH  16  20
ENDBRANCH   1  16
TORSDOF 8
ENDMDL
MODEL 5
REMARK VINA RESULT:      -7.1      1.594      2.312
REMARK  Name = 
REMARK  10 active torsions:
REMARK  status: ('A' for Active; 'I' for Inactive)
REMARK    1  A    between atoms: C_1  and  O_2
REMARK    2  A    between atoms: O_2  and  C_3
REMARK    3  A    between atoms: C_6  and  C_7
REMARK    4  A    between atoms: C_7  and  C_8
REMARK    5  A    between atoms: C_8  and  O_9
REMARK    6  A    between atoms: C_8  and  C_10
REMARK    7  A    between atoms: C_11  and  C_12
REMARK    8  A    between atoms: C_13  and  C_14
REMARK    9  A    between atoms: C_23  and  O_24
REMARK   10  A    between atoms: O_24  and  C_25
REMARK                            x       y       z     vdW  Elec       q    Type
REMARK                         _______ _______ _______ _____ _____    ______ ____
ROOT
ATOM      1  C   UNL     1       6.816   6.360  16.978  0.00  0.00    +0.000 C 
ENDROOT
BRANCH   1   2
ATOM      2  O   UNL     1       7.802   6.326  15.948  0.00  0.00    +0.000 OA
ATOM      3  H   UNL     1       7.511   6.930  15.245  0.00  0.00    +0.000 HD
ENDBRANCH   1   2
BRANCH   1   4
ATOM      4  C   UNL     1       7.091   7.611  17.778  0.00  0.00    +0.000 C 
ATOM      5  C   UNL     1       8.240   8.308  17.775  0.00  0.00    +0.000 C 
BRANCH   5   6
ATOM      6  C   UNL     1       8.487   9.464  18.592  0.00  0.00    +0.000 C 
ATOM      7  C   UNL     1       9.391  10.387  18.227  0.00  0.00    +0.000 C 
BRANCH   7   8
ATOM      8  C   UNL     1       9.703  11.482  19.158  0.00  0.00    +0.000 C 
ATOM      9  O   UNL     1       9.072  11.588  20.204  0.00  0.00    +0.000 OA
ATOM     10  N   UNL     1      10.722  12.330  18.764  0.00  0.00    +0.000 N 
ATOM     11  C   UNL     1      11.532  12.199  17.543  0.00  0.00    +0.000 C 
ATOM     12  C   UNL     1      11.402  13.419  16.630  0.00  0.00    +0.000 C 
ATOM     13  S   UNL     1      11.928  14.955  17.462  0.00  0.00    +0.000 S 
ATOM     14  C   UNL     1      10.901  14.798  18.965  0.00  0.00    +0.000 C 
ATOM     15  C   UNL     1      11.089  13.441  19.644  0.00  0.00    +0.000 C 
ENDBRANCH   7   8
ENDBRANCH   5   6
ENDBRANCH   1   4
BRANCH   1  16
ATOM     16  C   UNL     1       5.400   6.292  16.373  0.00  0.00    +0.000 C 
BRANCH  16  20
ATOM     17  C   UNL     1       2.863   3.500  18.467  0.00  0.00    +0.000 A 
ATOM     18  C   UNL     1       3.850   3.036  17.581  0.00  0.00    +0.000 A 
ATOM     19  C   UNL     1       4.659   3.926  16.874  0.00  0.00    +0.000 A 
ATOM     20  C   UNL     1       4.453   5.298  16.994  0.00  0.00    +0.000 A 
ATOM     21  C   UNL     1       3.400   5.753  17.799  0.00  0.00    +0.000 A 
ATOM     22  C   UNL     1       2.596   4.873  18.535  0.00  0.00    +0.000 A 
BRANCH  17  24
ATOM     23  C   UNL     1       2.662   2.460  20.579  0.00  0.00    +0.000 C 
ATOM     24  O   UNL     1       2.160   2.625  19.252  0.00  0.00    +0.000 OA
ENDBRANCH  17  24
BRANCH  22  25
ATOM     25  O   UNL     1       1.655   5.544  19.268  0.00  0.00    +0.000 OA
ATOM     26  C   UNL     1       1.999   6.043  20.548  0.00  0.00    +0.000 C 
ENDBRANCH  22  25
ENDBRANCH  16  20
ENDBRANCH   1  16
TORSDOF 8
ENDMDL
MODEL 6
REMARK VINA RESULT:      -7.0      1.232      2.042
REMARK  Name = 
REMARK  10 active torsions:
REMARK  status: ('A' for Active; 'I' for Inactive)
REMARK    1  A    between atoms: C_1  and  O_2
REMARK    2  A    between atoms: O_2  and  C_3
REMARK    3  A    between atoms: C_6  and  C_7
REMARK    4  A    between atoms: C_7  and  C_8
REMARK    5  A    between atoms: C_8  and  O_9
REMARK    6  A    between atoms: C_8  and  C_10
REMARK    7  A    between atoms: C_11  and  C_12
REMARK    8  A    between atoms: C_13  and  C_14
REMARK    9  A    between atoms: C_23  and  O_24
REMARK   10  A    between atoms: O_24  and  C_25
REMARK                            x       y       z     vdW  Elec       q    Type
REMARK                         _______ _______ _______ _____ _____    ______ ____
ROOT
ATOM      1  C   UNL     1       7.116   6.184  18.488  0.00  0.00    +0.000 C 
ENDROOT
BRANCH   1   2
ATOM      2  O   UNL     1       7.829   4.970  18.721  0.00  0.00    +0.000 OA
ATOM      3  H   UNL     1       8.577   4.949  18.103  0.00  0.00    +0.000 HD
ENDBRANCH   1   2
BRANCH   1   4
ATOM      4  C   UNL     1       8.147   7.286  18.518  0.00  0.00    +0.000 C 
ATOM      5  C   UNL     1       7.988   8.525  18.023  0.00  0.00    +0.000 C 
BRANCH   5   6
ATOM      6  C   UNL     1       9.011   9.534  18.019  0.00  0.00    +0.000 C 
ATOM      7  C   UNL     1       9.181  10.349  19.072  0.00  0.00    +0.000 C 
BRANCH   7   8
ATOM      8  C   UNL     1      10.153  11.449  18.968  0.00  0.00    +0.000 C 
ATOM      9  O   UNL     1      11.260  11.330  19.481  0.00  0.00    +0.000 OA
ATOM     10  N   UNL     1       9.722  12.564  18.272  0.00  0.00    +0.000 N 
ATOM     11  C   UNL     1       8.421  12.716  17.602  0.00  0.00    +0.000 C 
ATOM     12  C   UNL     1       7.615  13.887  18.165  0.00  0.00    +0.000 C 
ATOM     13  S   UNL     1       8.498  15.474  17.989  0.00  0.00    +0.000 S 
ATOM     14  C   UNL     1      10.080  14.972  18.756  0.00  0.00    +0.000 C 
ATOM     15  C   UNL     1      10.639  13.696  18.127  0.00  0.00    +0.000 C 
ENDBRANCH   7   8
ENDBRANCH   5   6
ENDBRANCH   1   4
BRANCH   1  16
ATOM     16  C   UNL     1       6.317   6.098  17.173  0.00  0.00    +0.000 C 
BRANCH  16  20
ATOM     17  C   UNL     1       2.615   3.942  17.688  0.00  0.00    +0.000 A 
ATOM     18  C   UNL     1       3.564   3.509  16.747  0.00  0.00    +0.000 A 
ATOM     19  C   UNL     1       4.752   4.211  16.547  0.00  0.00    +0.000 A 
ATOM     20  C   UNL     1       4.986   5.395  17.243  0.00  0.00    +0.000 A 
ATOM     21  C   UNL     1       3.991   5.878  18.103  0.00  0.00    +0.000 A 
ATOM     22  C   UNL     1       2.803   5.171  18.334  0.00  0.00    +0.000 A 
BRANCH  17  24
ATOM     23  C   UNL     1       1.645   2.312  19.096  0.00  0.00    +0.000 C 
ATOM     24  O   UNL     1       1.512   3.182  17.970  0.00  0.00    +0.000 OA
ENDBRANCH  17  24
BRANCH  22  25
ATOM     25  O   UNL     1       1.998   5.818  19.231  0.00  0.00    +0.000 OA
ATOM     26  C   UNL     1       2.329   7.134  19.638  0.00  0.00    +0.000 C 
ENDBRANCH  22  25
ENDBRANCH  16  20
ENDBRANCH   1  16
TORSDOF 8
ENDMDL
MODEL 7
REMARK VINA RESULT:      -7.0      1.555      1.697
REMARK  Name = 
REMARK  10 active torsions:
REMARK  status: ('A' for Active; 'I' for Inactive)
REMARK    1  A    between atoms: C_1  and  O_2
REMARK    2  A    between atoms: O_2  and  C_3
REMARK    3  A    between atoms: C_6  and  C_7
REMARK    4  A    between atoms: C_7  and  C_8
REMARK    5  A    between atoms: C_8  and  O_9
REMARK    6  A    between atoms: C_8  and  C_10
REMARK    7  A    between atoms: C_11  and  C_12
REMARK    8  A    between atoms: C_13  and  C_14
REMARK    9  A    between atoms: C_23  and  O_24
REMARK   10  A    between atoms: O_24  and  C_25
REMARK                            x       y       z     vdW  Elec       q    Type
REMARK                         _______ _______ _______ _____ _____    ______ ____
ROOT
ATOM      1  C   UNL     1       6.988   5.944  16.921  0.00  0.00    +0.000 C 
ENDROOT
BRANCH   1   2
ATOM      2  O   UNL     1       7.733   6.103  15.716  0.00  0.00    +0.000 OA
ATOM      3  H   UNL     1       8.333   5.343  15.641  0.00  0.00    +0.000 HD
ENDBRANCH   1   2
BRANCH   1   4
ATOM      4  C   UNL     1       7.337   7.130  17.788  0.00  0.00    +0.000 C 
ATOM      5  C   UNL     1       7.629   8.366  17.348  0.00  0.00    +0.000 C 
BRANCH   5   6
ATOM      6  C   UNL     1       8.012   9.459  18.199  0.00  0.00    +0.000 C 
ATOM      7  C   UNL     1       9.236   9.511  18.746  0.00  0.00    +0.000 C 
BRANCH   7   8
ATOM      8  C   UNL     1       9.536  10.579  19.712  0.00  0.00    +0.000 C 
ATOM      9  O   UNL     1       9.051  10.534  20.838  0.00  0.00    +0.000 OA
ATOM     10  N   UNL     1      10.373  11.581  19.256  0.00  0.00    +0.000 N 
ATOM     11  C   UNL     1      11.012  11.637  17.931  0.00  0.00    +0.000 C 
ATOM     12  C   UNL     1      10.600  12.882  17.144  0.00  0.00    +0.000 C 
ATOM     13  S   UNL     1      11.041  14.421  18.019  0.00  0.00    +0.000 S 
ATOM     14  C   UNL     1      10.265  14.033  19.628  0.00  0.00    +0.000 C 
ATOM     15  C   UNL     1      10.718  12.675  20.165  0.00  0.00    +0.000 C 
ENDBRANCH   7   8
ENDBRANCH   5   6
ENDBRANCH   1   4
BRANCH   1  16
ATOM     16  C   UNL     1       5.485   5.803  16.613  0.00  0.00    +0.000 C 
BRANCH  16  20
ATOM     17  C   UNL     1       2.624   5.236  19.793  0.00  0.00    +0.000 A 
ATOM     18  C   UNL     1       2.793   6.502  19.207  0.00  0.00    +0.000 A 
ATOM     19  C   UNL     1       3.733   6.709  18.198  0.00  0.00    +0.000 A 
ATOM     20  C   UNL     1       4.567   5.666  17.800  0.00  0.00    +0.000 A 
ATOM     21  C   UNL     1       4.466   4.434  18.460  0.00  0.00    +0.000 A 
ATOM     22  C   UNL     1       3.509   4.203  19.457  0.00  0.00    +0.000 A 
BRANCH  17  24
ATOM     23  C   UNL     1       0.669   4.013  20.302  0.00  0.00    +0.000 C 
ATOM     24  O   UNL     1       1.616   5.009  20.690  0.00  0.00    +0.000 OA
ENDBRANCH  17  24
BRANCH  22  25
ATOM     25  O   UNL     1       3.579   2.923  19.935  0.00  0.00    +0.000 OA
ATOM     26  C   UNL     1       4.836   2.274  20.002  0.00  0.00    +0.000 C 
ENDBRANCH  22  25
ENDBRANCH  16  20
ENDBRANCH   1  16
TORSDOF 8
ENDMDL
MODEL 8
REMARK VINA RESULT:      -6.9      4.186      7.120
REMARK  Name = 
REMARK  10 active torsions:
REMARK  status: ('A' for Active; 'I' for Inactive)
REMARK    1  A    between atoms: C_1  and  O_2
REMARK    2  A    between atoms: O_2  and  C_3
REMARK    3  A    between atoms: C_6  and  C_7
REMARK    4  A    between atoms: C_7  and  C_8
REMARK    5  A    between atoms: C_8  and  O_9
REMARK    6  A    between atoms: C_8  and  C_10
REMARK    7  A    between atoms: C_11  and  C_12
REMARK    8  A    between atoms: C_13  and  C_14
REMARK    9  A    between atoms: C_23  and  O_24
REMARK   10  A    between atoms: O_24  and  C_25
REMARK                            x       y       z     vdW  Elec       q    Type
REMARK                         _______ _______ _______ _____ _____    ______ ____
ROOT
ATOM      1  C   UNL     1       2.393   3.364  18.289  0.00  0.00    +0.000 C 
ENDROOT
BRANCH   1   2
ATOM      2  O   UNL     1       2.073   3.279  19.677  0.00  0.00    +0.000 OA
ATOM      3  H   UNL     1       2.198   2.356  19.949  0.00  0.00    +0.000 HD
ENDBRANCH   1   2
BRANCH   1   4
ATOM      4  C   UNL     1       2.035   4.768  17.863  0.00  0.00    +0.000 C 
ATOM      5  C   UNL     1       2.399   5.897  18.495  0.00  0.00    +0.000 C 
BRANCH   5   6
ATOM      6  C   UNL     1       1.995   7.215  18.093  0.00  0.00    +0.000 C 
ATOM      7  C   UNL     1       2.005   8.237  18.964  0.00  0.00    +0.000 C 
BRANCH   7   8
ATOM      8  C   UNL     1       1.459   9.535  18.541  0.00  0.00    +0.000 C 
ATOM      9  O   UNL     1       1.855  10.052  17.502  0.00  0.00    +0.000 OA
ATOM     10  N   UNL     1       0.506  10.084  19.380  0.00  0.00    +0.000 N 
ATOM     11  C   UNL     1      -0.028   9.466  20.604  0.00  0.00    +0.000 C 
ATOM     12  C   UNL     1       0.233  10.322  21.845  0.00  0.00    +0.000 C 
ATOM     13  S   UNL     1      -0.522  11.977  21.705  0.00  0.00    +0.000 S 
ATOM     14  C   UNL     1       0.179  12.443  20.082  0.00  0.00    +0.000 C 
ATOM     15  C   UNL     1      -0.084  11.375  19.020  0.00  0.00    +0.000 C 
ENDBRANCH   7   8
ENDBRANCH   5   6
ENDBRANCH   1   4
BRANCH   1  16
ATOM     16  C   UNL     1       3.867   2.983  18.050  0.00  0.00    +0.000 C 
BRANCH  16  20
ATOM     17  C   UNL     1       6.835   5.989  17.171  0.00  0.00    +0.000 A 
ATOM     18  C   UNL     1       6.489   5.700  18.501  0.00  0.00    +0.000 A 
ATOM     19  C   UNL     1       5.511   4.753  18.802  0.00  0.00    +0.000 A 
ATOM     20  C   UNL     1       4.816   4.120  17.774  0.00  0.00    +0.000 A 
ATOM     21  C   UNL     1       5.092   4.487  16.450  0.00  0.00    +0.000 A 
ATOM     22  C   UNL     1       6.089   5.418  16.131  0.00  0.00    +0.000 A 
BRANCH  17  24
ATOM     23  C   UNL     1       7.878   8.066  17.592  0.00  0.00    +0.000 C 
ATOM     24  O   UNL     1       7.881   6.824  16.885  0.00  0.00    +0.000 OA
ENDBRANCH  17  24
BRANCH  22  25
ATOM     25  O   UNL     1       6.199   5.595  14.779  0.00  0.00    +0.000 OA
ATOM     26  C   UNL     1       6.676   4.529  13.976  0.00  0.00    +0.000 C 
ENDBRANCH  22  25
ENDBRANCH  16  20
ENDBRANCH   1  16
TORSDOF 8
ENDMDL
MODEL 9
REMARK VINA RESULT:      -6.9      5.366      7.596
REMARK  Name = 
REMARK  10 active torsions:
REMARK  status: ('A' for Active; 'I' for Inactive)
REMARK    1  A    between atoms: C_1  and  O_2
REMARK    2  A    between atoms: O_2  and  C_3
REMARK    3  A    between atoms: C_6  and  C_7
REMARK    4  A    between atoms: C_7  and  C_8
REMARK    5  A    between atoms: C_8  and  O_9
REMARK    6  A    between atoms: C_8  and  C_10
REMARK    7  A    between atoms: C_11  and  C_12
REMARK    8  A    between atoms: C_13  and  C_14
REMARK    9  A    between atoms: C_23  and  O_24
REMARK   10  A    between atoms: O_24  and  C_25
REMARK                            x       y       z     vdW  Elec       q    Type
REMARK                         _______ _______ _______ _____ _____    ______ ____
ROOT
ATOM      1  C   UNL     1       2.462   3.165  20.526  0.00  0.00    +0.000 C 
ENDROOT
BRANCH   1   2
ATOM      2  O   UNL     1       2.241   3.208  21.935  0.00  0.00    +0.000 OA
ATOM      3  H   UNL     1       1.283   3.146  22.081  0.00  0.00    +0.000 HD
ENDBRANCH   1   2
BRANCH   1   4
ATOM      4  C   UNL     1       2.002   4.499  19.991  0.00  0.00    +0.000 C 
ATOM      5  C   UNL     1       2.578   5.688  20.241  0.00  0.00    +0.000 C 
BRANCH   5   6
ATOM      6  C   UNL     1       2.080   6.946  19.759  0.00  0.00    +0.000 C 
ATOM      7  C   UNL     1       1.635   7.884  20.610  0.00  0.00    +0.000 C 
BRANCH   7   8
ATOM      8  C   UNL     1       1.014   9.101  20.064  0.00  0.00    +0.000 C 
ATOM      9  O   UNL     1       1.430   9.575  19.013  0.00  0.00    +0.000 OA
ATOM     10  N   UNL     1      -0.027   9.626  20.807  0.00  0.00    +0.000 N 
ATOM     11  C   UNL     1      -0.583   9.052  22.043  0.00  0.00    +0.000 C 
ATOM     12  C   UNL     1      -0.465  10.011  23.229  0.00  0.00    +0.000 C 
ATOM     13  S   UNL     1      -1.338  11.584  22.927  0.00  0.00    +0.000 S 
ATOM     14  C   UNL     1      -0.580  11.993  21.314  0.00  0.00    +0.000 C 
ATOM     15  C   UNL     1      -0.694  10.836  20.322  0.00  0.00    +0.000 C 
ENDBRANCH   7   8
ENDBRANCH   5   6
ENDBRANCH   1   4
BRANCH   1  16
ATOM     16  C   UNL     1       3.935   2.832  20.221  0.00  0.00    +0.000 C 
BRANCH  16  20
ATOM     17  C   UNL     1       5.354   4.728  16.615  0.00  0.00    +0.000 A 
ATOM     18  C   UNL     1       4.381   3.718  16.549  0.00  0.00    +0.000 A 
ATOM     19  C   UNL     1       3.933   3.074  17.702  0.00  0.00    +0.000 A 
ATOM     20  C   UNL     1       4.496   3.387  18.938  0.00  0.00    +0.000 A 
ATOM     21  C   UNL     1       5.539   4.321  18.984  0.00  0.00    +0.000 A 
ATOM     22  C   UNL     1       5.983   4.995  17.838  0.00  0.00    +0.000 A 
BRANCH  17  24
ATOM     23  C   UNL     1       6.686   4.833  14.666  0.00  0.00    +0.000 C 
ATOM     24  O   UNL     1       5.697   5.442  15.498  0.00  0.00    +0.000 OA
ENDBRANCH  17  24
BRANCH  22  25
ATOM     25  O   UNL     1       6.987   5.878  18.129  0.00  0.00    +0.000 OA
ATOM     26  C   UNL     1       7.786   5.665  19.279  0.00  0.00    +0.000 C 
ENDBRANCH  22  25
ENDBRANCH  16  20
ENDBRANCH   1  16
TORSDOF 8
ENDMDL
