MODEL 1
REMARK VINA RESULT:      -8.4      0.000      0.000
REMARK  Name = 
REMARK  6 active torsions:
REMARK  status: ('A' for Active; 'I' for Inactive)
REMARK    1  A    between atoms: C_1  and  S_2
REMARK    2  A    between atoms: S_2  and  N_5
REMARK    3  A    between atoms: N_5  and  C_6
REMARK    4  A    between atoms: C_9  and  C_10
REMARK    5  A    between atoms: C_13  and  N_14
REMARK    6  A    between atoms: C_15  and  C_17
REMARK                            x       y       z     vdW  Elec       q    Type
REMARK                         _______ _______ _______ _____ _____    ______ ____
ROOT
ATOM      1  C   UNL     1       0.453   9.963  20.040  0.00  0.00    +0.000 A 
ATOM      2  C   UNL     1       1.065   8.864  20.653  0.00  0.00    +0.000 A 
ATOM      3  C   UNL     1       1.947   8.028  19.959  0.00  0.00    +0.000 A 
ATOM      4  C   UNL     1       2.236   8.249  18.616  0.00  0.00    +0.000 A 
ATOM      5  C   UNL     1       1.622   9.329  17.976  0.00  0.00    +0.000 A 
ATOM      6  C   UNL     1       0.749  10.175  18.682  0.00  0.00    +0.000 A 
ENDROOT
BRANCH   1  10
ATOM      7  C   UNL     1      -2.232  12.517  22.248  0.00  0.00    +0.000 A 
ATOM      8  C   UNL     1      -1.471  11.567  22.920  0.00  0.00    +0.000 A 
ATOM      9  C   UNL     1      -0.595  10.747  22.199  0.00  0.00    +0.000 A 
ATOM     10  C   UNL     1      -0.462  10.851  20.799  0.00  0.00    +0.000 A 
ATOM     11  C   UNL     1      -1.241  11.829  20.154  0.00  0.00    +0.000 A 
ATOM     12  C   UNL     1      -2.105  12.664  20.872  0.00  0.00    +0.000 A 
BRANCH   7  13
ATOM     13  N   UNL     1      -3.096  13.393  22.963  0.00  0.00    +0.000 N 
ATOM     14  H   UNL     1      -3.188  14.333  22.574  0.00  0.00    +0.000 HD
BRANCH  13  16
ATOM     15  C   UNL     1      -5.495  14.311  23.718  0.00  0.00    +0.000 C 
ATOM     16  S   UNL     1      -4.628  12.798  23.369  0.00  0.00    +0.000 S 
ATOM     17  O   UNL     1      -4.559  12.002  24.574  0.00  0.00    +0.000 OA
ATOM     18  O   UNL     1      -5.168  12.258  22.141  0.00  0.00    +0.000 OA
ENDBRANCH  13  16
ENDBRANCH   7  13
ENDBRANCH   1  10
BRANCH   4  19
ATOM     19  N   UNL     1       3.116   7.438  17.863  0.00  0.00    +0.000 N 
ATOM     20  C   UNL     1       3.240   6.057  17.952  0.00  0.00    +0.000 C 
ATOM     21  O   UNL     1       2.592   5.328  18.694  0.00  0.00    +0.000 OA
ATOM     22  H   UNL     1       3.697   7.920  17.190  0.00  0.00    +0.000 HD
BRANCH  20  23
ATOM     23  C   UNL     1       4.256   5.476  16.972  0.00  0.00    +0.000 C 
ATOM     24  C   UNL     1       5.052   6.566  16.230  0.00  0.00    +0.000 C 
ATOM     25  N   UNL     1       6.514   6.338  16.309  0.00  0.00    +0.000 NA
ATOM     26  C   UNL     1       6.898   6.397  17.738  0.00  0.00    +0.000 C 
ATOM     27  C   UNL     1       6.257   5.258  18.538  0.00  0.00    +0.000 C 
ATOM     28  C   UNL     1       5.252   4.500  17.648  0.00  0.00    +0.000 C 
ATOM     29  C   UNL     1       6.078   3.876  16.511  0.00  0.00    +0.000 C 
ATOM     30  C   UNL     1       6.839   4.994  15.778  0.00  0.00    +0.000 C 
ENDBRANCH  20  23
ENDBRANCH   4  19
TORSDOF 5
ENDMDL
MODEL 2
REMARK VINA RESULT:      -8.2      1.415      1.774
REMARK  Name = 
REMARK  6 active torsions:
REMARK  status: ('A' for Active; 'I' for Inactive)
REMARK    1  A    between atoms: C_1  and  S_2
REMARK    2  A    between atoms: S_2  and  N_5
REMARK    3  A    between atoms: N_5  and  C_6
REMARK    4  A    between atoms: C_9  and  C_10
REMARK    5  A    between atoms: C_13  and  N_14
REMARK    6  A    between atoms: C_15  and  C_17
REMARK                            x       y       z     vdW  Elec       q    Type
REMARK                         _______ _______ _______ _____ _____    ______ ____
ROOT
ATOM      1  C   UNL     1       0.662   9.545  20.138  0.00  0.00    +0.000 A 
ATOM      2  C   UNL     1       1.281   8.396  20.645  0.00  0.00    +0.000 A 
ATOM      3  C   UNL     1       2.139   7.615  19.864  0.00  0.00    +0.000 A 
ATOM      4  C   UNL     1       2.397   7.942  18.536  0.00  0.00    +0.000 A 
ATOM      5  C   UNL     1       1.775   9.073  18.001  0.00  0.00    +0.000 A 
ATOM      6  C   UNL     1       0.926   9.864  18.795  0.00  0.00    +0.000 A 
ENDROOT
BRANCH   1  10
ATOM      7  C   UNL     1      -1.897  11.978  22.614  0.00  0.00    +0.000 A 
ATOM      8  C   UNL     1      -1.791  12.247  21.255  0.00  0.00    +0.000 A 
ATOM      9  C   UNL     1      -0.966  11.449  20.454  0.00  0.00    +0.000 A 
ATOM     10  C   UNL     1      -0.227  10.373  20.989  0.00  0.00    +0.000 A 
ATOM     11  C   UNL     1      -0.366  10.126  22.367  0.00  0.00    +0.000 A 
ATOM     12  C   UNL     1      -1.204  10.909  23.169  0.00  0.00    +0.000 A 
BRANCH   7  13
ATOM     13  N   UNL     1      -2.765  12.747  23.440  0.00  0.00    +0.000 N 
ATOM     14  H   UNL     1      -3.037  12.307  24.322  0.00  0.00    +0.000 HD
BRANCH  13  16
ATOM     15  C   UNL     1      -3.123  14.651  25.289  0.00  0.00    +0.000 C 
ATOM     16  S   UNL     1      -2.326  14.357  23.727  0.00  0.00    +0.000 S 
ATOM     17  O   UNL     1      -2.905  15.226  22.727  0.00  0.00    +0.000 OA
ATOM     18  O   UNL     1      -0.898  14.330  23.963  0.00  0.00    +0.000 OA
ENDBRANCH  13  16
ENDBRANCH   7  13
ENDBRANCH   1  10
BRANCH   4  19
ATOM     19  N   UNL     1       3.252   7.190  17.699  0.00  0.00    +0.000 N 
ATOM     20  C   UNL     1       3.418   5.811  17.718  0.00  0.00    +0.000 C 
ATOM     21  O   UNL     1       2.835   5.032  18.464  0.00  0.00    +0.000 OA
ATOM     22  H   UNL     1       3.779   7.717  17.014  0.00  0.00    +0.000 HD
BRANCH  20  23
ATOM     23  C   UNL     1       4.389   5.302  16.657  0.00  0.00    +0.000 C 
ATOM     24  C   UNL     1       5.202   6.437  16.007  0.00  0.00    +0.000 C 
ATOM     25  N   UNL     1       6.658   6.158  16.020  0.00  0.00    +0.000 NA
ATOM     26  C   UNL     1       7.080   6.059  17.436  0.00  0.00    +0.000 C 
ATOM     27  C   UNL     1       6.421   4.864  18.136  0.00  0.00    +0.000 C 
ATOM     28  C   UNL     1       5.369   4.233  17.202  0.00  0.00    +0.000 C 
ATOM     29  C   UNL     1       6.146   3.703  15.984  0.00  0.00    +0.000 C 
ATOM     30  C   UNL     1       6.924   4.866  15.347  0.00  0.00    +0.000 C 
ENDBRANCH  20  23
ENDBRANCH   4  19
TORSDOF 5
ENDMDL
MODEL 3
REMARK VINA RESULT:      -8.2      1.336      1.461
REMARK  Name = 
REMARK  6 active torsions:
REMARK  status: ('A' for Active; 'I' for Inactive)
REMARK    1  A    between atoms: C_1  and  S_2
REMARK    2  A    between atoms: S_2  and  N_5
REMARK    3  A    between atoms: N_5  and  C_6
REMARK    4  A    between atoms: C_9  and  C_10
REMARK    5  A    between atoms: C_13  and  N_14
REMARK    6  A    between atoms: C_15  and  C_17
REMARK                            x       y       z     vdW  Elec       q    Type
REMARK                         _______ _______ _______ _____ _____    ______ ____
ROOT
ATOM      1  C   UNL     1       0.611   9.598  20.202  0.00  0.00    +0.000 A 
ATOM      2  C   UNL     1       1.206   8.443  20.725  0.00  0.00    +0.000 A 
ATOM      3  C   UNL     1       2.084   7.659  19.970  0.00  0.00    +0.000 A 
ATOM      4  C   UNL     1       2.388   7.990  18.653  0.00  0.00    +0.000 A 
ATOM      5  C   UNL     1       1.791   9.127  18.102  0.00  0.00    +0.000 A 
ATOM      6  C   UNL     1       0.922   9.920  18.870  0.00  0.00    +0.000 A 
ENDROOT
BRANCH   1  10
ATOM      7  C   UNL     1      -2.065  11.987  22.597  0.00  0.00    +0.000 A 
ATOM      8  C   UNL     1      -1.322  10.974  23.192  0.00  0.00    +0.000 A 
ATOM      9  C   UNL     1      -0.448  10.207  22.412  0.00  0.00    +0.000 A 
ATOM     10  C   UNL     1      -0.301  10.429  21.027  0.00  0.00    +0.000 A 
ATOM     11  C   UNL     1      -1.062  11.468  20.462  0.00  0.00    +0.000 A 
ATOM     12  C   UNL     1      -1.923  12.250  21.240  0.00  0.00    +0.000 A 
BRANCH   7  13
ATOM     13  N   UNL     1      -2.925  12.809  23.378  0.00  0.00    +0.000 N 
ATOM     14  H   UNL     1      -3.402  12.338  24.149  0.00  0.00    +0.000 HD
BRANCH  13  16
ATOM     15  C   UNL     1      -2.934  15.398  22.694  0.00  0.00    +0.000 C 
ATOM     16  S   UNL     1      -2.295  14.283  23.922  0.00  0.00    +0.000 S 
ATOM     17  O   UNL     1      -0.851  14.274  23.848  0.00  0.00    +0.000 OA
ATOM     18  O   UNL     1      -2.982  14.560  25.165  0.00  0.00    +0.000 OA
ENDBRANCH  13  16
ENDBRANCH   7  13
ENDBRANCH   1  10
BRANCH   4  19
ATOM     19  N   UNL     1       3.266   7.235  17.842  0.00  0.00    +0.000 N 
ATOM     20  C   UNL     1       3.302   5.851  17.735  0.00  0.00    +0.000 C 
ATOM     21  O   UNL     1       2.564   5.069  18.326  0.00  0.00    +0.000 OA
ATOM     22  H   UNL     1       3.917   7.766  17.279  0.00  0.00    +0.000 HD
BRANCH  20  23
ATOM     23  C   UNL     1       4.343   5.346  16.740  0.00  0.00    +0.000 C 
ATOM     24  C   UNL     1       5.135   6.490  16.082  0.00  0.00    +0.000 C 
ATOM     25  N   UNL     1       6.599   6.279  16.172  0.00  0.00    +0.000 NA
ATOM     26  C   UNL     1       6.957   6.256  17.609  0.00  0.00    +0.000 C 
ATOM     27  C   UNL     1       6.320   5.060  18.326  0.00  0.00    +0.000 C 
ATOM     28  C   UNL     1       5.343   4.344  17.373  0.00  0.00    +0.000 C 
ATOM     29  C   UNL     1       6.198   3.803  16.215  0.00  0.00    +0.000 C 
ATOM     30  C   UNL     1       6.954   4.975  15.566  0.00  0.00    +0.000 C 
ENDBRANCH  20  23
ENDBRANCH   4  19
TORSDOF 5
ENDMDL
MODEL 4
REMARK VINA RESULT:      -8.1      0.506      1.352
REMARK  Name = 
REMARK  6 active torsions:
REMARK  status: ('A' for Active; 'I' for Inactive)
REMARK    1  A    between atoms: C_1  and  S_2
REMARK    2  A    between atoms: S_2  and  N_5
REMARK    3  A    between atoms: N_5  and  C_6
REMARK    4  A    between atoms: C_9  and  C_10
REMARK    5  A    between atoms: C_13  and  N_14
REMARK    6  A    between atoms: C_15  and  C_17
REMARK                            x       y       z     vdW  Elec       q    Type
REMARK                         _______ _______ _______ _____ _____    ______ ____
ROOT
ATOM      1  C   UNL     1       0.723   9.796  20.200  0.00  0.00    +0.000 A 
ATOM      2  C   UNL     1       1.021  10.190  18.890  0.00  0.00    +0.000 A 
ATOM      3  C   UNL     1       1.810   9.403  18.044  0.00  0.00    +0.000 A 
ATOM      4  C   UNL     1       2.349   8.198  18.483  0.00  0.00    +0.000 A 
ATOM      5  C   UNL     1       2.082   7.792  19.793  0.00  0.00    +0.000 A 
ATOM      6  C   UNL     1       1.276   8.578  20.634  0.00  0.00    +0.000 A 
ENDROOT
BRANCH   1  10
ATOM      7  C   UNL     1      -1.740  12.250  22.752  0.00  0.00    +0.000 A 
ATOM      8  C   UNL     1      -1.382  12.707  21.489  0.00  0.00    +0.000 A 
ATOM      9  C   UNL     1      -0.591  11.902  20.661  0.00  0.00    +0.000 A 
ATOM     10  C   UNL     1      -0.134  10.633  21.074  0.00  0.00    +0.000 A 
ATOM     11  C   UNL     1      -0.523  10.201  22.355  0.00  0.00    +0.000 A 
ATOM     12  C   UNL     1      -1.330  10.993  23.180  0.00  0.00    +0.000 A 
BRANCH   7  13
ATOM     13  N   UNL     1      -2.582  13.030  23.593  0.00  0.00    +0.000 N 
ATOM     14  H   UNL     1      -2.429  14.040  23.554  0.00  0.00    +0.000 HD
BRANCH  13  16
ATOM     15  C   UNL     1      -4.911  14.345  23.735  0.00  0.00    +0.000 C 
ATOM     16  S   UNL     1      -4.243  12.710  23.527  0.00  0.00    +0.000 S 
ATOM     17  O   UNL     1      -4.646  11.888  24.646  0.00  0.00    +0.000 OA
ATOM     18  O   UNL     1      -4.502  12.302  22.163  0.00  0.00    +0.000 OA
ENDBRANCH  13  16
ENDBRANCH   7  13
ENDBRANCH   1  10
BRANCH   4  19
ATOM     19  N   UNL     1       3.154   7.363  17.675  0.00  0.00    +0.000 N 
ATOM     20  C   UNL     1       3.430   6.020  17.899  0.00  0.00    +0.000 C 
ATOM     21  O   UNL     1       3.006   5.350  18.834  0.00  0.00    +0.000 OA
ATOM     22  H   UNL     1       3.550   7.792  16.849  0.00  0.00    +0.000 HD
BRANCH  20  23
ATOM     23  C   UNL     1       4.303   5.391  16.817  0.00  0.00    +0.000 C 
ATOM     24  C   UNL     1       5.154   6.432  16.065  0.00  0.00    +0.000 C 
ATOM     25  N   UNL     1       6.585   6.051  16.016  0.00  0.00    +0.000 NA
ATOM     26  C   UNL     1       7.078   5.993  17.411  0.00  0.00    +0.000 C 
ATOM     27  C   UNL     1       6.380   4.883  18.207  0.00  0.00    +0.000 C 
ATOM     28  C   UNL     1       5.237   4.283  17.365  0.00  0.00    +0.000 C 
ATOM     29  C   UNL     1       5.905   3.639  16.138  0.00  0.00    +0.000 C 
ATOM     30  C   UNL     1       6.724   4.711  15.399  0.00  0.00    +0.000 C 
ENDBRANCH  20  23
ENDBRANCH   4  19
TORSDOF 5
ENDMDL
MODEL 5
REMARK VINA RESULT:      -8.1      1.316      1.929
REMARK  Name = 
REMARK  6 active torsions:
REMARK  status: ('A' for Active; 'I' for Inactive)
REMARK    1  A    between atoms: C_1  and  S_2
REMARK    2  A    between atoms: S_2  and  N_5
REMARK    3  A    between atoms: N_5  and  C_6
REMARK    4  A    between atoms: C_9  and  C_10
REMARK    5  A    between atoms: C_13  and  N_14
REMARK    6  A    between atoms: C_15  and  C_17
REMARK                            x       y       z     vdW  Elec       q    Type
REMARK                         _______ _______ _______ _____ _____    ______ ____
ROOT
ATOM      1  C   UNL     1       0.693   9.528  20.166  0.00  0.00    +0.000 A 
ATOM      2  C   UNL     1       0.959   9.902  18.843  0.00  0.00    +0.000 A 
ATOM      3  C   UNL     1       1.809   9.153  18.022  0.00  0.00    +0.000 A 
ATOM      4  C   UNL     1       2.442   8.010  18.499  0.00  0.00    +0.000 A 
ATOM      5  C   UNL     1       2.207   7.627  19.822  0.00  0.00    +0.000 A 
ATOM      6  C   UNL     1       1.341   8.374  20.639  0.00  0.00    +0.000 A 
ENDROOT
BRANCH   1  10
ATOM      7  C   UNL     1      -1.962  11.866  22.634  0.00  0.00    +0.000 A 
ATOM      8  C   UNL     1      -1.842  12.155  21.280  0.00  0.00    +0.000 A 
ATOM      9  C   UNL     1      -0.986  11.388  20.481  0.00  0.00    +0.000 A 
ATOM     10  C   UNL     1      -0.229  10.323  21.014  0.00  0.00    +0.000 A 
ATOM     11  C   UNL     1      -0.382  10.055  22.386  0.00  0.00    +0.000 A 
ATOM     12  C   UNL     1      -1.251  10.807  23.186  0.00  0.00    +0.000 A 
BRANCH   7  13
ATOM     13  N   UNL     1      -2.860  12.602  23.456  0.00  0.00    +0.000 N 
ATOM     14  H   UNL     1      -3.241  12.093  24.257  0.00  0.00    +0.000 HD
BRANCH  13  16
ATOM     15  C   UNL     1      -3.059  15.156  22.673  0.00  0.00    +0.000 C 
ATOM     16  S   UNL     1      -2.360  14.141  23.955  0.00  0.00    +0.000 S 
ATOM     17  O   UNL     1      -0.918  14.244  23.909  0.00  0.00    +0.000 OA
ATOM     18  O   UNL     1      -3.093  14.408  25.173  0.00  0.00    +0.000 OA
ENDBRANCH  13  16
ENDBRANCH   7  13
ENDBRANCH   1  10
BRANCH   4  19
ATOM     19  N   UNL     1       3.311   7.215  17.717  0.00  0.00    +0.000 N 
ATOM     20  C   UNL     1       3.328   5.827  17.660  0.00  0.00    +0.000 C 
ATOM     21  O   UNL     1       2.578   5.077  18.276  0.00  0.00    +0.000 OA
ATOM     22  H   UNL     1       3.971   7.717  17.138  0.00  0.00    +0.000 HD
BRANCH  20  23
ATOM     23  C   UNL     1       4.364   5.273  16.686  0.00  0.00    +0.000 C 
ATOM     24  C   UNL     1       5.185   6.382  16.002  0.00  0.00    +0.000 C 
ATOM     25  N   UNL     1       6.643   6.142  16.108  0.00  0.00    +0.000 NA
ATOM     26  C   UNL     1       6.993   6.150  17.547  0.00  0.00    +0.000 C 
ATOM     27  C   UNL     1       6.325   4.988  18.292  0.00  0.00    +0.000 C 
ATOM     28  C   UNL     1       5.338   4.268  17.352  0.00  0.00    +0.000 C 
ATOM     29  C   UNL     1       6.189   3.677  16.215  0.00  0.00    +0.000 C 
ATOM     30  C   UNL     1       6.974   4.815  15.539  0.00  0.00    +0.000 C 
ENDBRANCH  20  23
ENDBRANCH   4  19
TORSDOF 5
ENDMDL
MODEL 6
REMARK VINA RESULT:      -8.0      0.611      1.125
REMARK  Name = 
REMARK  6 active torsions:
REMARK  status: ('A' for Active; 'I' for Inactive)
REMARK    1  A    between atoms: C_1  and  S_2
REMARK    2  A    between atoms: S_2  and  N_5
REMARK    3  A    between atoms: N_5  and  C_6
REMARK    4  A    between atoms: C_9  and  C_10
REMARK    5  A    between atoms: C_13  and  N_14
REMARK    6  A    between atoms: C_15  and  C_17
REMARK                            x       y       z     vdW  Elec       q    Type
REMARK                         _______ _______ _______ _____ _____    ______ ____
ROOT
ATOM      1  C   UNL     1       0.220  10.157  20.134  0.00  0.00    +0.000 A 
ATOM      2  C   UNL     1       0.493  10.362  18.776  0.00  0.00    +0.000 A 
ATOM      3  C   UNL     1       1.380   9.541  18.070  0.00  0.00    +0.000 A 
ATOM      4  C   UNL     1       2.043   8.493  18.701  0.00  0.00    +0.000 A 
ATOM      5  C   UNL     1       1.801   8.280  20.060  0.00  0.00    +0.000 A 
ATOM      6  C   UNL     1       0.899   9.098  20.762  0.00  0.00    +0.000 A 
ENDROOT
BRANCH   1  10
ATOM      7  C   UNL     1      -2.593  12.650  22.248  0.00  0.00    +0.000 A 
ATOM      8  C   UNL     1      -1.776  11.776  22.955  0.00  0.00    +0.000 A 
ATOM      9  C   UNL     1      -0.858  10.976  22.265  0.00  0.00    +0.000 A 
ATOM     10  C   UNL     1      -0.739  11.024  20.860  0.00  0.00    +0.000 A 
ATOM     11  C   UNL     1      -1.577  11.926  20.180  0.00  0.00    +0.000 A 
ATOM     12  C   UNL     1      -2.483  12.742  20.866  0.00  0.00    +0.000 A 
BRANCH   7  13
ATOM     13  N   UNL     1      -3.502  13.507  22.931  0.00  0.00    +0.000 N 
ATOM     14  H   UNL     1      -3.655  14.419  22.497  0.00  0.00    +0.000 HD
BRANCH  13  16
ATOM     15  C   UNL     1      -5.939  14.315  23.691  0.00  0.00    +0.000 C 
ATOM     16  S   UNL     1      -4.991  12.842  23.386  0.00  0.00    +0.000 S 
ATOM     17  O   UNL     1      -4.858  12.100  24.620  0.00  0.00    +0.000 OA
ATOM     18  O   UNL     1      -5.517  12.222  22.189  0.00  0.00    +0.000 OA
ENDBRANCH  13  16
ENDBRANCH   7  13
ENDBRANCH   1  10
BRANCH   4  19
ATOM     19  N   UNL     1       2.949   7.633  18.039  0.00  0.00    +0.000 N 
ATOM     20  C   UNL     1       2.898   6.245  18.017  0.00  0.00    +0.000 C 
ATOM     21  O   UNL     1       2.046   5.552  18.564  0.00  0.00    +0.000 OA
ATOM     22  H   UNL     1       3.694   8.083  17.525  0.00  0.00    +0.000 HD
BRANCH  20  23
ATOM     23  C   UNL     1       4.004   5.610  17.178  0.00  0.00    +0.000 C 
ATOM     24  C   UNL     1       5.264   6.492  17.098  0.00  0.00    +0.000 C 
ATOM     25  N   UNL     1       6.492   5.741  17.448  0.00  0.00    +0.000 NA
ATOM     26  C   UNL     1       6.352   5.287  18.851  0.00  0.00    +0.000 C 
ATOM     27  C   UNL     1       5.197   4.290  19.005  0.00  0.00    +0.000 C 
ATOM     28  C   UNL     1       4.409   4.202  17.683  0.00  0.00    +0.000 C 
ATOM     29  C   UNL     1       5.388   3.639  16.640  0.00  0.00    +0.000 C 
ATOM     30  C   UNL     1       6.621   4.556  16.569  0.00  0.00    +0.000 C 
ENDBRANCH  20  23
ENDBRANCH   4  19
TORSDOF 5
ENDMDL
MODEL 7
REMARK VINA RESULT:      -8.0      3.668     10.925
REMARK  Name = 
REMARK  6 active torsions:
REMARK  status: ('A' for Active; 'I' for Inactive)
REMARK    1  A    between atoms: C_1  and  S_2
REMARK    2  A    between atoms: S_2  and  N_5
REMARK    3  A    between atoms: N_5  and  C_6
REMARK    4  A    between atoms: C_9  and  C_10
REMARK    5  A    between atoms: C_13  and  N_14
REMARK    6  A    between atoms: C_15  and  C_17
REMARK                            x       y       z     vdW  Elec       q    Type
REMARK                         _______ _______ _______ _____ _____    ______ ____
ROOT
ATOM      1  C   UNL     1       1.678   8.322  19.801  0.00  0.00    +0.000 A 
ATOM      2  C   UNL     1       0.982   9.398  19.237  0.00  0.00    +0.000 A 
ATOM      3  C   UNL     1       0.139  10.213  20.001  0.00  0.00    +0.000 A 
ATOM      4  C   UNL     1      -0.055   9.970  21.357  0.00  0.00    +0.000 A 
ATOM      5  C   UNL     1       0.614   8.891  21.939  0.00  0.00    +0.000 A 
ATOM      6  C   UNL     1       1.472   8.084  21.171  0.00  0.00    +0.000 A 
ENDROOT
BRANCH   1  10
ATOM      7  C   UNL     1       4.342   5.893  17.433  0.00  0.00    +0.000 A 
ATOM      8  C   UNL     1       3.892   5.428  18.663  0.00  0.00    +0.000 A 
ATOM      9  C   UNL     1       3.021   6.216  19.424  0.00  0.00    +0.000 A 
ATOM     10  C   UNL     1       2.585   7.483  18.980  0.00  0.00    +0.000 A 
ATOM     11  C   UNL     1       3.055   7.916  17.727  0.00  0.00    +0.000 A 
ATOM     12  C   UNL     1       3.912   7.124  16.953  0.00  0.00    +0.000 A 
BRANCH   7  13
ATOM     13  N   UNL     1       5.193   5.090  16.622  0.00  0.00    +0.000 N 
ATOM     14  H   UNL     1       4.850   4.904  15.677  0.00  0.00    +0.000 HD
BRANCH  13  16
ATOM     15  C   UNL     1       7.450   4.738  18.018  0.00  0.00    +0.000 C 
ATOM     16  S   UNL     1       6.827   5.528  16.552  0.00  0.00    +0.000 S 
ATOM     17  O   UNL     1       6.973   6.960  16.686  0.00  0.00    +0.000 OA
ATOM     18  O   UNL     1       7.366   4.821  15.411  0.00  0.00    +0.000 OA
ENDBRANCH  13  16
ENDBRANCH   7  13
ENDBRANCH   1  10
BRANCH   4  19
ATOM     19  N   UNL     1      -0.895  10.758  22.178  0.00  0.00    +0.000 N 
ATOM     20  C   UNL     1      -0.712  12.099  22.494  0.00  0.00    +0.000 C 
ATOM     21  O   UNL     1       0.206  12.808  22.097  0.00  0.00    +0.000 OA
ATOM     22  H   UNL     1      -1.710  10.294  22.553  0.00  0.00    +0.000 HD
BRANCH  20  23
ATOM     23  C   UNL     1      -1.821  12.670  23.373  0.00  0.00    +0.000 C 
ATOM     24  C   UNL     1      -1.715  14.198  23.539  0.00  0.00    +0.000 C 
ATOM     25  N   UNL     1      -2.995  14.881  23.235  0.00  0.00    +0.000 NA
ATOM     26  C   UNL     1      -3.321  14.605  21.817  0.00  0.00    +0.000 C 
ATOM     27  C   UNL     1      -3.580  13.112  21.581  0.00  0.00    +0.000 C 
ATOM     28  C   UNL     1      -3.239  12.319  22.858  0.00  0.00    +0.000 C 
ATOM     29  C   UNL     1      -4.221  12.807  23.936  0.00  0.00    +0.000 C 
ATOM     30  C   UNL     1      -4.070  14.330  24.092  0.00  0.00    +0.000 C 
ENDBRANCH  20  23
ENDBRANCH   4  19
TORSDOF 5
ENDMDL
MODEL 8
REMARK VINA RESULT:      -7.8      3.512     10.911
REMARK  Name = 
REMARK  6 active torsions:
REMARK  status: ('A' for Active; 'I' for Inactive)
REMARK    1  A    between atoms: C_1  and  S_2
REMARK    2  A    between atoms: S_2  and  N_5
REMARK    3  A    between atoms: N_5  and  C_6
REMARK    4  A    between atoms: C_9  and  C_10
REMARK    5  A    between atoms: C_13  and  N_14
REMARK    6  A    between atoms: C_15  and  C_17
REMARK                            x       y       z     vdW  Elec       q    Type
REMARK                         _______ _______ _______ _____ _____    ______ ____
ROOT
ATOM      1  C   UNL     1       1.319   8.641  20.145  0.00  0.00    +0.000 A 
ATOM      2  C   UNL     1       1.213   8.481  21.532  0.00  0.00    +0.000 A 
ATOM      3  C   UNL     1       0.382   9.296  22.308  0.00  0.00    +0.000 A 
ATOM      4  C   UNL     1      -0.364  10.317  21.727  0.00  0.00    +0.000 A 
ATOM      5  C   UNL     1      -0.260  10.509  20.347  0.00  0.00    +0.000 A 
ATOM      6  C   UNL     1       0.564   9.678  19.570  0.00  0.00    +0.000 A 
ENDROOT
BRANCH   1  10
ATOM      7  C   UNL     1       3.878   6.067  17.816  0.00  0.00    +0.000 A 
ATOM      8  C   UNL     1       3.406   5.638  19.051  0.00  0.00    +0.000 A 
ATOM      9  C   UNL     1       2.568   6.474  19.798  0.00  0.00    +0.000 A 
ATOM     10  C   UNL     1       2.189   7.752  19.337  0.00  0.00    +0.000 A 
ATOM     11  C   UNL     1       2.681   8.148  18.080  0.00  0.00    +0.000 A 
ATOM     12  C   UNL     1       3.503   7.309  17.319  0.00  0.00    +0.000 A 
BRANCH   7  13
ATOM     13  N   UNL     1       4.694   5.217  17.017  0.00  0.00    +0.000 N 
ATOM     14  H   UNL     1       4.562   5.304  16.007  0.00  0.00    +0.000 HD
BRANCH  13  16
ATOM     15  C   UNL     1       6.995   4.430  15.895  0.00  0.00    +0.000 C 
ATOM     16  S   UNL     1       6.350   5.190  17.367  0.00  0.00    +0.000 S 
ATOM     17  O   UNL     1       6.614   4.331  18.499  0.00  0.00    +0.000 OA
ATOM     18  O   UNL     1       6.767   6.576  17.362  0.00  0.00    +0.000 OA
ENDBRANCH  13  16
ENDBRANCH   7  13
ENDBRANCH   1  10
BRANCH   4  19
ATOM     19  N   UNL     1      -1.219  11.172  22.460  0.00  0.00    +0.000 N 
ATOM     20  C   UNL     1      -1.012  12.523  22.711  0.00  0.00    +0.000 C 
ATOM     21  O   UNL     1      -0.054  13.183  22.324  0.00  0.00    +0.000 OA
ATOM     22  H   UNL     1      -2.066  10.752  22.817  0.00  0.00    +0.000 HD
BRANCH  20  23
ATOM     23  C   UNL     1      -2.146  13.172  23.501  0.00  0.00    +0.000 C 
ATOM     24  C   UNL     1      -2.233  14.692  23.267  0.00  0.00    +0.000 C 
ATOM     25  N   UNL     1      -3.603  15.121  22.900  0.00  0.00    +0.000 NA
ATOM     26  C   UNL     1      -3.953  14.451  21.626  0.00  0.00    +0.000 C 
ATOM     27  C   UNL     1      -4.026  12.929  21.795  0.00  0.00    +0.000 C 
ATOM     28  C   UNL     1      -3.528  12.539  23.201  0.00  0.00    +0.000 C 
ATOM     29  C   UNL     1      -4.515  13.175  24.193  0.00  0.00    +0.000 C 
ATOM     30  C   UNL     1      -4.558  14.693  23.948  0.00  0.00    +0.000 C 
ENDBRANCH  20  23
ENDBRANCH   4  19
TORSDOF 5
ENDMDL
MODEL 9
REMARK VINA RESULT:      -7.8      3.648     10.855
REMARK  Name = 
REMARK  6 active torsions:
REMARK  status: ('A' for Active; 'I' for Inactive)
REMARK    1  A    between atoms: C_1  and  S_2
REMARK    2  A    between atoms: S_2  and  N_5
REMARK    3  A    between atoms: N_5  and  C_6
REMARK    4  A    between atoms: C_9  and  C_10
REMARK    5  A    between atoms: C_13  and  N_14
REMARK    6  A    between atoms: C_15  and  C_17
REMARK                            x       y       z     vdW  Elec       q    Type
REMARK                         _______ _______ _______ _____ _____    ______ ____
ROOT
ATOM      1  C   UNL     1       1.700   8.274  19.783  0.00  0.00    +0.000 A 
ATOM      2  C   UNL     1       1.454   8.036  21.141  0.00  0.00    +0.000 A 
ATOM      3  C   UNL     1       0.559   8.820  21.878  0.00  0.00    +0.000 A 
ATOM      4  C   UNL     1      -0.112   9.886  21.287  0.00  0.00    +0.000 A 
ATOM      5  C   UNL     1       0.130  10.155  19.938  0.00  0.00    +0.000 A 
ATOM      6  C   UNL     1       1.019   9.356  19.198  0.00  0.00    +0.000 A 
ENDROOT
BRANCH   1  10
ATOM      7  C   UNL     1       4.449   5.796  17.569  0.00  0.00    +0.000 A 
ATOM      8  C   UNL     1       3.941   5.351  18.784  0.00  0.00    +0.000 A 
ATOM      9  C   UNL     1       3.042   6.155  19.494  0.00  0.00    +0.000 A 
ATOM     10  C   UNL     1       2.636   7.418  19.014  0.00  0.00    +0.000 A 
ATOM     11  C   UNL     1       3.164   7.831  17.778  0.00  0.00    +0.000 A 
ATOM     12  C   UNL     1       4.049   7.023  17.054  0.00  0.00    +0.000 A 
BRANCH   7  13
ATOM     13  N   UNL     1       5.328   4.977  16.806  0.00  0.00    +0.000 N 
ATOM     14  H   UNL     1       5.262   5.086  15.792  0.00  0.00    +0.000 HD
BRANCH  13  16
ATOM     15  C   UNL     1       7.262   6.703  17.479  0.00  0.00    +0.000 C 
ATOM     16  S   UNL     1       6.958   4.964  17.265  0.00  0.00    +0.000 S 
ATOM     17  O   UNL     1       7.784   4.466  16.188  0.00  0.00    +0.000 OA
ATOM     18  O   UNL     1       6.983   4.351  18.576  0.00  0.00    +0.000 OA
ENDBRANCH  13  16
ENDBRANCH   7  13
ENDBRANCH   1  10
BRANCH   4  19
ATOM     19  N   UNL     1      -1.026  10.712  21.981  0.00  0.00    +0.000 N 
ATOM     20  C   UNL     1      -0.815  12.030  22.365  0.00  0.00    +0.000 C 
ATOM     21  O   UNL     1       0.201  12.684  22.149  0.00  0.00    +0.000 OA
ATOM     22  H   UNL     1      -1.922  10.297  22.200  0.00  0.00    +0.000 HD
BRANCH  20  23
ATOM     23  C   UNL     1      -2.017  12.658  23.065  0.00  0.00    +0.000 C 
ATOM     24  C   UNL     1      -1.752  14.111  23.504  0.00  0.00    +0.000 C 
ATOM     25  N   UNL     1      -2.818  15.033  23.048  0.00  0.00    +0.000 NA
ATOM     26  C   UNL     1      -2.826  15.008  21.567  0.00  0.00    +0.000 C 
ATOM     27  C   UNL     1      -3.216  13.624  21.032  0.00  0.00    +0.000 C 
ATOM     28  C   UNL     1      -3.302  12.623  22.201  0.00  0.00    +0.000 C 
ATOM     29  C   UNL     1      -4.441  13.121  23.106  0.00  0.00    +0.000 C 
ATOM     30  C   UNL     1      -4.132  14.563  23.544  0.00  0.00    +0.000 C 
ENDBRANCH  20  23
ENDBRANCH   4  19
TORSDOF 5
ENDMDL
