MODEL 1
REMARK VINA RESULT:      -5.4      0.000      0.000
REMARK  Name = 
REMARK  5 active torsions:
REMARK  status: ('A' for Active; 'I' for Inactive)
REMARK    1  A    between atoms: C_1  and  O_2
REMARK    2  A    between atoms: O_2  and  C_3
REMARK    3  A    between atoms: C_3  and  C_5
REMARK    4  A    between atoms: C_5  and  C_6
REMARK    5  A    between atoms: C_11  and  O_12
REMARK                            x       y       z     vdW  Elec       q    Type
REMARK                         _______ _______ _______ _____ _____    ______ ____
ROOT
ATOM      1  C   UNL     1       3.492   3.469  18.177  0.00  0.00    +0.000 A 
ATOM      2  C   UNL     1       3.150   4.615  17.446  0.00  0.00    +0.000 A 
ATOM      3  C   UNL     1       3.939   5.764  17.522  0.00  0.00    +0.000 A 
ATOM      4  C   UNL     1       5.075   5.780  18.329  0.00  0.00    +0.000 A 
ATOM      5  C   UNL     1       5.424   4.648  19.066  0.00  0.00    +0.000 A 
ATOM      6  C   UNL     1       4.636   3.502  18.981  0.00  0.00    +0.000 A 
ENDROOT
BRANCH   6   7
ATOM      7  O   UNL     1       4.980   2.376  19.676  0.00  0.00    +0.000 OA
ATOM      8  H   UNL     1       4.786   1.601  19.122  0.00  0.00    +0.000 HD
ENDBRANCH   6   7
BRANCH   1   9
ATOM      9  C   UNL     1       2.697   2.196  18.008  0.00  0.00    +0.000 C 
BRANCH   9  10
ATOM     10  C   UNL     1       1.472   2.170  18.896  0.00  0.00    +0.000 C 
ATOM     11  O   UNL     1       0.313   2.275  18.511  0.00  0.00    +0.000 OA
BRANCH  10  13
ATOM     12  C   UNL     1       1.250   3.097  21.027  0.00  0.00    +0.000 C 
ATOM     13  O   UNL     1       1.841   2.087  20.208  0.00  0.00    +0.000 OA
ENDBRANCH  10  13
ENDBRANCH   9  10
ENDBRANCH   1   9
TORSDOF 4
ENDMDL
MODEL 2
REMARK VINA RESULT:      -5.4      2.901      5.166
REMARK  Name = 
REMARK  5 active torsions:
REMARK  status: ('A' for Active; 'I' for Inactive)
REMARK    1  A    between atoms: C_1  and  O_2
REMARK    2  A    between atoms: O_2  and  C_3
REMARK    3  A    between atoms: C_3  and  C_5
REMARK    4  A    between atoms: C_5  and  C_6
REMARK    5  A    between atoms: C_11  and  O_12
REMARK                            x       y       z     vdW  Elec       q    Type
REMARK                         _______ _______ _______ _____ _____    ______ ____
ROOT
ATOM      1  C   UNL     1       5.084   4.434  17.582  0.00  0.00    +0.000 A 
ATOM      2  C   UNL     1       4.073   3.783  16.861  0.00  0.00    +0.000 A 
ATOM      3  C   UNL     1       3.206   2.896  17.502  0.00  0.00    +0.000 A 
ATOM      4  C   UNL     1       3.342   2.651  18.867  0.00  0.00    +0.000 A 
ATOM      5  C   UNL     1       4.347   3.287  19.595  0.00  0.00    +0.000 A 
ATOM      6  C   UNL     1       5.205   4.177  18.951  0.00  0.00    +0.000 A 
ENDROOT
BRANCH   6   7
ATOM      7  O   UNL     1       6.177   4.830  19.656  0.00  0.00    +0.000 OA
ATOM      8  H   UNL     1       6.329   5.696  19.242  0.00  0.00    +0.000 HD
ENDBRANCH   6   7
BRANCH   1   9
ATOM      9  C   UNL     1       5.948   5.473  16.907  0.00  0.00    +0.000 C 
BRANCH   9  10
ATOM     10  C   UNL     1       7.267   4.896  16.440  0.00  0.00    +0.000 C 
ATOM     11  O   UNL     1       8.042   4.242  17.128  0.00  0.00    +0.000 OA
BRANCH  10  13
ATOM     12  C   UNL     1       6.669   4.614  14.201  0.00  0.00    +0.000 C 
ATOM     13  O   UNL     1       7.513   5.267  15.149  0.00  0.00    +0.000 OA
ENDBRANCH  10  13
ENDBRANCH   9  10
ENDBRANCH   1   9
TORSDOF 4
ENDMDL
MODEL 3
REMARK VINA RESULT:      -5.3      2.014      4.052
REMARK  Name = 
REMARK  5 active torsions:
REMARK  status: ('A' for Active; 'I' for Inactive)
REMARK    1  A    between atoms: C_1  and  O_2
REMARK    2  A    between atoms: O_2  and  C_3
REMARK    3  A    between atoms: C_3  and  C_5
REMARK    4  A    between atoms: C_5  and  C_6
REMARK    5  A    between atoms: C_11  and  O_12
REMARK                            x       y       z     vdW  Elec       q    Type
REMARK                         _______ _______ _______ _____ _____    ______ ____
ROOT
ATOM      1  C   UNL     1       3.229   3.340  18.950  0.00  0.00    +0.000 A 
ATOM      2  C   UNL     1       1.952   3.918  18.921  0.00  0.00    +0.000 A 
ATOM      3  C   UNL     1       1.108   3.823  20.029  0.00  0.00    +0.000 A 
ATOM      4  C   UNL     1       1.529   3.148  21.173  0.00  0.00    +0.000 A 
ATOM      5  C   UNL     1       2.795   2.562  21.212  0.00  0.00    +0.000 A 
ATOM      6  C   UNL     1       3.636   2.667  20.106  0.00  0.00    +0.000 A 
ENDROOT
BRANCH   6   7
ATOM      7  O   UNL     1       4.890   2.124  20.140  0.00  0.00    +0.000 OA
ATOM      8  H   UNL     1       5.415   2.512  19.420  0.00  0.00    +0.000 HD
ENDBRANCH   6   7
BRANCH   1   9
ATOM      9  C   UNL     1       4.178   3.539  17.792  0.00  0.00    +0.000 C 
BRANCH   9  10
ATOM     10  C   UNL     1       5.065   4.749  17.988  0.00  0.00    +0.000 C 
ATOM     11  O   UNL     1       4.838   5.875  17.560  0.00  0.00    +0.000 OA
BRANCH  10  13
ATOM     12  C   UNL     1       6.947   5.516  19.137  0.00  0.00    +0.000 C 
ATOM     13  O   UNL     1       6.205   4.396  18.652  0.00  0.00    +0.000 OA
ENDBRANCH  10  13
ENDBRANCH   9  10
ENDBRANCH   1   9
TORSDOF 4
ENDMDL
MODEL 4
REMARK VINA RESULT:      -5.3      2.444      5.019
REMARK  Name = 
REMARK  5 active torsions:
REMARK  status: ('A' for Active; 'I' for Inactive)
REMARK    1  A    between atoms: C_1  and  O_2
REMARK    2  A    between atoms: O_2  and  C_3
REMARK    3  A    between atoms: C_3  and  C_5
REMARK    4  A    between atoms: C_5  and  C_6
REMARK    5  A    between atoms: C_11  and  O_12
REMARK                            x       y       z     vdW  Elec       q    Type
REMARK                         _______ _______ _______ _____ _____    ______ ____
ROOT
ATOM      1  C   UNL     1       5.081   5.026  18.790  0.00  0.00    +0.000 A 
ATOM      2  C   UNL     1       4.322   6.062  18.225  0.00  0.00    +0.000 A 
ATOM      3  C   UNL     1       3.017   5.826  17.790  0.00  0.00    +0.000 A 
ATOM      4  C   UNL     1       2.458   4.555  17.913  0.00  0.00    +0.000 A 
ATOM      5  C   UNL     1       3.203   3.515  18.468  0.00  0.00    +0.000 A 
ATOM      6  C   UNL     1       4.504   3.758  18.907  0.00  0.00    +0.000 A 
ENDROOT
BRANCH   6   7
ATOM      7  O   UNL     1       5.237   2.755  19.479  0.00  0.00    +0.000 OA
ATOM      8  H   UNL     1       4.978   2.678  20.412  0.00  0.00    +0.000 HD
ENDBRANCH   6   7
BRANCH   1   9
ATOM      9  C   UNL     1       6.451   5.312  19.357  0.00  0.00    +0.000 C 
BRANCH   9  10
ATOM     10  C   UNL     1       7.464   5.604  18.272  0.00  0.00    +0.000 C 
ATOM     11  O   UNL     1       7.769   4.845  17.359  0.00  0.00    +0.000 OA
BRANCH  10  13
ATOM     12  C   UNL     1       7.659   7.815  17.549  0.00  0.00    +0.000 C 
ATOM     13  O   UNL     1       8.053   6.817  18.490  0.00  0.00    +0.000 OA
ENDBRANCH  10  13
ENDBRANCH   9  10
ENDBRANCH   1   9
TORSDOF 4
ENDMDL
MODEL 5
REMARK VINA RESULT:      -5.3      1.987      3.985
REMARK  Name = 
REMARK  5 active torsions:
REMARK  status: ('A' for Active; 'I' for Inactive)
REMARK    1  A    between atoms: C_1  and  O_2
REMARK    2  A    between atoms: O_2  and  C_3
REMARK    3  A    between atoms: C_3  and  C_5
REMARK    4  A    between atoms: C_5  and  C_6
REMARK    5  A    between atoms: C_11  and  O_12
REMARK                            x       y       z     vdW  Elec       q    Type
REMARK                         _______ _______ _______ _____ _____    ______ ____
ROOT
ATOM      1  C   UNL     1       3.169   3.171  18.906  0.00  0.00    +0.000 A 
ATOM      2  C   UNL     1       1.921   3.809  18.907  0.00  0.00    +0.000 A 
ATOM      3  C   UNL     1       1.147   3.848  20.068  0.00  0.00    +0.000 A 
ATOM      4  C   UNL     1       1.610   3.248  21.237  0.00  0.00    +0.000 A 
ATOM      5  C   UNL     1       2.848   2.603  21.249  0.00  0.00    +0.000 A 
ATOM      6  C   UNL     1       3.619   2.574  20.088  0.00  0.00    +0.000 A 
ENDROOT
BRANCH   6   7
ATOM      7  O   UNL     1       4.846   1.972  20.091  0.00  0.00    +0.000 OA
ATOM      8  H   UNL     1       5.462   2.523  19.579  0.00  0.00    +0.000 HD
ENDBRANCH   6   7
BRANCH   1   9
ATOM      9  C   UNL     1       4.049   3.226  17.680  0.00  0.00    +0.000 C 
BRANCH   9  10
ATOM     10  C   UNL     1       5.105   4.304  17.788  0.00  0.00    +0.000 C 
ATOM     11  O   UNL     1       6.035   4.312  18.586  0.00  0.00    +0.000 OA
BRANCH  10  13
ATOM     12  C   UNL     1       4.254   6.463  17.534  0.00  0.00    +0.000 C 
ATOM     13  O   UNL     1       4.836   5.317  16.912  0.00  0.00    +0.000 OA
ENDBRANCH  10  13
ENDBRANCH   9  10
ENDBRANCH   1   9
TORSDOF 4
ENDMDL
MODEL 6
REMARK VINA RESULT:      -5.2      2.220      4.540
REMARK  Name = 
REMARK  5 active torsions:
REMARK  status: ('A' for Active; 'I' for Inactive)
REMARK    1  A    between atoms: C_1  and  O_2
REMARK    2  A    between atoms: O_2  and  C_3
REMARK    3  A    between atoms: C_3  and  C_5
REMARK    4  A    between atoms: C_5  and  C_6
REMARK    5  A    between atoms: C_11  and  O_12
REMARK                            x       y       z     vdW  Elec       q    Type
REMARK                         _______ _______ _______ _____ _____    ______ ____
ROOT
ATOM      1  C   UNL     1       2.827   4.396  18.568  0.00  0.00    +0.000 A 
ATOM      2  C   UNL     1       2.118   3.288  18.082  0.00  0.00    +0.000 A 
ATOM      3  C   UNL     1       1.063   2.745  18.819  0.00  0.00    +0.000 A 
ATOM      4  C   UNL     1       0.709   3.301  20.046  0.00  0.00    +0.000 A 
ATOM      5  C   UNL     1       1.410   4.400  20.544  0.00  0.00    +0.000 A 
ATOM      6  C   UNL     1       2.458   4.942  19.801  0.00  0.00    +0.000 A 
ENDROOT
BRANCH   6   7
ATOM      7  O   UNL     1       3.135   6.036  20.262  0.00  0.00    +0.000 OA
ATOM      8  H   UNL     1       3.770   5.744  20.938  0.00  0.00    +0.000 HD
ENDBRANCH   6   7
BRANCH   1   9
ATOM      9  C   UNL     1       3.894   5.046  17.719  0.00  0.00    +0.000 C 
BRANCH   9  10
ATOM     10  C   UNL     1       5.229   4.348  17.856  0.00  0.00    +0.000 C 
ATOM     11  O   UNL     1       5.807   4.117  18.912  0.00  0.00    +0.000 OA
BRANCH  10  13
ATOM     12  C   UNL     1       7.080   4.553  16.447  0.00  0.00    +0.000 C 
ATOM     13  O   UNL     1       5.746   4.072  16.622  0.00  0.00    +0.000 OA
ENDBRANCH  10  13
ENDBRANCH   9  10
ENDBRANCH   1   9
TORSDOF 4
ENDMDL
MODEL 7
REMARK VINA RESULT:      -5.2      2.045      4.570
REMARK  Name = 
REMARK  5 active torsions:
REMARK  status: ('A' for Active; 'I' for Inactive)
REMARK    1  A    between atoms: C_1  and  O_2
REMARK    2  A    between atoms: O_2  and  C_3
REMARK    3  A    between atoms: C_3  and  C_5
REMARK    4  A    between atoms: C_5  and  C_6
REMARK    5  A    between atoms: C_11  and  O_12
REMARK                            x       y       z     vdW  Elec       q    Type
REMARK                         _______ _______ _______ _____ _____    ______ ____
ROOT
ATOM      1  C   UNL     1       4.104   4.156  18.662  0.00  0.00    +0.000 A 
ATOM      2  C   UNL     1       3.004   4.748  18.025  0.00  0.00    +0.000 A 
ATOM      3  C   UNL     1       1.831   4.019  17.817  0.00  0.00    +0.000 A 
ATOM      4  C   UNL     1       1.748   2.694  18.242  0.00  0.00    +0.000 A 
ATOM      5  C   UNL     1       2.837   2.092  18.871  0.00  0.00    +0.000 A 
ATOM      6  C   UNL     1       4.003   2.826  19.081  0.00  0.00    +0.000 A 
ENDROOT
BRANCH   6   7
ATOM      7  O   UNL     1       5.069   2.259  19.722  0.00  0.00    +0.000 OA
ATOM      8  H   UNL     1       4.946   1.295  19.731  0.00  0.00    +0.000 HD
ENDBRANCH   6   7
BRANCH   1   9
ATOM      9  C   UNL     1       5.330   4.980  18.980  0.00  0.00    +0.000 C 
BRANCH   9  10
ATOM     10  C   UNL     1       6.447   4.741  17.988  0.00  0.00    +0.000 C 
ATOM     11  O   UNL     1       7.594   4.417  18.272  0.00  0.00    +0.000 OA
BRANCH  10  13
ATOM     12  C   UNL     1       6.957   4.637  15.713  0.00  0.00    +0.000 C 
ATOM     13  O   UNL     1       6.017   5.011  16.720  0.00  0.00    +0.000 OA
ENDBRANCH  10  13
ENDBRANCH   9  10
ENDBRANCH   1   9
TORSDOF 4
ENDMDL
MODEL 8
REMARK VINA RESULT:      -5.2      2.451      4.342
REMARK  Name = 
REMARK  5 active torsions:
REMARK  status: ('A' for Active; 'I' for Inactive)
REMARK    1  A    between atoms: C_1  and  O_2
REMARK    2  A    between atoms: O_2  and  C_3
REMARK    3  A    between atoms: C_3  and  C_5
REMARK    4  A    between atoms: C_5  and  C_6
REMARK    5  A    between atoms: C_11  and  O_12
REMARK                            x       y       z     vdW  Elec       q    Type
REMARK                         _______ _______ _______ _____ _____    ______ ____
ROOT
ATOM      1  C   UNL     1       2.190   4.726  18.687  0.00  0.00    +0.000 A 
ATOM      2  C   UNL     1       1.537   3.606  18.151  0.00  0.00    +0.000 A 
ATOM      3  C   UNL     1       0.899   2.691  18.989  0.00  0.00    +0.000 A 
ATOM      4  C   UNL     1       0.907   2.884  20.369  0.00  0.00    +0.000 A 
ATOM      5  C   UNL     1       1.557   3.990  20.917  0.00  0.00    +0.000 A 
ATOM      6  C   UNL     1       2.187   4.904  20.074  0.00  0.00    +0.000 A 
ENDROOT
BRANCH   6   7
ATOM      7  O   UNL     1       2.804   6.008  20.594  0.00  0.00    +0.000 OA
ATOM      8  H   UNL     1       2.683   6.004  21.558  0.00  0.00    +0.000 HD
ENDBRANCH   6   7
BRANCH   1   9
ATOM      9  C   UNL     1       2.785   5.769  17.771  0.00  0.00    +0.000 C 
BRANCH   9  10
ATOM     10  C   UNL     1       4.232   5.473  17.440  0.00  0.00    +0.000 C 
ATOM     11  O   UNL     1       4.621   4.770  16.514  0.00  0.00    +0.000 OA
BRANCH  10  13
ATOM     12  C   UNL     1       5.892   5.099  19.039  0.00  0.00    +0.000 C 
ATOM     13  O   UNL     1       5.055   6.043  18.369  0.00  0.00    +0.000 OA
ENDBRANCH  10  13
ENDBRANCH   9  10
ENDBRANCH   1   9
TORSDOF 4
ENDMDL
MODEL 9
REMARK VINA RESULT:      -5.2      2.577      4.566
REMARK  Name = 
REMARK  5 active torsions:
REMARK  status: ('A' for Active; 'I' for Inactive)
REMARK    1  A    between atoms: C_1  and  O_2
REMARK    2  A    between atoms: O_2  and  C_3
REMARK    3  A    between atoms: C_3  and  C_5
REMARK    4  A    between atoms: C_5  and  C_6
REMARK    5  A    between atoms: C_11  and  O_12
REMARK                            x       y       z     vdW  Elec       q    Type
REMARK                         _______ _______ _______ _____ _____    ______ ____
ROOT
ATOM      1  C   UNL     1       3.811   4.674  18.017  0.00  0.00    +0.000 A 
ATOM      2  C   UNL     1       2.460   4.896  17.713  0.00  0.00    +0.000 A 
ATOM      3  C   UNL     1       1.502   3.921  17.995  0.00  0.00    +0.000 A 
ATOM      4  C   UNL     1       1.883   2.715  18.580  0.00  0.00    +0.000 A 
ATOM      5  C   UNL     1       3.224   2.478  18.882  0.00  0.00    +0.000 A 
ATOM      6  C   UNL     1       4.175   3.458  18.604  0.00  0.00    +0.000 A 
ENDROOT
BRANCH   6   7
ATOM      7  O   UNL     1       5.489   3.252  18.921  0.00  0.00    +0.000 OA
ATOM      8  H   UNL     1       5.999   3.188  18.096  0.00  0.00    +0.000 HD
ENDBRANCH   6   7
BRANCH   1   9
ATOM      9  C   UNL     1       4.826   5.772  17.810  0.00  0.00    +0.000 C 
BRANCH   9  10
ATOM     10  C   UNL     1       5.432   5.731  16.424  0.00  0.00    +0.000 C 
ATOM     11  O   UNL     1       5.216   6.539  15.529  0.00  0.00    +0.000 OA
BRANCH  10  13
ATOM     12  C   UNL     1       6.276   4.143  14.935  0.00  0.00    +0.000 C 
ATOM     13  O   UNL     1       6.206   4.615  16.281  0.00  0.00    +0.000 OA
ENDBRANCH  10  13
ENDBRANCH   9  10
ENDBRANCH   1   9
TORSDOF 4
ENDMDL
