MODEL 1
REMARK VINA RESULT:      -7.4      0.000      0.000
REMARK  Name = 
REMARK  8 active torsions:
REMARK  status: ('A' for Active; 'I' for Inactive)
REMARK    1  A    between atoms: C_1  and  O_2
REMARK    2  A    between atoms: O_2  and  C_3
REMARK    3  A    between atoms: C_7  and  C_8
REMARK    4  A    between atoms: C_8  and  O_9
REMARK    5  A    between atoms: C_8  and  C_10
REMARK    6  A    between atoms: C_10  and  N_11
REMARK    7  A    between atoms: C_12  and  C_14
REMARK    8  A    between atoms: C_14  and  C_15
REMARK                            x       y       z     vdW  Elec       q    Type
REMARK                         _______ _______ _______ _____ _____    ______ ____
ROOT
ATOM      1  C   UNL     1       5.391   5.746  16.691  0.00  0.00    +0.000 C 
ENDROOT
BRANCH   1   2
ATOM      2  N   UNL     1       4.279   5.515  17.609  0.00  0.00    +0.000 N 
ATOM      3  C   UNL     1       4.536   5.293  18.946  0.00  0.00    +0.000 C 
ATOM      4  O   UNL     1       5.670   5.251  19.408  0.00  0.00    +0.000 OA
ATOM      5  H   UNL     1       3.405   5.165  17.233  0.00  0.00    +0.000 HD
BRANCH   3   6
ATOM      6  C   UNL     1       3.293   5.103  19.792  0.00  0.00    +0.000 C 
BRANCH   6   7
ATOM      7  C   UNL     1       3.177   3.655  20.312  0.00  0.00    +0.000 C 
ATOM      8  C   UNL     1       1.834   3.388  21.021  0.00  0.00    +0.000 C 
ATOM      9  C   UNL     1       0.649   3.394  20.059  0.00  0.00    +0.000 C 
ATOM     10  C   UNL     1       0.856   2.422  18.900  0.00  0.00    +0.000 C 
ATOM     11  C   UNL     1       2.196   2.619  18.196  0.00  0.00    +0.000 C 
ATOM     12  C   UNL     1       3.365   2.633  19.181  0.00  0.00    +0.000 C 
ENDBRANCH   6   7
ENDBRANCH   3   6
ENDBRANCH   1   2
BRANCH   1  13
ATOM     13  C   UNL     1       6.048   4.444  16.184  0.00  0.00    +0.000 C 
BRANCH  13  18
ATOM     14  C   UNL     1       5.936   3.443  12.473  0.00  0.00    +0.000 A 
ATOM     15  C   UNL     1       7.006   4.183  11.969  0.00  0.00    +0.000 A 
ATOM     16  C   UNL     1       7.757   5.001  12.809  0.00  0.00    +0.000 A 
ATOM     17  C   UNL     1       7.436   5.088  14.163  0.00  0.00    +0.000 A 
ATOM     18  C   UNL     1       6.349   4.375  14.695  0.00  0.00    +0.000 A 
ATOM     19  C   UNL     1       5.619   3.538  13.831  0.00  0.00    +0.000 A 
BRANCH  14  21
ATOM     20  C   UNL     1       4.001   3.088  11.138  0.00  0.00    +0.000 C 
ATOM     21  O   UNL     1       5.292   2.659  11.557  0.00  0.00    +0.000 OA
ENDBRANCH  14  21
ENDBRANCH  13  18
BRANCH  13  22
ATOM     22  O   UNL     1       7.252   4.233  16.932  0.00  0.00    +0.000 OA
ATOM     23  H   UNL     1       7.874   4.923  16.645  0.00  0.00    +0.000 HD
ENDBRANCH  13  22
ENDBRANCH   1  13
TORSDOF 7
ENDMDL
MODEL 2
REMARK VINA RESULT:      -7.3      1.130      1.653
REMARK  Name = 
REMARK  8 active torsions:
REMARK  status: ('A' for Active; 'I' for Inactive)
REMARK    1  A    between atoms: C_1  and  O_2
REMARK    2  A    between atoms: O_2  and  C_3
REMARK    3  A    between atoms: C_7  and  C_8
REMARK    4  A    between atoms: C_8  and  O_9
REMARK    5  A    between atoms: C_8  and  C_10
REMARK    6  A    between atoms: C_10  and  N_11
REMARK    7  A    between atoms: C_12  and  C_14
REMARK    8  A    between atoms: C_14  and  C_15
REMARK                            x       y       z     vdW  Elec       q    Type
REMARK                         _______ _______ _______ _____ _____    ______ ____
ROOT
ATOM      1  C   UNL     1       6.878   4.467  16.999  0.00  0.00    +0.000 C 
ENDROOT
BRANCH   1   2
ATOM      2  N   UNL     1       5.697   3.964  17.694  0.00  0.00    +0.000 N 
ATOM      3  C   UNL     1       5.474   4.327  19.006  0.00  0.00    +0.000 C 
ATOM      4  O   UNL     1       6.243   5.040  19.640  0.00  0.00    +0.000 OA
ATOM      5  H   UNL     1       5.268   3.108  17.364  0.00  0.00    +0.000 HD
BRANCH   3   6
ATOM      6  C   UNL     1       4.195   3.765  19.595  0.00  0.00    +0.000 C 
BRANCH   6   7
ATOM      7  C   UNL     1       2.961   4.575  19.148  0.00  0.00    +0.000 C 
ATOM      8  C   UNL     1       2.203   3.904  17.985  0.00  0.00    +0.000 C 
ATOM      9  C   UNL     1       1.505   2.613  18.405  0.00  0.00    +0.000 C 
ATOM     10  C   UNL     1       0.583   2.831  19.602  0.00  0.00    +0.000 C 
ATOM     11  C   UNL     1       1.280   3.537  20.763  0.00  0.00    +0.000 C 
ATOM     12  C   UNL     1       1.990   4.813  20.315  0.00  0.00    +0.000 C 
ENDBRANCH   6   7
ENDBRANCH   3   6
ENDBRANCH   1   2
BRANCH   1  13
ATOM     13  C   UNL     1       6.549   5.492  15.893  0.00  0.00    +0.000 C 
BRANCH  13  18
ATOM     14  C   UNL     1       6.048   3.546  12.615  0.00  0.00    +0.000 A 
ATOM     15  C   UNL     1       7.088   4.062  11.841  0.00  0.00    +0.000 A 
ATOM     16  C   UNL     1       7.942   5.031  12.361  0.00  0.00    +0.000 A 
ATOM     17  C   UNL     1       7.756   5.494  13.664  0.00  0.00    +0.000 A 
ATOM     18  C   UNL     1       6.703   5.011  14.458  0.00  0.00    +0.000 A 
ATOM     19  C   UNL     1       5.867   4.018  13.918  0.00  0.00    +0.000 A 
BRANCH  14  21
ATOM     20  C   UNL     1       4.150   3.026  11.279  0.00  0.00    +0.000 C 
ATOM     21  O   UNL     1       5.294   2.583  12.003  0.00  0.00    +0.000 OA
ENDBRANCH  14  21
ENDBRANCH  13  18
BRANCH  13  22
ATOM     22  O   UNL     1       5.210   5.960  16.104  0.00  0.00    +0.000 OA
ATOM     23  H   UNL     1       4.680   5.176  16.327  0.00  0.00    +0.000 HD
ENDBRANCH  13  22
ENDBRANCH   1  13
TORSDOF 7
ENDMDL
MODEL 3
REMARK VINA RESULT:      -7.2      1.120      1.633
REMARK  Name = 
REMARK  8 active torsions:
REMARK  status: ('A' for Active; 'I' for Inactive)
REMARK    1  A    between atoms: C_1  and  O_2
REMARK    2  A    between atoms: O_2  and  C_3
REMARK    3  A    between atoms: C_7  and  C_8
REMARK    4  A    between atoms: C_8  and  O_9
REMARK    5  A    between atoms: C_8  and  C_10
REMARK    6  A    between atoms: C_10  and  N_11
REMARK    7  A    between atoms: C_12  and  C_14
REMARK    8  A    between atoms: C_14  and  C_15
REMARK                            x       y       z     vdW  Elec       q    Type
REMARK                         _______ _______ _______ _____ _____    ______ ____
ROOT
ATOM      1  C   UNL     1       5.342   5.847  16.477  0.00  0.00    +0.000 C 
ENDROOT
BRANCH   1   2
ATOM      2  N   UNL     1       4.695   5.331  17.680  0.00  0.00    +0.000 N 
ATOM      3  C   UNL     1       3.677   6.052  18.267  0.00  0.00    +0.000 C 
ATOM      4  O   UNL     1       3.297   7.136  17.841  0.00  0.00    +0.000 OA
ATOM      5  H   UNL     1       5.206   4.678  18.263  0.00  0.00    +0.000 HD
BRANCH   3   6
ATOM      6  C   UNL     1       3.070   5.387  19.486  0.00  0.00    +0.000 C 
BRANCH   6   7
ATOM      7  C   UNL     1       1.611   4.953  19.228  0.00  0.00    +0.000 C 
ATOM      8  C   UNL     1       1.462   4.116  17.943  0.00  0.00    +0.000 C 
ATOM      9  C   UNL     1       2.106   2.738  18.060  0.00  0.00    +0.000 C 
ATOM     10  C   UNL     1       1.584   1.970  19.273  0.00  0.00    +0.000 C 
ATOM     11  C   UNL     1       1.671   2.780  20.565  0.00  0.00    +0.000 C 
ATOM     12  C   UNL     1       1.041   4.164  20.417  0.00  0.00    +0.000 C 
ENDBRANCH   6   7
ENDBRANCH   3   6
ENDBRANCH   1   2
BRANCH   1  13
ATOM     13  C   UNL     1       6.557   5.007  16.026  0.00  0.00    +0.000 C 
BRANCH  13  18
ATOM     14  C   UNL     1       6.019   3.516  12.523  0.00  0.00    +0.000 A 
ATOM     15  C   UNL     1       7.002   4.188  11.797  0.00  0.00    +0.000 A 
ATOM     16  C   UNL     1       7.831   5.116  12.422  0.00  0.00    +0.000 A 
ATOM     17  C   UNL     1       7.675   5.382  13.782  0.00  0.00    +0.000 A 
ATOM     18  C   UNL     1       6.677   4.740  14.534  0.00  0.00    +0.000 A 
ATOM     19  C   UNL     1       5.867   3.791  13.885  0.00  0.00    +0.000 A 
BRANCH  14  21
ATOM     20  C   UNL     1       4.096   3.092  11.189  0.00  0.00    +0.000 C 
ATOM     21  O   UNL     1       5.286   2.612  11.805  0.00  0.00    +0.000 OA
ENDBRANCH  14  21
ENDBRANCH  13  18
BRANCH  13  22
ATOM     22  O   UNL     1       7.746   5.654  16.499  0.00  0.00    +0.000 OA
ATOM     23  H   UNL     1       7.800   5.461  17.451  0.00  0.00    +0.000 HD
ENDBRANCH  13  22
ENDBRANCH   1  13
TORSDOF 7
ENDMDL
MODEL 4
REMARK VINA RESULT:      -7.1      1.328      1.721
REMARK  Name = 
REMARK  8 active torsions:
REMARK  status: ('A' for Active; 'I' for Inactive)
REMARK    1  A    between atoms: C_1  and  O_2
REMARK    2  A    between atoms: O_2  and  C_3
REMARK    3  A    between atoms: C_7  and  C_8
REMARK    4  A    between atoms: C_8  and  O_9
REMARK    5  A    between atoms: C_8  and  C_10
REMARK    6  A    between atoms: C_10  and  N_11
REMARK    7  A    between atoms: C_12  and  C_14
REMARK    8  A    between atoms: C_14  and  C_15
REMARK                            x       y       z     vdW  Elec       q    Type
REMARK                         _______ _______ _______ _____ _____    ______ ____
ROOT
ATOM      1  C   UNL     1       6.932   4.618  16.981  0.00  0.00    +0.000 C 
ENDROOT
BRANCH   1   2
ATOM      2  N   UNL     1       5.907   3.877  17.711  0.00  0.00    +0.000 N 
ATOM      3  C   UNL     1       5.635   4.204  19.023  0.00  0.00    +0.000 C 
ATOM      4  O   UNL     1       6.238   5.081  19.629  0.00  0.00    +0.000 OA
ATOM      5  H   UNL     1       5.673   2.941  17.401  0.00  0.00    +0.000 HD
BRANCH   3   6
ATOM      6  C   UNL     1       4.527   3.381  19.649  0.00  0.00    +0.000 C 
BRANCH   6   7
ATOM      7  C   UNL     1       3.290   3.304  18.731  0.00  0.00    +0.000 C 
ATOM      8  C   UNL     1       2.283   2.229  19.186  0.00  0.00    +0.000 C 
ATOM      9  C   UNL     1       1.588   2.591  20.496  0.00  0.00    +0.000 C 
ATOM     10  C   UNL     1       0.924   3.964  20.424  0.00  0.00    +0.000 C 
ATOM     11  C   UNL     1       1.874   5.054  19.933  0.00  0.00    +0.000 C 
ATOM     12  C   UNL     1       2.575   4.660  18.633  0.00  0.00    +0.000 C 
ENDBRANCH   6   7
ENDBRANCH   3   6
ENDBRANCH   1   2
BRANCH   1  13
ATOM     13  C   UNL     1       6.363   5.489  15.840  0.00  0.00    +0.000 C 
BRANCH  13  18
ATOM     14  C   UNL     1       6.018   3.449  12.599  0.00  0.00    +0.000 A 
ATOM     15  C   UNL     1       7.075   3.965  11.849  0.00  0.00    +0.000 A 
ATOM     16  C   UNL     1       7.892   4.964  12.374  0.00  0.00    +0.000 A 
ATOM     17  C   UNL     1       7.650   5.457  13.656  0.00  0.00    +0.000 A 
ATOM     18  C   UNL     1       6.578   4.974  14.426  0.00  0.00    +0.000 A 
ATOM     19  C   UNL     1       5.781   3.951  13.882  0.00  0.00    +0.000 A 
BRANCH  14  21
ATOM     20  C   UNL     1       6.047   1.490  11.251  0.00  0.00    +0.000 C 
ATOM     21  O   UNL     1       5.305   2.456  11.987  0.00  0.00    +0.000 OA
ENDBRANCH  14  21
ENDBRANCH  13  18
BRANCH  13  22
ATOM     22  O   UNL     1       4.961   5.675  16.078  0.00  0.00    +0.000 OA
ATOM     23  H   UNL     1       4.720   6.510  15.641  0.00  0.00    +0.000 HD
ENDBRANCH  13  22
ENDBRANCH   1  13
TORSDOF 7
ENDMDL
MODEL 5
REMARK VINA RESULT:      -7.1      5.226      8.097
REMARK  Name = 
REMARK  8 active torsions:
REMARK  status: ('A' for Active; 'I' for Inactive)
REMARK    1  A    between atoms: C_1  and  O_2
REMARK    2  A    between atoms: O_2  and  C_3
REMARK    3  A    between atoms: C_7  and  C_8
REMARK    4  A    between atoms: C_8  and  O_9
REMARK    5  A    between atoms: C_8  and  C_10
REMARK    6  A    between atoms: C_10  and  N_11
REMARK    7  A    between atoms: C_12  and  C_14
REMARK    8  A    between atoms: C_14  and  C_15
REMARK                            x       y       z     vdW  Elec       q    Type
REMARK                         _______ _______ _______ _____ _____    ______ ____
ROOT
ATOM      1  C   UNL     1       7.306   6.681  17.664  0.00  0.00    +0.000 C 
ENDROOT
BRANCH   1   2
ATOM      2  N   UNL     1       8.235   7.521  18.415  0.00  0.00    +0.000 N 
ATOM      3  C   UNL     1       8.251   8.882  18.195  0.00  0.00    +0.000 C 
ATOM      4  O   UNL     1       7.532   9.432  17.368  0.00  0.00    +0.000 OA
ATOM      5  H   UNL     1       9.073   7.096  18.796  0.00  0.00    +0.000 HD
BRANCH   3   6
ATOM      6  C   UNL     1       9.236   9.639  19.063  0.00  0.00    +0.000 C 
BRANCH   6   7
ATOM      7  C   UNL     1       9.242  11.146  18.734  0.00  0.00    +0.000 C 
ATOM      8  C   UNL     1       9.244  12.027  19.998  0.00  0.00    +0.000 C 
ATOM      9  C   UNL     1      10.558  11.944  20.771  0.00  0.00    +0.000 C 
ATOM     10  C   UNL     1      11.758  12.263  19.884  0.00  0.00    +0.000 C 
ATOM     11  C   UNL     1      11.773  11.444  18.595  0.00  0.00    +0.000 C 
ATOM     12  C   UNL     1      10.441  11.523  17.850  0.00  0.00    +0.000 C 
ENDBRANCH   6   7
ENDBRANCH   3   6
ENDBRANCH   1   2
BRANCH   1  13
ATOM     13  C   UNL     1       6.749   5.498  18.486  0.00  0.00    +0.000 C 
BRANCH  13  18
ATOM     14  C   UNL     1       3.425   3.610  18.072  0.00  0.00    +0.000 A 
ATOM     15  C   UNL     1       2.539   4.671  17.890  0.00  0.00    +0.000 A 
ATOM     16  C   UNL     1       3.000   5.986  17.903  0.00  0.00    +0.000 A 
ATOM     17  C   UNL     1       4.356   6.245  18.106  0.00  0.00    +0.000 A 
ATOM     18  C   UNL     1       5.267   5.197  18.317  0.00  0.00    +0.000 A 
ATOM     19  C   UNL     1       4.781   3.878  18.278  0.00  0.00    +0.000 A 
BRANCH  14  21
ATOM     20  C   UNL     1       1.799   2.099  18.927  0.00  0.00    +0.000 C 
ATOM     21  O   UNL     1       2.858   2.366  18.014  0.00  0.00    +0.000 OA
ENDBRANCH  14  21
ENDBRANCH  13  18
BRANCH  13  22
ATOM     22  O   UNL     1       7.518   4.332  18.166  0.00  0.00    +0.000 OA
ATOM     23  H   UNL     1       8.314   4.370  18.724  0.00  0.00    +0.000 HD
ENDBRANCH  13  22
ENDBRANCH   1  13
TORSDOF 7
ENDMDL
MODEL 6
REMARK VINA RESULT:      -7.0      1.094      1.131
REMARK  Name = 
REMARK  8 active torsions:
REMARK  status: ('A' for Active; 'I' for Inactive)
REMARK    1  A    between atoms: C_1  and  O_2
REMARK    2  A    between atoms: O_2  and  C_3
REMARK    3  A    between atoms: C_7  and  C_8
REMARK    4  A    between atoms: C_8  and  O_9
REMARK    5  A    between atoms: C_8  and  C_10
REMARK    6  A    between atoms: C_10  and  N_11
REMARK    7  A    between atoms: C_12  and  C_14
REMARK    8  A    between atoms: C_14  and  C_15
REMARK                            x       y       z     vdW  Elec       q    Type
REMARK                         _______ _______ _______ _____ _____    ______ ____
ROOT
ATOM      1  C   UNL     1       6.555   4.286  16.915  0.00  0.00    +0.000 C 
ENDROOT
BRANCH   1   2
ATOM      2  N   UNL     1       5.258   4.418  17.573  0.00  0.00    +0.000 N 
ATOM      3  C   UNL     1       5.205   4.632  18.934  0.00  0.00    +0.000 C 
ATOM      4  O   UNL     1       6.206   4.693  19.639  0.00  0.00    +0.000 OA
ATOM      5  H   UNL     1       4.446   4.004  17.130  0.00  0.00    +0.000 HD
BRANCH   3   6
ATOM      6  C   UNL     1       3.800   4.785  19.482  0.00  0.00    +0.000 C 
BRANCH   6   7
ATOM      7  C   UNL     1       3.368   3.542  20.289  0.00  0.00    +0.000 C 
ATOM      8  C   UNL     1       2.049   3.764  21.054  0.00  0.00    +0.000 C 
ATOM      9  C   UNL     1       0.843   3.880  20.126  0.00  0.00    +0.000 C 
ATOM     10  C   UNL     1       0.732   2.681  19.188  0.00  0.00    +0.000 C 
ATOM     11  C   UNL     1       2.033   2.394  18.442  0.00  0.00    +0.000 C 
ATOM     12  C   UNL     1       3.230   2.305  19.388  0.00  0.00    +0.000 C 
ENDBRANCH   6   7
ENDBRANCH   3   6
ENDBRANCH   1   2
BRANCH   1  13
ATOM     13  C   UNL     1       6.824   5.386  15.865  0.00  0.00    +0.000 C 
BRANCH  13  18
ATOM     14  C   UNL     1       6.089   3.470  12.614  0.00  0.00    +0.000 A 
ATOM     15  C   UNL     1       7.009   4.059  11.747  0.00  0.00    +0.000 A 
ATOM     16  C   UNL     1       7.858   5.067  12.197  0.00  0.00    +0.000 A 
ATOM     17  C   UNL     1       7.785   5.497  13.522  0.00  0.00    +0.000 A 
ATOM     18  C   UNL     1       6.852   4.939  14.412  0.00  0.00    +0.000 A 
ATOM     19  C   UNL     1       6.020   3.908  13.939  0.00  0.00    +0.000 A 
BRANCH  14  21
ATOM     20  C   UNL     1       6.013   1.501  11.281  0.00  0.00    +0.000 C 
ATOM     21  O   UNL     1       5.329   2.475  12.062  0.00  0.00    +0.000 OA
ENDBRANCH  14  21
ENDBRANCH  13  18
BRANCH  13  22
ATOM     22  O   UNL     1       5.839   6.414  16.035  0.00  0.00    +0.000 OA
ATOM     23  H   UNL     1       5.291   6.401  15.233  0.00  0.00    +0.000 HD
ENDBRANCH  13  22
ENDBRANCH   1  13
TORSDOF 7
ENDMDL
MODEL 7
REMARK VINA RESULT:      -7.0      1.141      1.574
REMARK  Name = 
REMARK  8 active torsions:
REMARK  status: ('A' for Active; 'I' for Inactive)
REMARK    1  A    between atoms: C_1  and  O_2
REMARK    2  A    between atoms: O_2  and  C_3
REMARK    3  A    between atoms: C_7  and  C_8
REMARK    4  A    between atoms: C_8  and  O_9
REMARK    5  A    between atoms: C_8  and  C_10
REMARK    6  A    between atoms: C_10  and  N_11
REMARK    7  A    between atoms: C_12  and  C_14
REMARK    8  A    between atoms: C_14  and  C_15
REMARK                            x       y       z     vdW  Elec       q    Type
REMARK                         _______ _______ _______ _____ _____    ______ ____
ROOT
ATOM      1  C   UNL     1       5.242   5.974  16.353  0.00  0.00    +0.000 C 
ENDROOT
BRANCH   1   2
ATOM      2  N   UNL     1       4.811   5.634  17.706  0.00  0.00    +0.000 N 
ATOM      3  C   UNL     1       4.457   4.335  18.001  0.00  0.00    +0.000 C 
ATOM      4  O   UNL     1       4.459   3.438  17.167  0.00  0.00    +0.000 OA
ATOM      5  H   UNL     1       4.434   6.370  18.294  0.00  0.00    +0.000 HD
BRANCH   3   6
ATOM      6  C   UNL     1       4.064   4.113  19.448  0.00  0.00    +0.000 C 
BRANCH   6   7
ATOM      7  C   UNL     1       2.738   4.825  19.791  0.00  0.00    +0.000 C 
ATOM      8  C   UNL     1       1.614   4.495  18.789  0.00  0.00    +0.000 C 
ATOM      9  C   UNL     1       1.143   3.047  18.889  0.00  0.00    +0.000 C 
ATOM     10  C   UNL     1       0.727   2.683  20.312  0.00  0.00    +0.000 C 
ATOM     11  C   UNL     1       1.794   3.035  21.346  0.00  0.00    +0.000 C 
ATOM     12  C   UNL     1       2.267   4.482  21.213  0.00  0.00    +0.000 C 
ENDBRANCH   6   7
ENDBRANCH   3   6
ENDBRANCH   1   2
BRANCH   1  13
ATOM     13  C   UNL     1       6.581   5.316  15.954  0.00  0.00    +0.000 C 
BRANCH  13  18
ATOM     14  C   UNL     1       6.139   3.577  12.553  0.00  0.00    +0.000 A 
ATOM     15  C   UNL     1       7.136   4.203  11.805  0.00  0.00    +0.000 A 
ATOM     16  C   UNL     1       7.943   5.181  12.383  0.00  0.00    +0.000 A 
ATOM     17  C   UNL     1       7.752   5.541  13.717  0.00  0.00    +0.000 A 
ATOM     18  C   UNL     1       6.740   4.946  14.488  0.00  0.00    +0.000 A 
ATOM     19  C   UNL     1       5.952   3.946  13.888  0.00  0.00    +0.000 A 
BRANCH  14  21
ATOM     20  C   UNL     1       4.184   3.015  11.322  0.00  0.00    +0.000 C 
ATOM     21  O   UNL     1       5.430   2.618  11.884  0.00  0.00    +0.000 OA
ENDBRANCH  14  21
ENDBRANCH  13  18
BRANCH  13  22
ATOM     22  O   UNL     1       7.643   6.194  16.348  0.00  0.00    +0.000 OA
ATOM     23  H   UNL     1       7.307   7.099  16.226  0.00  0.00    +0.000 HD
ENDBRANCH  13  22
ENDBRANCH   1  13
TORSDOF 7
ENDMDL
MODEL 8
REMARK VINA RESULT:      -7.0      0.733      1.543
REMARK  Name = 
REMARK  8 active torsions:
REMARK  status: ('A' for Active; 'I' for Inactive)
REMARK    1  A    between atoms: C_1  and  O_2
REMARK    2  A    between atoms: O_2  and  C_3
REMARK    3  A    between atoms: C_7  and  C_8
REMARK    4  A    between atoms: C_8  and  O_9
REMARK    5  A    between atoms: C_8  and  C_10
REMARK    6  A    between atoms: C_10  and  N_11
REMARK    7  A    between atoms: C_12  and  C_14
REMARK    8  A    between atoms: C_14  and  C_15
REMARK                            x       y       z     vdW  Elec       q    Type
REMARK                         _______ _______ _______ _____ _____    ______ ____
ROOT
ATOM      1  C   UNL     1       5.335   5.941  16.454  0.00  0.00    +0.000 C 
ENDROOT
BRANCH   1   2
ATOM      2  N   UNL     1       4.194   5.876  17.362  0.00  0.00    +0.000 N 
ATOM      3  C   UNL     1       4.407   5.653  18.706  0.00  0.00    +0.000 C 
ATOM      4  O   UNL     1       5.521   5.476  19.184  0.00  0.00    +0.000 OA
ATOM      5  H   UNL     1       3.286   5.633  16.983  0.00  0.00    +0.000 HD
BRANCH   3   6
ATOM      6  C   UNL     1       3.141   5.644  19.540  0.00  0.00    +0.000 C 
BRANCH   6   7
ATOM      7  C   UNL     1       2.238   4.443  19.188  0.00  0.00    +0.000 C 
ATOM      8  C   UNL     1       3.042   3.154  18.932  0.00  0.00    +0.000 C 
ATOM      9  C   UNL     1       3.691   2.604  20.200  0.00  0.00    +0.000 C 
ATOM     10  C   UNL     1       2.668   2.395  21.315  0.00  0.00    +0.000 C 
ATOM     11  C   UNL     1       1.815   3.636  21.572  0.00  0.00    +0.000 C 
ATOM     12  C   UNL     1       1.195   4.182  20.286  0.00  0.00    +0.000 C 
ENDBRANCH   6   7
ENDBRANCH   3   6
ENDBRANCH   1   2
BRANCH   1  13
ATOM     13  C   UNL     1       5.835   4.553  15.997  0.00  0.00    +0.000 C 
BRANCH  13  18
ATOM     14  C   UNL     1       5.855   3.451  12.313  0.00  0.00    +0.000 A 
ATOM     15  C   UNL     1       6.998   4.103  11.850  0.00  0.00    +0.000 A 
ATOM     16  C   UNL     1       7.756   4.896  12.708  0.00  0.00    +0.000 A 
ATOM     17  C   UNL     1       7.370   5.044  14.040  0.00  0.00    +0.000 A 
ATOM     18  C   UNL     1       6.211   4.419  14.530  0.00  0.00    +0.000 A 
ATOM     19  C   UNL     1       5.473   3.607  13.649  0.00  0.00    +0.000 A 
BRANCH  14  21
ATOM     20  C   UNL     1       3.863   3.032  11.085  0.00  0.00    +0.000 C 
ATOM     21  O   UNL     1       5.210   2.683  11.384  0.00  0.00    +0.000 OA
ENDBRANCH  14  21
ENDBRANCH  13  18
BRANCH  13  22
ATOM     22  O   UNL     1       6.953   4.190  16.817  0.00  0.00    +0.000 OA
ATOM     23  H   UNL     1       7.686   3.999  16.208  0.00  0.00    +0.000 HD
ENDBRANCH  13  22
ENDBRANCH   1  13
TORSDOF 7
ENDMDL
MODEL 9
REMARK VINA RESULT:      -6.9      5.458      8.248
REMARK  Name = 
REMARK  8 active torsions:
REMARK  status: ('A' for Active; 'I' for Inactive)
REMARK    1  A    between atoms: C_1  and  O_2
REMARK    2  A    between atoms: O_2  and  C_3
REMARK    3  A    between atoms: C_7  and  C_8
REMARK    4  A    between atoms: C_8  and  O_9
REMARK    5  A    between atoms: C_8  and  C_10
REMARK    6  A    between atoms: C_10  and  N_11
REMARK    7  A    between atoms: C_12  and  C_14
REMARK    8  A    between atoms: C_14  and  C_15
REMARK                            x       y       z     vdW  Elec       q    Type
REMARK                         _______ _______ _______ _____ _____    ______ ____
ROOT
ATOM      1  C   UNL     1       7.650   6.885  18.012  0.00  0.00    +0.000 C 
ENDROOT
BRANCH   1   2
ATOM      2  N   UNL     1       8.491   7.840  18.728  0.00  0.00    +0.000 N 
ATOM      3  C   UNL     1       8.422   9.179  18.409  0.00  0.00    +0.000 C 
ATOM      4  O   UNL     1       7.699   9.617  17.522  0.00  0.00    +0.000 OA
ATOM      5  H   UNL     1       9.340   7.503  19.167  0.00  0.00    +0.000 HD
BRANCH   3   6
ATOM      6  C   UNL     1       9.320  10.063  19.252  0.00  0.00    +0.000 C 
BRANCH   6   7
ATOM      7  C   UNL     1       9.441  11.482  18.656  0.00  0.00    +0.000 C 
ATOM      8  C   UNL     1       9.398  12.581  19.736  0.00  0.00    +0.000 C 
ATOM      9  C   UNL     1      10.641  12.585  20.621  0.00  0.00    +0.000 C 
ATOM     10  C   UNL     1      11.923  12.681  19.798  0.00  0.00    +0.000 C 
ATOM     11  C   UNL     1      11.988  11.638  18.684  0.00  0.00    +0.000 C 
ATOM     12  C   UNL     1      10.724  11.636  17.825  0.00  0.00    +0.000 C 
ENDBRANCH   6   7
ENDBRANCH   3   6
ENDBRANCH   1   2
BRANCH   1  13
ATOM     13  C   UNL     1       7.073   5.776  18.918  0.00  0.00    +0.000 C 
BRANCH  13  18
ATOM     14  C   UNL     1       4.124   3.330  18.597  0.00  0.00    +0.000 A 
ATOM     15  C   UNL     1       3.894   3.373  17.222  0.00  0.00    +0.000 A 
ATOM     16  C   UNL     1       4.674   4.183  16.401  0.00  0.00    +0.000 A 
ATOM     17  C   UNL     1       5.690   4.962  16.955  0.00  0.00    +0.000 A 
ATOM     18  C   UNL     1       5.928   4.958  18.340  0.00  0.00    +0.000 A 
ATOM     19  C   UNL     1       5.141   4.116  19.145  0.00  0.00    +0.000 A 
BRANCH  14  21
ATOM     20  C   UNL     1       1.912   2.579  19.045  0.00  0.00    +0.000 C 
ATOM     21  O   UNL     1       3.310   2.479  19.293  0.00  0.00    +0.000 OA
ENDBRANCH  14  21
ENDBRANCH  13  18
BRANCH  13  22
ATOM     22  O   UNL     1       8.148   4.904  19.293  0.00  0.00    +0.000 OA
ATOM     23  H   UNL     1       7.747   4.188  19.816  0.00  0.00    +0.000 HD
ENDBRANCH  13  22
ENDBRANCH   1  13
TORSDOF 7
ENDMDL
