MODEL 1
REMARK VINA RESULT:      -7.4      0.000      0.000
REMARK  Name = 
REMARK  14 active torsions:
REMARK  status: ('A' for Active; 'I' for Inactive)
REMARK    1  A    between atoms: C_1  and  C_2
REMARK    2  A    between atoms: C_2  and  C_3
REMARK    3  A    between atoms: C_2  and  N_4
REMARK    4  A    between atoms: N_4  and  C_5
REMARK    5  A    between atoms: N_4  and  C_6
REMARK    6  A    between atoms: C_6  and  C_7
REMARK    7  A    between atoms: C_7  and  C_8
REMARK    8  A    between atoms: C_8  and  N_9
REMARK    9  A    between atoms: C_10  and  C_12
REMARK   10  A    between atoms: N_15  and  C_16
REMARK   11  A    between atoms: C_16  and  C_17
REMARK   12  A    between atoms: C_16  and  C_18
REMARK   13  A    between atoms: C_16  and  C_19
REMARK   14  A    between atoms: C_20  and  C_21
REMARK                            x       y       z     vdW  Elec       q    Type
REMARK                         _______ _______ _______ _____ _____    ______ ____
ROOT
ATOM      1  C   UNL     1       4.834   3.735  18.797  0.00  0.00    +0.000 A 
ATOM      2  C   UNL     1       4.934   2.726  19.766  0.00  0.00    +0.000 A 
ATOM      3  N   UNL     1       3.761   2.447  20.328  0.00  0.00    +0.000 NA
ATOM      4  N   UNL     1       2.874   3.297  19.743  0.00  0.00    +0.000 N 
ATOM      5  C   UNL     1       3.477   4.036  18.742  0.00  0.00    +0.000 A 
ENDROOT
BRANCH   1   7
ATOM      6  N   UNL     1       6.155   3.832  16.808  0.00  0.00    +0.000 N 
ATOM      7  C   UNL     1       5.885   4.383  18.037  0.00  0.00    +0.000 C 
ATOM      8  O   UNL     1       6.488   5.354  18.481  0.00  0.00    +0.000 OA
ATOM      9  H   UNL     1       5.637   3.030  16.476  0.00  0.00    +0.000 HD
BRANCH   6  10
ATOM     10  C   UNL     1       7.141   4.425  15.926  0.00  0.00    +0.000 C 
BRANCH  10  11
ATOM     11  C   UNL     1       6.513   5.133  14.726  0.00  0.00    +0.000 C 
BRANCH  11  12
ATOM     12  C   UNL     1       5.624   4.214  13.880  0.00  0.00    +0.000 C 
BRANCH  12  13
ATOM     13  N   UNL     1       6.343   3.410  12.869  0.00  0.00    +0.000 NA
ATOM     14  C   UNL     1       7.168   4.301  12.046  0.00  0.00    +0.000 C 
BRANCH  13  16
ATOM     15  C   UNL     1       4.349   3.238  11.296  0.00  0.00    +0.000 C 
ATOM     16  C   UNL     1       5.457   2.521  12.078  0.00  0.00    +0.000 C 
ATOM     17  C   UNL     1       6.249   1.599  11.139  0.00  0.00    +0.000 C 
ENDBRANCH  13  16
ENDBRANCH  12  13
ENDBRANCH  11  12
ENDBRANCH  10  11
ENDBRANCH   6  10
ENDBRANCH   1   7
BRANCH   4  18
ATOM     18  C   UNL     1       1.528   3.388  20.367  0.00  0.00    +0.000 C 
ATOM     19  C   UNL     1       0.483   2.835  19.376  0.00  0.00    +0.000 C 
ATOM     20  C   UNL     1       1.391   2.647  21.707  0.00  0.00    +0.000 C 
ATOM     21  C   UNL     1       1.156   4.864  20.674  0.00  0.00    +0.000 C 
ENDBRANCH   4  18
BRANCH   5  22
ATOM     22  C   UNL     1       2.776   4.956  17.820  0.00  0.00    +0.000 C 
ATOM     23  F   UNL     1       3.542   5.395  16.792  0.00  0.00    +0.000 F 
ATOM     24  F   UNL     1       1.719   4.346  17.222  0.00  0.00    +0.000 F 
ATOM     25  F   UNL     1       2.302   6.051  18.461  0.00  0.00    +0.000 F 
ENDBRANCH   5  22
TORSDOF 8
ENDMDL
MODEL 2
REMARK VINA RESULT:      -6.8      0.503      1.293
REMARK  Name = 
REMARK  14 active torsions:
REMARK  status: ('A' for Active; 'I' for Inactive)
REMARK    1  A    between atoms: C_1  and  C_2
REMARK    2  A    between atoms: C_2  and  C_3
REMARK    3  A    between atoms: C_2  and  N_4
REMARK    4  A    between atoms: N_4  and  C_5
REMARK    5  A    between atoms: N_4  and  C_6
REMARK    6  A    between atoms: C_6  and  C_7
REMARK    7  A    between atoms: C_7  and  C_8
REMARK    8  A    between atoms: C_8  and  N_9
REMARK    9  A    between atoms: C_10  and  C_12
REMARK   10  A    between atoms: N_15  and  C_16
REMARK   11  A    between atoms: C_16  and  C_17
REMARK   12  A    between atoms: C_16  and  C_18
REMARK   13  A    between atoms: C_16  and  C_19
REMARK   14  A    between atoms: C_20  and  C_21
REMARK                            x       y       z     vdW  Elec       q    Type
REMARK                         _______ _______ _______ _____ _____    ______ ____
ROOT
ATOM      1  C   UNL     1       4.834   3.634  18.778  0.00  0.00    +0.000 A 
ATOM      2  C   UNL     1       5.014   2.843  19.922  0.00  0.00    +0.000 A 
ATOM      3  N   UNL     1       3.860   2.525  20.503  0.00  0.00    +0.000 NA
ATOM      4  N   UNL     1       2.903   3.131  19.751  0.00  0.00    +0.000 N 
ATOM      5  C   UNL     1       3.454   3.743  18.640  0.00  0.00    +0.000 A 
ENDROOT
BRANCH   1   7
ATOM      6  N   UNL     1       6.059   3.638  16.726  0.00  0.00    +0.000 N 
ATOM      7  C   UNL     1       5.830   4.259  17.930  0.00  0.00    +0.000 C 
ATOM      8  O   UNL     1       6.425   5.272  18.284  0.00  0.00    +0.000 OA
ATOM      9  H   UNL     1       5.549   2.804  16.470  0.00  0.00    +0.000 HD
BRANCH   6  10
ATOM     10  C   UNL     1       6.985   4.200  15.763  0.00  0.00    +0.000 C 
BRANCH  10  11
ATOM     11  C   UNL     1       6.285   4.979  14.650  0.00  0.00    +0.000 C 
BRANCH  11  12
ATOM     12  C   UNL     1       5.589   4.074  13.626  0.00  0.00    +0.000 C 
BRANCH  12  13
ATOM     13  N   UNL     1       6.476   3.519  12.582  0.00  0.00    +0.000 NA
ATOM     14  C   UNL     1       7.404   4.564  12.135  0.00  0.00    +0.000 C 
BRANCH  13  16
ATOM     15  C   UNL     1       5.918   1.338  11.394  0.00  0.00    +0.000 C 
ATOM     16  C   UNL     1       5.745   2.860  11.472  0.00  0.00    +0.000 C 
ATOM     17  C   UNL     1       4.251   3.219  11.466  0.00  0.00    +0.000 C 
ENDBRANCH  13  16
ENDBRANCH  12  13
ENDBRANCH  11  12
ENDBRANCH  10  11
ENDBRANCH   6  10
ENDBRANCH   1   7
BRANCH   4  18
ATOM     18  C   UNL     1       1.530   3.163  20.319  0.00  0.00    +0.000 C 
ATOM     19  C   UNL     1       1.534   2.422  21.672  0.00  0.00    +0.000 C 
ATOM     20  C   UNL     1       0.954   4.575  20.522  0.00  0.00    +0.000 C 
ATOM     21  C   UNL     1       0.523   2.439  19.384  0.00  0.00    +0.000 C 
ENDBRANCH   4  18
BRANCH   5  22
ATOM     22  C   UNL     1       2.686   4.378  17.547  0.00  0.00    +0.000 C 
ATOM     23  F   UNL     1       2.833   3.771  16.345  0.00  0.00    +0.000 F 
ATOM     24  F   UNL     1       1.350   4.335  17.791  0.00  0.00    +0.000 F 
ATOM     25  F   UNL     1       3.025   5.679  17.381  0.00  0.00    +0.000 F 
ENDBRANCH   5  22
TORSDOF 8
ENDMDL
MODEL 3
REMARK VINA RESULT:      -6.7      4.555      6.222
REMARK  Name = 
REMARK  14 active torsions:
REMARK  status: ('A' for Active; 'I' for Inactive)
REMARK    1  A    between atoms: C_1  and  C_2
REMARK    2  A    between atoms: C_2  and  C_3
REMARK    3  A    between atoms: C_2  and  N_4
REMARK    4  A    between atoms: N_4  and  C_5
REMARK    5  A    between atoms: N_4  and  C_6
REMARK    6  A    between atoms: C_6  and  C_7
REMARK    7  A    between atoms: C_7  and  C_8
REMARK    8  A    between atoms: C_8  and  N_9
REMARK    9  A    between atoms: C_10  and  C_12
REMARK   10  A    between atoms: N_15  and  C_16
REMARK   11  A    between atoms: C_16  and  C_17
REMARK   12  A    between atoms: C_16  and  C_18
REMARK   13  A    between atoms: C_16  and  C_19
REMARK   14  A    between atoms: C_20  and  C_21
REMARK                            x       y       z     vdW  Elec       q    Type
REMARK                         _______ _______ _______ _____ _____    ______ ____
ROOT
ATOM      1  C   UNL     1       5.086   5.403  17.708  0.00  0.00    +0.000 A 
ATOM      2  C   UNL     1       5.431   4.068  17.965  0.00  0.00    +0.000 A 
ATOM      3  N   UNL     1       4.483   3.422  18.638  0.00  0.00    +0.000 NA
ATOM      4  N   UNL     1       3.506   4.344  18.853  0.00  0.00    +0.000 N 
ATOM      5  C   UNL     1       3.801   5.539  18.223  0.00  0.00    +0.000 A 
ENDROOT
BRANCH   1   7
ATOM      6  N   UNL     1       6.792   7.064  17.915  0.00  0.00    +0.000 N 
ATOM      7  C   UNL     1       5.877   6.451  17.093  0.00  0.00    +0.000 C 
ATOM      8  O   UNL     1       5.720   6.762  15.917  0.00  0.00    +0.000 OA
ATOM      9  H   UNL     1       6.891   6.781  18.879  0.00  0.00    +0.000 HD
BRANCH   6  10
ATOM     10  C   UNL     1       7.685   8.085  17.403  0.00  0.00    +0.000 C 
BRANCH  10  11
ATOM     11  C   UNL     1       8.581   8.686  18.485  0.00  0.00    +0.000 C 
BRANCH  11  12
ATOM     12  C   UNL     1       8.694  10.213  18.395  0.00  0.00    +0.000 C 
BRANCH  12  13
ATOM     13  N   UNL     1       9.779  10.805  19.205  0.00  0.00    +0.000 NA
ATOM     14  C   UNL     1       9.319  10.949  20.591  0.00  0.00    +0.000 C 
BRANCH  13  16
ATOM     15  C   UNL     1      11.698  11.906  17.946  0.00  0.00    +0.000 C 
ATOM     16  C   UNL     1      10.333  12.056  18.630  0.00  0.00    +0.000 C 
ATOM     17  C   UNL     1       9.343  12.748  17.681  0.00  0.00    +0.000 C 
ENDBRANCH  13  16
ENDBRANCH  12  13
ENDBRANCH  11  12
ENDBRANCH  10  11
ENDBRANCH   6  10
ENDBRANCH   1   7
BRANCH   4  18
ATOM     18  C   UNL     1       2.435   3.970  19.813  0.00  0.00    +0.000 C 
ATOM     19  C   UNL     1       1.147   3.659  19.023  0.00  0.00    +0.000 C 
ATOM     20  C   UNL     1       2.772   2.771  20.715  0.00  0.00    +0.000 C 
ATOM     21  C   UNL     1       2.124   5.140  20.785  0.00  0.00    +0.000 C 
ENDBRANCH   4  18
BRANCH   5  22
ATOM     22  C   UNL     1       2.897   6.707  18.142  0.00  0.00    +0.000 C 
ATOM     23  F   UNL     1       2.771   7.389  19.306  0.00  0.00    +0.000 F 
ATOM     24  F   UNL     1       3.358   7.628  17.256  0.00  0.00    +0.000 F 
ATOM     25  F   UNL     1       1.650   6.355  17.748  0.00  0.00    +0.000 F 
ENDBRANCH   5  22
TORSDOF 8
ENDMDL
MODEL 4
REMARK VINA RESULT:      -6.7      4.692      6.511
REMARK  Name = 
REMARK  14 active torsions:
REMARK  status: ('A' for Active; 'I' for Inactive)
REMARK    1  A    between atoms: C_1  and  C_2
REMARK    2  A    between atoms: C_2  and  C_3
REMARK    3  A    between atoms: C_2  and  N_4
REMARK    4  A    between atoms: N_4  and  C_5
REMARK    5  A    between atoms: N_4  and  C_6
REMARK    6  A    between atoms: C_6  and  C_7
REMARK    7  A    between atoms: C_7  and  C_8
REMARK    8  A    between atoms: C_8  and  N_9
REMARK    9  A    between atoms: C_10  and  C_12
REMARK   10  A    between atoms: N_15  and  C_16
REMARK   11  A    between atoms: C_16  and  C_17
REMARK   12  A    between atoms: C_16  and  C_18
REMARK   13  A    between atoms: C_16  and  C_19
REMARK   14  A    between atoms: C_20  and  C_21
REMARK                            x       y       z     vdW  Elec       q    Type
REMARK                         _______ _______ _______ _____ _____    ______ ____
ROOT
ATOM      1  C   UNL     1       5.230   5.496  17.754  0.00  0.00    +0.000 A 
ATOM      2  C   UNL     1       5.599   4.178  18.055  0.00  0.00    +0.000 A 
ATOM      3  N   UNL     1       4.646   3.524  18.713  0.00  0.00    +0.000 NA
ATOM      4  N   UNL     1       3.640   4.425  18.873  0.00  0.00    +0.000 N 
ATOM      5  C   UNL     1       3.925   5.612  18.223  0.00  0.00    +0.000 A 
ENDROOT
BRANCH   1   7
ATOM      6  N   UNL     1       6.937   7.156  17.955  0.00  0.00    +0.000 N 
ATOM      7  C   UNL     1       6.014   6.550  17.139  0.00  0.00    +0.000 C 
ATOM      8  O   UNL     1       5.844   6.870  15.967  0.00  0.00    +0.000 OA
ATOM      9  H   UNL     1       7.048   6.866  18.916  0.00  0.00    +0.000 HD
BRANCH   6  10
ATOM     10  C   UNL     1       7.825   8.181  17.442  0.00  0.00    +0.000 C 
BRANCH  10  11
ATOM     11  C   UNL     1       8.447   9.035  18.546  0.00  0.00    +0.000 C 
BRANCH  11  12
ATOM     12  C   UNL     1       9.077  10.332  18.024  0.00  0.00    +0.000 C 
BRANCH  12  13
ATOM     13  N   UNL     1       9.029  11.470  18.965  0.00  0.00    +0.000 NA
ATOM     14  C   UNL     1       9.345  12.706  18.240  0.00  0.00    +0.000 C 
BRANCH  13  16
ATOM     15  C   UNL     1      11.266  11.861  20.116  0.00  0.00    +0.000 C 
ATOM     16  C   UNL     1       9.852  11.268  20.183  0.00  0.00    +0.000 C 
ATOM     17  C   UNL     1       9.138  11.755  21.453  0.00  0.00    +0.000 C 
ENDBRANCH  13  16
ENDBRANCH  12  13
ENDBRANCH  11  12
ENDBRANCH  10  11
ENDBRANCH   6  10
ENDBRANCH   1   7
BRANCH   4  18
ATOM     18  C   UNL     1       2.547   4.047  19.806  0.00  0.00    +0.000 C 
ATOM     19  C   UNL     1       2.994   2.817  20.623  0.00  0.00    +0.000 C 
ATOM     20  C   UNL     1       2.116   5.162  20.774  0.00  0.00    +0.000 C 
ATOM     21  C   UNL     1       1.260   3.657  19.029  0.00  0.00    +0.000 C 
ENDBRANCH   4  18
BRANCH   5  22
ATOM     22  C   UNL     1       2.995   6.753  18.083  0.00  0.00    +0.000 C 
ATOM     23  F   UNL     1       2.816   7.462  19.224  0.00  0.00    +0.000 F 
ATOM     24  F   UNL     1       3.460   7.663  17.186  0.00  0.00    +0.000 F 
ATOM     25  F   UNL     1       1.770   6.359  17.660  0.00  0.00    +0.000 F 
ENDBRANCH   5  22
TORSDOF 8
ENDMDL
MODEL 5
REMARK VINA RESULT:      -6.6      4.809      6.519
REMARK  Name = 
REMARK  14 active torsions:
REMARK  status: ('A' for Active; 'I' for Inactive)
REMARK    1  A    between atoms: C_1  and  C_2
REMARK    2  A    between atoms: C_2  and  C_3
REMARK    3  A    between atoms: C_2  and  N_4
REMARK    4  A    between atoms: N_4  and  C_5
REMARK    5  A    between atoms: N_4  and  C_6
REMARK    6  A    between atoms: C_6  and  C_7
REMARK    7  A    between atoms: C_7  and  C_8
REMARK    8  A    between atoms: C_8  and  N_9
REMARK    9  A    between atoms: C_10  and  C_12
REMARK   10  A    between atoms: N_15  and  C_16
REMARK   11  A    between atoms: C_16  and  C_17
REMARK   12  A    between atoms: C_16  and  C_18
REMARK   13  A    between atoms: C_16  and  C_19
REMARK   14  A    between atoms: C_20  and  C_21
REMARK                            x       y       z     vdW  Elec       q    Type
REMARK                         _______ _______ _______ _____ _____    ______ ____
ROOT
ATOM      1  C   UNL     1       5.321   5.538  17.821  0.00  0.00    +0.000 A 
ATOM      2  C   UNL     1       5.727   4.245  18.184  0.00  0.00    +0.000 A 
ATOM      3  N   UNL     1       4.776   3.580  18.833  0.00  0.00    +0.000 NA
ATOM      4  N   UNL     1       3.733   4.449  18.925  0.00  0.00    +0.000 N 
ATOM      5  C   UNL     1       3.998   5.621  18.241  0.00  0.00    +0.000 A 
ENDROOT
BRANCH   1   7
ATOM      6  N   UNL     1       6.952   7.274  18.020  0.00  0.00    +0.000 N 
ATOM      7  C   UNL     1       6.088   6.597  17.194  0.00  0.00    +0.000 C 
ATOM      8  O   UNL     1       5.954   6.862  16.004  0.00  0.00    +0.000 OA
ATOM      9  H   UNL     1       7.034   7.027  18.996  0.00  0.00    +0.000 HD
BRANCH   6  10
ATOM     10  C   UNL     1       7.819   8.312  17.500  0.00  0.00    +0.000 C 
BRANCH  10  11
ATOM     11  C   UNL     1       8.537   9.093  18.600  0.00  0.00    +0.000 C 
BRANCH  11  12
ATOM     12  C   UNL     1       9.090  10.440  18.121  0.00  0.00    +0.000 C 
BRANCH  12  13
ATOM     13  N   UNL     1       9.956  11.138  19.094  0.00  0.00    +0.000 NA
ATOM     14  C   UNL     1       9.479  10.853  20.452  0.00  0.00    +0.000 C 
BRANCH  13  16
ATOM     15  C   UNL     1       9.036  13.197  17.912  0.00  0.00    +0.000 C 
ATOM     16  C   UNL     1      10.117  12.586  18.814  0.00  0.00    +0.000 C 
ATOM     17  C   UNL     1      10.257  13.415  20.100  0.00  0.00    +0.000 C 
ENDBRANCH  13  16
ENDBRANCH  12  13
ENDBRANCH  11  12
ENDBRANCH  10  11
ENDBRANCH   6  10
ENDBRANCH   1   7
BRANCH   4  18
ATOM     18  C   UNL     1       2.623   4.064  19.835  0.00  0.00    +0.000 C 
ATOM     19  C   UNL     1       3.049   2.819  20.641  0.00  0.00    +0.000 C 
ATOM     20  C   UNL     1       2.183   5.167  20.812  0.00  0.00    +0.000 C 
ATOM     21  C   UNL     1       1.347   3.694  19.031  0.00  0.00    +0.000 C 
ENDBRANCH   4  18
BRANCH   5  22
ATOM     22  C   UNL     1       3.033   6.721  18.028  0.00  0.00    +0.000 C 
ATOM     23  F   UNL     1       1.793   6.306  17.672  0.00  0.00    +0.000 F 
ATOM     24  F   UNL     1       2.839   7.437  19.166  0.00  0.00    +0.000 F 
ATOM     25  F   UNL     1       3.454   7.585  17.073  0.00  0.00    +0.000 F 
ENDBRANCH   5  22
TORSDOF 8
ENDMDL
MODEL 6
REMARK VINA RESULT:      -6.6      4.043      5.913
REMARK  Name = 
REMARK  14 active torsions:
REMARK  status: ('A' for Active; 'I' for Inactive)
REMARK    1  A    between atoms: C_1  and  C_2
REMARK    2  A    between atoms: C_2  and  C_3
REMARK    3  A    between atoms: C_2  and  N_4
REMARK    4  A    between atoms: N_4  and  C_5
REMARK    5  A    between atoms: N_4  and  C_6
REMARK    6  A    between atoms: C_6  and  C_7
REMARK    7  A    between atoms: C_7  and  C_8
REMARK    8  A    between atoms: C_8  and  N_9
REMARK    9  A    between atoms: C_10  and  C_12
REMARK   10  A    between atoms: N_15  and  C_16
REMARK   11  A    between atoms: C_16  and  C_17
REMARK   12  A    between atoms: C_16  and  C_18
REMARK   13  A    between atoms: C_16  and  C_19
REMARK   14  A    between atoms: C_20  and  C_21
REMARK                            x       y       z     vdW  Elec       q    Type
REMARK                         _______ _______ _______ _____ _____    ______ ____
ROOT
ATOM      1  C   UNL     1       2.353   7.654  18.823  0.00  0.00    +0.000 A 
ATOM      2  C   UNL     1       2.598   8.529  17.755  0.00  0.00    +0.000 A 
ATOM      3  N   UNL     1       2.018   9.714  17.931  0.00  0.00    +0.000 NA
ATOM      4  N   UNL     1       1.361   9.617  19.117  0.00  0.00    +0.000 N 
ATOM      5  C   UNL     1       1.616   8.405  19.732  0.00  0.00    +0.000 A 
ENDROOT
BRANCH   1   7
ATOM      6  N   UNL     1       2.032   5.376  18.175  0.00  0.00    +0.000 N 
ATOM      7  C   UNL     1       2.723   6.259  18.968  0.00  0.00    +0.000 C 
ATOM      8  O   UNL     1       3.595   5.909  19.757  0.00  0.00    +0.000 OA
ATOM      9  H   UNL     1       1.319   5.702  17.538  0.00  0.00    +0.000 HD
BRANCH   6  10
ATOM     10  C   UNL     1       2.351   3.962  18.182  0.00  0.00    +0.000 C 
BRANCH  10  11
ATOM     11  C   UNL     1       3.137   3.525  16.946  0.00  0.00    +0.000 C 
BRANCH  11  12
ATOM     12  C   UNL     1       4.653   3.701  17.102  0.00  0.00    +0.000 C 
BRANCH  12  13
ATOM     13  N   UNL     1       5.164   5.040  16.742  0.00  0.00    +0.000 NA
ATOM     14  C   UNL     1       5.486   5.062  15.311  0.00  0.00    +0.000 C 
BRANCH  13  16
ATOM     15  C   UNL     1       7.533   4.624  17.576  0.00  0.00    +0.000 C 
ATOM     16  C   UNL     1       6.276   5.503  17.609  0.00  0.00    +0.000 C 
ATOM     17  C   UNL     1       6.652   6.967  17.337  0.00  0.00    +0.000 C 
ENDBRANCH  13  16
ENDBRANCH  12  13
ENDBRANCH  11  12
ENDBRANCH  10  11
ENDBRANCH   6  10
ENDBRANCH   1   7
BRANCH   4  18
ATOM     18  C   UNL     1       0.407  10.709  19.442  0.00  0.00    +0.000 C 
ATOM     19  C   UNL     1      -1.024  10.231  19.122  0.00  0.00    +0.000 C 
ATOM     20  C   UNL     1       0.459  11.193  20.901  0.00  0.00    +0.000 C 
ATOM     21  C   UNL     1       0.689  11.971  18.581  0.00  0.00    +0.000 C 
ENDBRANCH   4  18
BRANCH   5  22
ATOM     22  C   UNL     1       1.168   8.026  21.090  0.00  0.00    +0.000 C 
ATOM     23  F   UNL     1      -0.165   8.166  21.290  0.00  0.00    +0.000 F 
ATOM     24  F   UNL     1       1.414   6.713  21.343  0.00  0.00    +0.000 F 
ATOM     25  F   UNL     1       1.795   8.747  22.050  0.00  0.00    +0.000 F 
ENDBRANCH   5  22
TORSDOF 8
ENDMDL
MODEL 7
REMARK VINA RESULT:      -6.5      4.330      5.941
REMARK  Name = 
REMARK  14 active torsions:
REMARK  status: ('A' for Active; 'I' for Inactive)
REMARK    1  A    between atoms: C_1  and  C_2
REMARK    2  A    between atoms: C_2  and  C_3
REMARK    3  A    between atoms: C_2  and  N_4
REMARK    4  A    between atoms: N_4  and  C_5
REMARK    5  A    between atoms: N_4  and  C_6
REMARK    6  A    between atoms: C_6  and  C_7
REMARK    7  A    between atoms: C_7  and  C_8
REMARK    8  A    between atoms: C_8  and  N_9
REMARK    9  A    between atoms: C_10  and  C_12
REMARK   10  A    between atoms: N_15  and  C_16
REMARK   11  A    between atoms: C_16  and  C_17
REMARK   12  A    between atoms: C_16  and  C_18
REMARK   13  A    between atoms: C_16  and  C_19
REMARK   14  A    between atoms: C_20  and  C_21
REMARK                            x       y       z     vdW  Elec       q    Type
REMARK                         _______ _______ _______ _____ _____    ______ ____
ROOT
ATOM      1  C   UNL     1       4.906   5.087  16.965  0.00  0.00    +0.000 A 
ATOM      2  C   UNL     1       5.055   3.719  16.693  0.00  0.00    +0.000 A 
ATOM      3  N   UNL     1       4.157   2.976  17.334  0.00  0.00    +0.000 NA
ATOM      4  N   UNL     1       3.416   3.857  18.059  0.00  0.00    +0.000 N 
ATOM      5  C   UNL     1       3.788   5.161  17.790  0.00  0.00    +0.000 A 
ENDROOT
BRANCH   1   7
ATOM      6  N   UNL     1       6.792   6.498  17.366  0.00  0.00    +0.000 N 
ATOM      7  C   UNL     1       5.733   6.201  16.544  0.00  0.00    +0.000 C 
ATOM      8  O   UNL     1       5.484   6.830  15.521  0.00  0.00    +0.000 OA
ATOM      9  H   UNL     1       6.966   5.957  18.202  0.00  0.00    +0.000 HD
BRANCH   6  10
ATOM     10  C   UNL     1       7.730   7.549  17.023  0.00  0.00    +0.000 C 
BRANCH  10  11
ATOM     11  C   UNL     1       8.056   8.462  18.204  0.00  0.00    +0.000 C 
BRANCH  11  12
ATOM     12  C   UNL     1       8.180   9.939  17.809  0.00  0.00    +0.000 C 
BRANCH  12  13
ATOM     13  N   UNL     1       9.322  10.652  18.417  0.00  0.00    +0.000 NA
ATOM     14  C   UNL     1       9.381  10.331  19.848  0.00  0.00    +0.000 C 
BRANCH  13  16
ATOM     15  C   UNL     1      10.602  12.629  17.451  0.00  0.00    +0.000 C 
ATOM     16  C   UNL     1       9.331  12.108  18.135  0.00  0.00    +0.000 C 
ATOM     17  C   UNL     1       8.090  12.554  17.346  0.00  0.00    +0.000 C 
ENDBRANCH  13  16
ENDBRANCH  12  13
ENDBRANCH  11  12
ENDBRANCH  10  11
ENDBRANCH   6  10
ENDBRANCH   1   7
BRANCH   4  18
ATOM     18  C   UNL     1       2.502   3.279  19.078  0.00  0.00    +0.000 C 
ATOM     19  C   UNL     1       2.765   1.762  19.179  0.00  0.00    +0.000 C 
ATOM     20  C   UNL     1       2.626   3.904  20.478  0.00  0.00    +0.000 C 
ATOM     21  C   UNL     1       1.017   3.476  18.670  0.00  0.00    +0.000 C 
ENDBRANCH   4  18
BRANCH   5  22
ATOM     22  C   UNL     1       3.103   6.367  18.304  0.00  0.00    +0.000 C 
ATOM     23  F   UNL     1       3.539   7.526  17.753  0.00  0.00    +0.000 F 
ATOM     24  F   UNL     1       1.773   6.337  18.026  0.00  0.00    +0.000 F 
ATOM     25  F   UNL     1       3.233   6.489  19.647  0.00  0.00    +0.000 F 
ENDBRANCH   5  22
TORSDOF 8
ENDMDL
MODEL 8
REMARK VINA RESULT:      -6.5      3.704      6.416
REMARK  Name = 
REMARK  14 active torsions:
REMARK  status: ('A' for Active; 'I' for Inactive)
REMARK    1  A    between atoms: C_1  and  C_2
REMARK    2  A    between atoms: C_2  and  C_3
REMARK    3  A    between atoms: C_2  and  N_4
REMARK    4  A    between atoms: N_4  and  C_5
REMARK    5  A    between atoms: N_4  and  C_6
REMARK    6  A    between atoms: C_6  and  C_7
REMARK    7  A    between atoms: C_7  and  C_8
REMARK    8  A    between atoms: C_8  and  N_9
REMARK    9  A    between atoms: C_10  and  C_12
REMARK   10  A    between atoms: N_15  and  C_16
REMARK   11  A    between atoms: C_16  and  C_17
REMARK   12  A    between atoms: C_16  and  C_18
REMARK   13  A    between atoms: C_16  and  C_19
REMARK   14  A    between atoms: C_20  and  C_21
REMARK                            x       y       z     vdW  Elec       q    Type
REMARK                         _______ _______ _______ _____ _____    ______ ____
ROOT
ATOM      1  C   UNL     1       2.178   7.153  19.712  0.00  0.00    +0.000 A 
ATOM      2  C   UNL     1       1.599   6.993  20.979  0.00  0.00    +0.000 A 
ATOM      3  N   UNL     1       0.844   8.032  21.325  0.00  0.00    +0.000 NA
ATOM      4  N   UNL     1       0.941   8.905  20.286  0.00  0.00    +0.000 N 
ATOM      5  C   UNL     1       1.674   8.363  19.247  0.00  0.00    +0.000 A 
ENDROOT
BRANCH   1   7
ATOM      6  N   UNL     1       2.589   5.419  18.121  0.00  0.00    +0.000 N 
ATOM      7  C   UNL     1       3.128   6.301  19.025  0.00  0.00    +0.000 C 
ATOM      8  O   UNL     1       4.332   6.372  19.254  0.00  0.00    +0.000 OA
ATOM      9  H   UNL     1       1.592   5.388  17.959  0.00  0.00    +0.000 HD
BRANCH   6  10
ATOM     10  C   UNL     1       3.439   4.556  17.324  0.00  0.00    +0.000 C 
BRANCH  10  11
ATOM     11  C   UNL     1       2.786   3.214  16.999  0.00  0.00    +0.000 C 
BRANCH  11  12
ATOM     12  C   UNL     1       2.869   2.207  18.152  0.00  0.00    +0.000 C 
BRANCH  12  13
ATOM     13  N   UNL     1       3.122   2.802  19.481  0.00  0.00    +0.000 NA
ATOM     14  C   UNL     1       4.399   2.297  19.998  0.00  0.00    +0.000 C 
BRANCH  13  16
ATOM     15  C   UNL     1       2.173   3.342  21.781  0.00  0.00    +0.000 C 
ATOM     16  C   UNL     1       1.992   2.640  20.429  0.00  0.00    +0.000 C 
ATOM     17  C   UNL     1       0.648   3.043  19.804  0.00  0.00    +0.000 C 
ENDBRANCH  13  16
ENDBRANCH  12  13
ENDBRANCH  11  12
ENDBRANCH  10  11
ENDBRANCH   6  10
ENDBRANCH   1   7
BRANCH   4  18
ATOM     18  C   UNL     1       0.406  10.273  20.512  0.00  0.00    +0.000 C 
ATOM     19  C   UNL     1      -0.153  10.357  21.947  0.00  0.00    +0.000 C 
ATOM     20  C   UNL     1       1.429  11.402  20.306  0.00  0.00    +0.000 C 
ATOM     21  C   UNL     1      -0.755  10.586  19.531  0.00  0.00    +0.000 C 
ENDBRANCH   4  18
BRANCH   5  22
ATOM     22  C   UNL     1       1.863   8.988  17.919  0.00  0.00    +0.000 C 
ATOM     23  F   UNL     1       2.436  10.215  17.963  0.00  0.00    +0.000 F 
ATOM     24  F   UNL     1       2.696   8.250  17.140  0.00  0.00    +0.000 F 
ATOM     25  F   UNL     1       0.692   9.118  17.250  0.00  0.00    +0.000 F 
ENDBRANCH   5  22
TORSDOF 8
ENDMDL
MODEL 9
REMARK VINA RESULT:      -6.5      4.287      6.241
REMARK  Name = 
REMARK  14 active torsions:
REMARK  status: ('A' for Active; 'I' for Inactive)
REMARK    1  A    between atoms: C_1  and  C_2
REMARK    2  A    between atoms: C_2  and  C_3
REMARK    3  A    between atoms: C_2  and  N_4
REMARK    4  A    between atoms: N_4  and  C_5
REMARK    5  A    between atoms: N_4  and  C_6
REMARK    6  A    between atoms: C_6  and  C_7
REMARK    7  A    between atoms: C_7  and  C_8
REMARK    8  A    between atoms: C_8  and  N_9
REMARK    9  A    between atoms: C_10  and  C_12
REMARK   10  A    between atoms: N_15  and  C_16
REMARK   11  A    between atoms: C_16  and  C_17
REMARK   12  A    between atoms: C_16  and  C_18
REMARK   13  A    between atoms: C_16  and  C_19
REMARK   14  A    between atoms: C_20  and  C_21
REMARK                            x       y       z     vdW  Elec       q    Type
REMARK                         _______ _______ _______ _____ _____    ______ ____
ROOT
ATOM      1  C   UNL     1       2.206   7.873  18.670  0.00  0.00    +0.000 A 
ATOM      2  C   UNL     1       2.470   8.835  17.684  0.00  0.00    +0.000 A 
ATOM      3  N   UNL     1       1.934  10.017  17.975  0.00  0.00    +0.000 NA
ATOM      4  N   UNL     1       1.286   9.834  19.157  0.00  0.00    +0.000 N 
ATOM      5  C   UNL     1       1.505   8.562  19.654  0.00  0.00    +0.000 A 
ENDROOT
BRANCH   1   7
ATOM      6  N   UNL     1       3.578   6.096  19.489  0.00  0.00    +0.000 N 
ATOM      7  C   UNL     1       2.529   6.459  18.680  0.00  0.00    +0.000 C 
ATOM      8  O   UNL     1       1.900   5.656  17.999  0.00  0.00    +0.000 OA
ATOM      9  H   UNL     1       4.073   6.787  20.035  0.00  0.00    +0.000 HD
BRANCH   6  10
ATOM     10  C   UNL     1       3.959   4.705  19.635  0.00  0.00    +0.000 C 
BRANCH  10  11
ATOM     11  C   UNL     1       5.466   4.486  19.519  0.00  0.00    +0.000 C 
BRANCH  11  12
ATOM     12  C   UNL     1       5.970   4.513  18.071  0.00  0.00    +0.000 C 
BRANCH  12  13
ATOM     13  N   UNL     1       7.203   5.298  17.855  0.00  0.00    +0.000 NA
ATOM     14  C   UNL     1       7.769   5.671  19.157  0.00  0.00    +0.000 C 
BRANCH  13  16
ATOM     15  C   UNL     1       5.578   6.691  16.476  0.00  0.00    +0.000 C 
ATOM     16  C   UNL     1       7.022   6.449  16.936  0.00  0.00    +0.000 C 
ATOM     17  C   UNL     1       7.616   7.746  17.505  0.00  0.00    +0.000 C 
ENDBRANCH  13  16
ENDBRANCH  12  13
ENDBRANCH  11  12
ENDBRANCH  10  11
ENDBRANCH   6  10
ENDBRANCH   1   7
BRANCH   4  18
ATOM     18  C   UNL     1       0.374  10.923  19.594  0.00  0.00    +0.000 C 
ATOM     19  C   UNL     1      -1.083  10.479  19.351  0.00  0.00    +0.000 C 
ATOM     20  C   UNL     1       0.533  11.339  21.066  0.00  0.00    +0.000 C 
ATOM     21  C   UNL     1       0.619  12.217  18.772  0.00  0.00    +0.000 C 
ENDBRANCH   4  18
BRANCH   5  22
ATOM     22  C   UNL     1       1.059   8.074  20.977  0.00  0.00    +0.000 C 
ATOM     23  F   UNL     1      -0.258   8.278  21.224  0.00  0.00    +0.000 F 
ATOM     24  F   UNL     1       1.222   6.730  21.089  0.00  0.00    +0.000 F 
ATOM     25  F   UNL     1       1.749   8.652  21.989  0.00  0.00    +0.000 F 
ENDBRANCH   5  22
TORSDOF 8
ENDMDL
