MODEL 1
REMARK VINA RESULT:      -6.5      0.000      0.000
REMARK  Name = 
REMARK  6 active torsions:
REMARK  status: ('A' for Active; 'I' for Inactive)
REMARK    1  A    between atoms: C_1  and  C_2
REMARK    2  A    between atoms: N_4  and  C_5
REMARK    3  A    between atoms: C_5  and  C_6
REMARK    4  A    between atoms: C_6  and  O_7
REMARK    5  A    between atoms: O_7  and  C_8
REMARK    6  A    between atoms: N_10  and  C_11
REMARK                            x       y       z     vdW  Elec       q    Type
REMARK                         _______ _______ _______ _____ _____    ______ ____
ROOT
ATOM      1  C   UNL     1       5.174   4.972  19.158  0.00  0.00    +0.000 C 
ATOM      2  O   UNL     1       4.607   5.898  18.599  0.00  0.00    +0.000 OA
ATOM      3  N   UNL     1       4.628   3.807  19.617  0.00  0.00    +0.000 N 
ATOM      4  H   UNL     1       5.245   3.301  20.237  0.00  0.00    +0.000 HD
ENDROOT
BRANCH   3   5
ATOM      5  C   UNL     1       3.265   3.472  19.606  0.00  0.00    +0.000 A 
ATOM      6  C   UNL     1       2.383   3.861  20.609  0.00  0.00    +0.000 A 
ATOM      7  C   UNL     1       1.061   3.465  20.506  0.00  0.00    +0.000 A 
ATOM      8  N   UNL     1       0.579   2.710  19.496  0.00  0.00    +0.000 NA
ATOM      9  C   UNL     1       1.457   2.342  18.541  0.00  0.00    +0.000 A 
ATOM     10  C   UNL     1       2.792   2.706  18.542  0.00  0.00    +0.000 A 
ENDBRANCH   3   5
BRANCH   1  11
ATOM     11  O   UNL     1       6.449   5.035  19.623  0.00  0.00    +0.000 OA
BRANCH  11  12
ATOM     12  C   UNL     1       7.359   5.639  18.690  0.00  0.00    +0.000 C 
BRANCH  12  13
ATOM     13  C   UNL     1       7.813   4.548  17.712  0.00  0.00    +0.000 C 
BRANCH  13  17
ATOM     14  C   UNL     1       5.680   4.243  14.624  0.00  0.00    +0.000 C 
ATOM     15  C   UNL     1       6.852   4.681  15.457  0.00  0.00    +0.000 C 
ATOM     16  O   UNL     1       7.733   5.418  15.036  0.00  0.00    +0.000 OA
ATOM     17  N   UNL     1       6.821   4.176  16.738  0.00  0.00    +0.000 N 
ATOM     18  H   UNL     1       6.068   3.559  17.018  0.00  0.00    +0.000 HD
ENDBRANCH  13  17
ENDBRANCH  12  13
ENDBRANCH  11  12
ENDBRANCH   1  11
TORSDOF 5
ENDMDL
MODEL 2
REMARK VINA RESULT:      -6.4      0.910      1.448
REMARK  Name = 
REMARK  6 active torsions:
REMARK  status: ('A' for Active; 'I' for Inactive)
REMARK    1  A    between atoms: C_1  and  C_2
REMARK    2  A    between atoms: N_4  and  C_5
REMARK    3  A    between atoms: C_5  and  C_6
REMARK    4  A    between atoms: C_6  and  O_7
REMARK    5  A    between atoms: O_7  and  C_8
REMARK    6  A    between atoms: N_10  and  C_11
REMARK                            x       y       z     vdW  Elec       q    Type
REMARK                         _______ _______ _______ _____ _____    ______ ____
ROOT
ATOM      1  C   UNL     1       5.219   5.011  19.200  0.00  0.00    +0.000 C 
ATOM      2  O   UNL     1       4.562   5.933  18.744  0.00  0.00    +0.000 OA
ATOM      3  N   UNL     1       4.788   3.761  19.545  0.00  0.00    +0.000 N 
ATOM      4  H   UNL     1       5.459   3.253  20.103  0.00  0.00    +0.000 HD
ENDROOT
BRANCH   3   5
ATOM      5  C   UNL     1       3.460   3.308  19.516  0.00  0.00    +0.000 A 
ATOM      6  C   UNL     1       2.815   2.931  18.342  0.00  0.00    +0.000 A 
ATOM      7  C   UNL     1       1.499   2.511  18.426  0.00  0.00    +0.000 A 
ATOM      8  N   UNL     1       0.799   2.458  19.579  0.00  0.00    +0.000 NA
ATOM      9  C   UNL     1       1.446   2.835  20.700  0.00  0.00    +0.000 A 
ATOM     10  C   UNL     1       2.767   3.249  20.723  0.00  0.00    +0.000 A 
ENDBRANCH   3   5
BRANCH   1  11
ATOM     11  O   UNL     1       6.493   5.141  19.655  0.00  0.00    +0.000 OA
BRANCH  11  12
ATOM     12  C   UNL     1       7.393   5.667  18.666  0.00  0.00    +0.000 C 
BRANCH  12  13
ATOM     13  C   UNL     1       7.795   4.512  17.741  0.00  0.00    +0.000 C 
BRANCH  13  17
ATOM     14  C   UNL     1       6.408   4.554  14.241  0.00  0.00    +0.000 C 
ATOM     15  C   UNL     1       6.432   4.264  15.715  0.00  0.00    +0.000 C 
ATOM     16  O   UNL     1       5.547   3.641  16.288  0.00  0.00    +0.000 OA
ATOM     17  N   UNL     1       7.552   4.760  16.344  0.00  0.00    +0.000 N 
ATOM     18  H   UNL     1       8.240   5.278  15.813  0.00  0.00    +0.000 HD
ENDBRANCH  13  17
ENDBRANCH  12  13
ENDBRANCH  11  12
ENDBRANCH   1  11
TORSDOF 5
ENDMDL
MODEL 3
REMARK VINA RESULT:      -6.4      1.724      2.620
REMARK  Name = 
REMARK  6 active torsions:
REMARK  status: ('A' for Active; 'I' for Inactive)
REMARK    1  A    between atoms: C_1  and  C_2
REMARK    2  A    between atoms: N_4  and  C_5
REMARK    3  A    between atoms: C_5  and  C_6
REMARK    4  A    between atoms: C_6  and  O_7
REMARK    5  A    between atoms: O_7  and  C_8
REMARK    6  A    between atoms: N_10  and  C_11
REMARK                            x       y       z     vdW  Elec       q    Type
REMARK                         _______ _______ _______ _____ _____    ______ ____
ROOT
ATOM      1  C   UNL     1       4.243   4.017  17.308  0.00  0.00    +0.000 C 
ATOM      2  O   UNL     1       4.136   5.190  17.628  0.00  0.00    +0.000 OA
ATOM      3  N   UNL     1       3.655   2.930  17.889  0.00  0.00    +0.000 N 
ATOM      4  H   UNL     1       4.067   2.055  17.595  0.00  0.00    +0.000 HD
ENDROOT
BRANCH   3   5
ATOM      5  C   UNL     1       2.858   2.940  19.044  0.00  0.00    +0.000 A 
ATOM      6  C   UNL     1       3.368   2.713  20.318  0.00  0.00    +0.000 A 
ATOM      7  C   UNL     1       2.490   2.733  21.387  0.00  0.00    +0.000 A 
ATOM      8  N   UNL     1       1.162   2.947  21.265  0.00  0.00    +0.000 NA
ATOM      9  C   UNL     1       0.694   3.159  20.019  0.00  0.00    +0.000 A 
ATOM     10  C   UNL     1       1.494   3.180  18.890  0.00  0.00    +0.000 A 
ENDBRANCH   3   5
BRANCH   1  11
ATOM     11  O   UNL     1       5.162   3.556  16.419  0.00  0.00    +0.000 OA
BRANCH  11  12
ATOM     12  C   UNL     1       5.472   4.505  15.386  0.00  0.00    +0.000 C 
BRANCH  12  13
ATOM     13  C   UNL     1       6.968   4.826  15.482  0.00  0.00    +0.000 C 
BRANCH  13  17
ATOM     14  C   UNL     1       7.680   7.830  17.638  0.00  0.00    +0.000 C 
ATOM     15  C   UNL     1       7.485   6.376  17.315  0.00  0.00    +0.000 C 
ATOM     16  O   UNL     1       7.515   5.493  18.161  0.00  0.00    +0.000 OA
ATOM     17  N   UNL     1       7.260   6.147  15.976  0.00  0.00    +0.000 N 
ATOM     18  H   UNL     1       7.261   6.922  15.325  0.00  0.00    +0.000 HD
ENDBRANCH  13  17
ENDBRANCH  12  13
ENDBRANCH  11  12
ENDBRANCH   1  11
TORSDOF 5
ENDMDL
MODEL 4
REMARK VINA RESULT:      -6.3      1.733      2.685
REMARK  Name = 
REMARK  6 active torsions:
REMARK  status: ('A' for Active; 'I' for Inactive)
REMARK    1  A    between atoms: C_1  and  C_2
REMARK    2  A    between atoms: N_4  and  C_5
REMARK    3  A    between atoms: C_5  and  C_6
REMARK    4  A    between atoms: C_6  and  O_7
REMARK    5  A    between atoms: O_7  and  C_8
REMARK    6  A    between atoms: N_10  and  C_11
REMARK                            x       y       z     vdW  Elec       q    Type
REMARK                         _______ _______ _______ _____ _____    ______ ____
ROOT
ATOM      1  C   UNL     1       4.249   3.916  17.057  0.00  0.00    +0.000 C 
ATOM      2  O   UNL     1       3.883   5.078  17.147  0.00  0.00    +0.000 OA
ATOM      3  N   UNL     1       3.828   2.843  17.790  0.00  0.00    +0.000 N 
ATOM      4  H   UNL     1       4.430   2.038  17.689  0.00  0.00    +0.000 HD
ENDROOT
BRANCH   3   5
ATOM      5  C   UNL     1       2.930   2.879  18.868  0.00  0.00    +0.000 A 
ATOM      6  C   UNL     1       1.561   3.061  18.706  0.00  0.00    +0.000 A 
ATOM      7  C   UNL     1       0.767   3.093  19.839  0.00  0.00    +0.000 A 
ATOM      8  N   UNL     1       1.246   2.972  21.095  0.00  0.00    +0.000 NA
ATOM      9  C   UNL     1       2.577   2.803  21.224  0.00  0.00    +0.000 A 
ATOM     10  C   UNL     1       3.451   2.735  20.152  0.00  0.00    +0.000 A 
ENDBRANCH   3   5
BRANCH   1  11
ATOM     11  O   UNL     1       5.326   3.516  16.331  0.00  0.00    +0.000 OA
BRANCH  11  12
ATOM     12  C   UNL     1       5.549   4.324  15.164  0.00  0.00    +0.000 C 
BRANCH  12  13
ATOM     13  C   UNL     1       6.946   4.945  15.289  0.00  0.00    +0.000 C 
BRANCH  13  17
ATOM     14  C   UNL     1       7.858   6.358  18.658  0.00  0.00    +0.000 C 
ATOM     15  C   UNL     1       7.248   6.342  17.285  0.00  0.00    +0.000 C 
ATOM     16  O   UNL     1       6.692   7.313  16.789  0.00  0.00    +0.000 OA
ATOM     17  N   UNL     1       7.392   5.131  16.645  0.00  0.00    +0.000 N 
ATOM     18  H   UNL     1       7.851   4.363  17.118  0.00  0.00    +0.000 HD
ENDBRANCH  13  17
ENDBRANCH  12  13
ENDBRANCH  11  12
ENDBRANCH   1  11
TORSDOF 5
ENDMDL
MODEL 5
REMARK VINA RESULT:      -6.2      2.427      5.840
REMARK  Name = 
REMARK  6 active torsions:
REMARK  status: ('A' for Active; 'I' for Inactive)
REMARK    1  A    between atoms: C_1  and  C_2
REMARK    2  A    between atoms: N_4  and  C_5
REMARK    3  A    between atoms: C_5  and  C_6
REMARK    4  A    between atoms: C_6  and  O_7
REMARK    5  A    between atoms: O_7  and  C_8
REMARK    6  A    between atoms: N_10  and  C_11
REMARK                            x       y       z     vdW  Elec       q    Type
REMARK                         _______ _______ _______ _____ _____    ______ ____
ROOT
ATOM      1  C   UNL     1       4.298   2.653  18.767  0.00  0.00    +0.000 C 
ATOM      2  O   UNL     1       4.992   3.167  19.630  0.00  0.00    +0.000 OA
ATOM      3  N   UNL     1       4.191   3.009  17.452  0.00  0.00    +0.000 N 
ATOM      4  H   UNL     1       3.395   2.587  16.994  0.00  0.00    +0.000 HD
ENDROOT
BRANCH   3   5
ATOM      5  C   UNL     1       4.812   4.108  16.840  0.00  0.00    +0.000 A 
ATOM      6  C   UNL     1       4.383   5.419  17.025  0.00  0.00    +0.000 A 
ATOM      7  C   UNL     1       5.060   6.428  16.363  0.00  0.00    +0.000 A 
ATOM      8  N   UNL     1       6.105   6.214  15.535  0.00  0.00    +0.000 NA
ATOM      9  C   UNL     1       6.496   4.934  15.369  0.00  0.00    +0.000 A 
ATOM     10  C   UNL     1       5.898   3.859  16.004  0.00  0.00    +0.000 A 
ENDBRANCH   3   5
BRANCH   1  11
ATOM     11  O   UNL     1       3.322   1.743  19.023  0.00  0.00    +0.000 OA
BRANCH  11  12
ATOM     12  C   UNL     1       2.095   2.025  18.331  0.00  0.00    +0.000 C 
BRANCH  12  13
ATOM     13  C   UNL     1       1.118   2.631  19.346  0.00  0.00    +0.000 C 
BRANCH  13  17
ATOM     14  C   UNL     1       1.699   6.121  20.635  0.00  0.00    +0.000 C 
ATOM     15  C   UNL     1       1.755   4.619  20.638  0.00  0.00    +0.000 C 
ATOM     16  O   UNL     1       2.213   3.968  21.567  0.00  0.00    +0.000 OA
ATOM     17  N   UNL     1       1.229   4.059  19.495  0.00  0.00    +0.000 N 
ATOM     18  H   UNL     1       0.878   4.656  18.757  0.00  0.00    +0.000 HD
ENDBRANCH  13  17
ENDBRANCH  12  13
ENDBRANCH  11  12
ENDBRANCH   1  11
TORSDOF 5
ENDMDL
MODEL 6
REMARK VINA RESULT:      -6.2      1.312      1.870
REMARK  Name = 
REMARK  6 active torsions:
REMARK  status: ('A' for Active; 'I' for Inactive)
REMARK    1  A    between atoms: C_1  and  C_2
REMARK    2  A    between atoms: N_4  and  C_5
REMARK    3  A    between atoms: C_5  and  C_6
REMARK    4  A    between atoms: C_6  and  O_7
REMARK    5  A    between atoms: O_7  and  C_8
REMARK    6  A    between atoms: N_10  and  C_11
REMARK                            x       y       z     vdW  Elec       q    Type
REMARK                         _______ _______ _______ _____ _____    ______ ____
ROOT
ATOM      1  C   UNL     1       5.359   5.073  19.015  0.00  0.00    +0.000 C 
ATOM      2  O   UNL     1       5.793   4.012  19.435  0.00  0.00    +0.000 OA
ATOM      3  N   UNL     1       4.054   5.454  18.882  0.00  0.00    +0.000 N 
ATOM      4  H   UNL     1       3.940   6.278  18.309  0.00  0.00    +0.000 HD
ENDROOT
BRANCH   3   5
ATOM      5  C   UNL     1       2.929   4.653  19.135  0.00  0.00    +0.000 A 
ATOM      6  C   UNL     1       2.379   3.800  18.184  0.00  0.00    +0.000 A 
ATOM      7  C   UNL     1       1.261   3.064  18.535  0.00  0.00    +0.000 A 
ATOM      8  N   UNL     1       0.663   3.135  19.744  0.00  0.00    +0.000 NA
ATOM      9  C   UNL     1       1.213   3.974  20.644  0.00  0.00    +0.000 A 
ATOM     10  C   UNL     1       2.343   4.735  20.396  0.00  0.00    +0.000 A 
ENDBRANCH   3   5
BRANCH   1  11
ATOM     11  O   UNL     1       6.120   6.008  18.389  0.00  0.00    +0.000 OA
BRANCH  11  12
ATOM     12  C   UNL     1       5.964   5.997  16.961  0.00  0.00    +0.000 C 
BRANCH  12  13
ATOM     13  C   UNL     1       6.999   5.022  16.387  0.00  0.00    +0.000 C 
BRANCH  13  17
ATOM     14  C   UNL     1       6.134   3.614  13.003  0.00  0.00    +0.000 C 
ATOM     15  C   UNL     1       6.811   4.522  13.990  0.00  0.00    +0.000 C 
ATOM     16  O   UNL     1       7.543   5.445  13.658  0.00  0.00    +0.000 OA
ATOM     17  N   UNL     1       6.512   4.214  15.299  0.00  0.00    +0.000 N 
ATOM     18  H   UNL     1       5.909   3.428  15.506  0.00  0.00    +0.000 HD
ENDBRANCH  13  17
ENDBRANCH  12  13
ENDBRANCH  11  12
ENDBRANCH   1  11
TORSDOF 5
ENDMDL
MODEL 7
REMARK VINA RESULT:      -6.2      2.420      5.911
REMARK  Name = 
REMARK  6 active torsions:
REMARK  status: ('A' for Active; 'I' for Inactive)
REMARK    1  A    between atoms: C_1  and  C_2
REMARK    2  A    between atoms: N_4  and  C_5
REMARK    3  A    between atoms: C_5  and  C_6
REMARK    4  A    between atoms: C_6  and  O_7
REMARK    5  A    between atoms: O_7  and  C_8
REMARK    6  A    between atoms: N_10  and  C_11
REMARK                            x       y       z     vdW  Elec       q    Type
REMARK                         _______ _______ _______ _____ _____    ______ ____
ROOT
ATOM      1  C   UNL     1       4.294   2.619  18.749  0.00  0.00    +0.000 C 
ATOM      2  O   UNL     1       4.931   3.097  19.675  0.00  0.00    +0.000 OA
ATOM      3  N   UNL     1       4.271   3.027  17.446  0.00  0.00    +0.000 N 
ATOM      4  H   UNL     1       3.507   2.625  16.921  0.00  0.00    +0.000 HD
ENDROOT
BRANCH   3   5
ATOM      5  C   UNL     1       4.930   4.149  16.919  0.00  0.00    +0.000 A 
ATOM      6  C   UNL     1       6.133   4.064  16.227  0.00  0.00    +0.000 A 
ATOM      7  C   UNL     1       6.703   5.236  15.761  0.00  0.00    +0.000 A 
ATOM      8  N   UNL     1       6.166   6.460  15.950  0.00  0.00    +0.000 NA
ATOM      9  C   UNL     1       5.003   6.514  16.629  0.00  0.00    +0.000 A 
ATOM     10  C   UNL     1       4.344   5.398  17.115  0.00  0.00    +0.000 A 
ENDBRANCH   3   5
BRANCH   1  11
ATOM     11  O   UNL     1       3.304   1.701  18.905  0.00  0.00    +0.000 OA
BRANCH  11  12
ATOM     12  C   UNL     1       2.085   2.070  18.239  0.00  0.00    +0.000 C 
BRANCH  12  13
ATOM     13  C   UNL     1       1.145   2.672  19.290  0.00  0.00    +0.000 C 
BRANCH  13  17
ATOM     14  C   UNL     1       1.734   6.148  20.615  0.00  0.00    +0.000 C 
ATOM     15  C   UNL     1       1.768   4.646  20.611  0.00  0.00    +0.000 C 
ATOM     16  O   UNL     1       2.187   3.984  21.552  0.00  0.00    +0.000 OA
ATOM     17  N   UNL     1       1.271   4.098  19.450  0.00  0.00    +0.000 N 
ATOM     18  H   UNL     1       0.953   4.703  18.703  0.00  0.00    +0.000 HD
ENDBRANCH  13  17
ENDBRANCH  12  13
ENDBRANCH  11  12
ENDBRANCH   1  11
TORSDOF 5
ENDMDL
MODEL 8
REMARK VINA RESULT:      -6.2      1.345      1.471
REMARK  Name = 
REMARK  6 active torsions:
REMARK  status: ('A' for Active; 'I' for Inactive)
REMARK    1  A    between atoms: C_1  and  C_2
REMARK    2  A    between atoms: N_4  and  C_5
REMARK    3  A    between atoms: C_5  and  C_6
REMARK    4  A    between atoms: C_6  and  O_7
REMARK    5  A    between atoms: O_7  and  C_8
REMARK    6  A    between atoms: N_10  and  C_11
REMARK                            x       y       z     vdW  Elec       q    Type
REMARK                         _______ _______ _______ _____ _____    ______ ____
ROOT
ATOM      1  C   UNL     1       5.432   4.938  19.370  0.00  0.00    +0.000 C 
ATOM      2  O   UNL     1       5.806   3.782  19.248  0.00  0.00    +0.000 OA
ATOM      3  N   UNL     1       4.156   5.396  19.537  0.00  0.00    +0.000 N 
ATOM      4  H   UNL     1       4.072   6.392  19.389  0.00  0.00    +0.000 HD
ENDROOT
BRANCH   3   5
ATOM      5  C   UNL     1       2.990   4.616  19.524  0.00  0.00    +0.000 A 
ATOM      6  C   UNL     1       2.334   4.216  20.684  0.00  0.00    +0.000 A 
ATOM      7  C   UNL     1       1.198   3.436  20.557  0.00  0.00    +0.000 A 
ATOM      8  N   UNL     1       0.695   3.029  19.372  0.00  0.00    +0.000 NA
ATOM      9  C   UNL     1       1.353   3.425  18.265  0.00  0.00    +0.000 A 
ATOM     10  C   UNL     1       2.484   4.224  18.286  0.00  0.00    +0.000 A 
ENDBRANCH   3   5
BRANCH   1  11
ATOM     11  O   UNL     1       6.225   6.018  19.140  0.00  0.00    +0.000 OA
BRANCH  11  12
ATOM     12  C   UNL     1       7.421   5.693  18.414  0.00  0.00    +0.000 C 
BRANCH  12  13
ATOM     13  C   UNL     1       7.378   6.452  17.082  0.00  0.00    +0.000 C 
BRANCH  13  17
ATOM     14  C   UNL     1       5.688   4.381  14.429  0.00  0.00    +0.000 C 
ATOM     15  C   UNL     1       5.782   5.328  15.592  0.00  0.00    +0.000 C 
ATOM     16  O   UNL     1       4.802   5.776  16.172  0.00  0.00    +0.000 OA
ATOM     17  N   UNL     1       7.081   5.627  15.940  0.00  0.00    +0.000 N 
ATOM     18  H   UNL     1       7.848   5.233  15.410  0.00  0.00    +0.000 HD
ENDBRANCH  13  17
ENDBRANCH  12  13
ENDBRANCH  11  12
ENDBRANCH   1  11
TORSDOF 5
ENDMDL
MODEL 9
REMARK VINA RESULT:      -6.2      1.323      1.766
REMARK  Name = 
REMARK  6 active torsions:
REMARK  status: ('A' for Active; 'I' for Inactive)
REMARK    1  A    between atoms: C_1  and  C_2
REMARK    2  A    between atoms: N_4  and  C_5
REMARK    3  A    between atoms: C_5  and  C_6
REMARK    4  A    between atoms: C_6  and  O_7
REMARK    5  A    between atoms: O_7  and  C_8
REMARK    6  A    between atoms: N_10  and  C_11
REMARK                            x       y       z     vdW  Elec       q    Type
REMARK                         _______ _______ _______ _____ _____    ______ ____
ROOT
ATOM      1  C   UNL     1       5.531   4.542  18.857  0.00  0.00    +0.000 C 
ATOM      2  O   UNL     1       4.981   5.616  19.046  0.00  0.00    +0.000 OA
ATOM      3  N   UNL     1       4.965   3.299  18.843  0.00  0.00    +0.000 N 
ATOM      4  H   UNL     1       5.646   2.555  18.891  0.00  0.00    +0.000 HD
ENDROOT
BRANCH   3   5
ATOM      5  C   UNL     1       3.623   2.998  19.125  0.00  0.00    +0.000 A 
ATOM      6  C   UNL     1       2.667   2.801  18.135  0.00  0.00    +0.000 A 
ATOM      7  C   UNL     1       1.369   2.522  18.525  0.00  0.00    +0.000 A 
ATOM      8  N   UNL     1       0.972   2.443  19.813  0.00  0.00    +0.000 NA
ATOM      9  C   UNL     1       1.918   2.644  20.753  0.00  0.00    +0.000 A 
ATOM     10  C   UNL     1       3.246   2.906  20.464  0.00  0.00    +0.000 A 
ENDBRANCH   3   5
BRANCH   1  11
ATOM     11  O   UNL     1       6.879   4.374  18.839  0.00  0.00    +0.000 OA
BRANCH  11  12
ATOM     12  C   UNL     1       7.517   5.070  17.755  0.00  0.00    +0.000 C 
BRANCH  12  13
ATOM     13  C   UNL     1       6.914   4.546  16.446  0.00  0.00    +0.000 C 
BRANCH  13  17
ATOM     14  C   UNL     1       7.864   5.403  12.905  0.00  0.00    +0.000 C 
ATOM     15  C   UNL     1       7.129   4.691  14.005  0.00  0.00    +0.000 C 
ATOM     16  O   UNL     1       6.333   3.784  13.800  0.00  0.00    +0.000 OA
ATOM     17  N   UNL     1       7.453   5.157  15.259  0.00  0.00    +0.000 N 
ATOM     18  H   UNL     1       8.110   5.921  15.359  0.00  0.00    +0.000 HD
ENDBRANCH  13  17
ENDBRANCH  12  13
ENDBRANCH  11  12
ENDBRANCH   1  11
TORSDOF 5
ENDMDL
