MODEL 1
REMARK VINA RESULT:      -8.9      0.000      0.000
REMARK  Name = 
REMARK  4 active torsions:
REMARK  status: ('A' for Active; 'I' for Inactive)
REMARK    1  A    between atoms: C_1  and  N_2
REMARK    2  A    between atoms: C_7  and  C_8
REMARK    3  A    between atoms: C_11  and  C_12
REMARK    4  A    between atoms: N_23  and  C_24
REMARK                            x       y       z     vdW  Elec       q    Type
REMARK                         _______ _______ _______ _____ _____    ______ ____
ROOT
ATOM      1  C   UNL     1       5.999   3.621  15.534  0.00  0.00    +0.000 C 
ATOM      2  N   UNL     1       5.215   4.678  16.133  0.00  0.00    +0.000 N 
ATOM      3  C   UNL     1       5.447   5.988  15.800  0.00  0.00    +0.000 A 
ATOM      4  N   UNL     1       4.841   6.995  16.326  0.00  0.00    +0.000 NA
ATOM      5  C   UNL     1       3.875   6.732  17.310  0.00  0.00    +0.000 A 
ATOM      6  C   UNL     1       3.242   7.816  17.898  0.00  0.00    +0.000 A 
ATOM      7  C   UNL     1       2.292   7.582  18.878  0.00  0.00    +0.000 A 
ATOM      8  N   UNL     1       1.968   6.324  19.280  0.00  0.00    +0.000 NA
ATOM      9  C   UNL     1       2.570   5.256  18.707  0.00  0.00    +0.000 A 
ATOM     10  N   UNL     1       2.125   3.959  19.059  0.00  0.00    +0.000 N 
ATOM     11  C   UNL     1       3.532   5.443  17.713  0.00  0.00    +0.000 A 
ATOM     12  C   UNL     1       4.282   4.330  17.101  0.00  0.00    +0.000 A 
ATOM     13  O   UNL     1       4.101   3.173  17.477  0.00  0.00    +0.000 OA
ATOM     14  H   UNL     1       2.825   3.260  18.789  0.00  0.00    +0.000 HD
ENDROOT
BRANCH   7  15
ATOM     15  C   UNL     1       1.547   8.663  19.536  0.00  0.00    +0.000 A 
ATOM     16  C   UNL     1       1.280   9.850  18.843  0.00  0.00    +0.000 A 
ATOM     17  C   UNL     1       0.668  10.937  19.469  0.00  0.00    +0.000 A 
ATOM     18  C   UNL     1       0.339  10.901  20.829  0.00  0.00    +0.000 A 
ATOM     19  C   UNL     1       0.512   9.676  21.487  0.00  0.00    +0.000 A 
ATOM     20  F   UNL     1       0.114   9.532  22.759  0.00  0.00    +0.000 F 
ATOM     21  C   UNL     1       1.108   8.579  20.864  0.00  0.00    +0.000 A 
BRANCH  18  22
ATOM     22  C   UNL     1      -0.181  12.119  21.587  0.00  0.00    +0.000 C 
ATOM     23  C   UNL     1      -1.711  12.175  21.783  0.00  0.00    +0.000 C 
ATOM     24  C   UNL     1      -2.456  12.508  20.483  0.00  0.00    +0.000 C 
ATOM     25  N   UNL     1      -1.997  13.757  19.880  0.00  0.00    +0.000 NA
ATOM     26  C   UNL     1      -0.550  13.751  19.659  0.00  0.00    +0.000 C 
ATOM     27  C   UNL     1       0.233  13.461  20.940  0.00  0.00    +0.000 C 
ATOM     28  H   UNL     1      -2.241  14.535  20.490  0.00  0.00    +0.000 HD
ENDBRANCH  18  22
ENDBRANCH   7  15
BRANCH  10  29
ATOM     29  C   UNL     1       1.470   3.749  20.351  0.00  0.00    +0.000 C 
ATOM     30  C   UNL     1       1.641   2.442  21.080  0.00  0.00    +0.000 C 
ATOM     31  C   UNL     1       2.272   3.692  21.621  0.00  0.00    +0.000 C 
ENDBRANCH  10  29
TORSDOF 3
ENDMDL
MODEL 2
REMARK VINA RESULT:      -8.8      3.448      8.836
REMARK  Name = 
REMARK  4 active torsions:
REMARK  status: ('A' for Active; 'I' for Inactive)
REMARK    1  A    between atoms: C_1  and  N_2
REMARK    2  A    between atoms: C_7  and  C_8
REMARK    3  A    between atoms: C_11  and  C_12
REMARK    4  A    between atoms: N_23  and  C_24
REMARK                            x       y       z     vdW  Elec       q    Type
REMARK                         _______ _______ _______ _____ _____    ______ ____
ROOT
ATOM      1  C   UNL     1      -3.236  13.906  22.675  0.00  0.00    +0.000 C 
ATOM      2  N   UNL     1      -2.311  12.885  22.237  0.00  0.00    +0.000 N 
ATOM      3  C   UNL     1      -1.330  12.430  23.081  0.00  0.00    +0.000 A 
ATOM      4  N   UNL     1      -0.428  11.569  22.758  0.00  0.00    +0.000 NA
ATOM      5  C   UNL     1      -0.452  11.062  21.449  0.00  0.00    +0.000 A 
ATOM      6  C   UNL     1       0.536  10.157  21.091  0.00  0.00    +0.000 A 
ATOM      7  C   UNL     1       0.539   9.651  19.802  0.00  0.00    +0.000 A 
ATOM      8  N   UNL     1      -0.393  10.018  18.883  0.00  0.00    +0.000 NA
ATOM      9  C   UNL     1      -1.369  10.892  19.222  0.00  0.00    +0.000 A 
ATOM     10  N   UNL     1      -2.393  11.161  18.283  0.00  0.00    +0.000 N 
ATOM     11  C   UNL     1      -1.414  11.427  20.510  0.00  0.00    +0.000 A 
ATOM     12  C   UNL     1      -2.402  12.441  20.925  0.00  0.00    +0.000 A 
ATOM     13  O   UNL     1      -3.221  12.882  20.120  0.00  0.00    +0.000 OA
ATOM     14  H   UNL     1      -2.889  12.021  18.537  0.00  0.00    +0.000 HD
ENDROOT
BRANCH   7  15
ATOM     15  C   UNL     1       1.524   8.665  19.338  0.00  0.00    +0.000 A 
ATOM     16  C   UNL     1       2.141   8.827  18.091  0.00  0.00    +0.000 A 
ATOM     17  C   UNL     1       3.001   7.860  17.573  0.00  0.00    +0.000 A 
ATOM     18  C   UNL     1       3.245   6.663  18.258  0.00  0.00    +0.000 A 
ATOM     19  C   UNL     1       2.710   6.556  19.548  0.00  0.00    +0.000 A 
ATOM     20  F   UNL     1       2.995   5.489  20.309  0.00  0.00    +0.000 F 
ATOM     21  C   UNL     1       1.862   7.526  20.081  0.00  0.00    +0.000 A 
BRANCH  18  22
ATOM     22  C   UNL     1       4.048   5.513  17.655  0.00  0.00    +0.000 C 
ATOM     23  C   UNL     1       4.922   4.721  18.650  0.00  0.00    +0.000 C 
ATOM     24  C   UNL     1       6.156   5.512  19.103  0.00  0.00    +0.000 C 
ATOM     25  N   UNL     1       6.979   5.957  17.980  0.00  0.00    +0.000 NA
ATOM     26  C   UNL     1       6.199   6.728  17.010  0.00  0.00    +0.000 C 
ATOM     27  C   UNL     1       4.978   5.959  16.503  0.00  0.00    +0.000 C 
ATOM     28  H   UNL     1       7.384   5.145  17.517  0.00  0.00    +0.000 HD
ENDBRANCH  18  22
ENDBRANCH   7  15
BRANCH  10  29
ATOM     29  C   UNL     1      -2.131  10.967  16.855  0.00  0.00    +0.000 C 
ATOM     30  C   UNL     1      -2.738   9.795  16.129  0.00  0.00    +0.000 C 
ATOM     31  C   UNL     1      -3.214  11.188  15.836  0.00  0.00    +0.000 C 
ENDBRANCH  10  29
TORSDOF 3
ENDMDL
MODEL 3
REMARK VINA RESULT:      -8.7      3.542      8.919
REMARK  Name = 
REMARK  4 active torsions:
REMARK  status: ('A' for Active; 'I' for Inactive)
REMARK    1  A    between atoms: C_1  and  N_2
REMARK    2  A    between atoms: C_7  and  C_8
REMARK    3  A    between atoms: C_11  and  C_12
REMARK    4  A    between atoms: N_23  and  C_24
REMARK                            x       y       z     vdW  Elec       q    Type
REMARK                         _______ _______ _______ _____ _____    ______ ____
ROOT
ATOM      1  C   UNL     1      -2.791  13.911  22.344  0.00  0.00    +0.000 C 
ATOM      2  N   UNL     1      -1.902  12.852  21.918  0.00  0.00    +0.000 N 
ATOM      3  C   UNL     1      -0.887  12.428  22.737  0.00  0.00    +0.000 A 
ATOM      4  N   UNL     1      -0.014  11.536  22.419  0.00  0.00    +0.000 NA
ATOM      5  C   UNL     1      -0.110  10.959  21.142  0.00  0.00    +0.000 A 
ATOM      6  C   UNL     1       0.846  10.020  20.787  0.00  0.00    +0.000 A 
ATOM      7  C   UNL     1       0.779   9.444  19.530  0.00  0.00    +0.000 A 
ATOM      8  N   UNL     1      -0.192   9.776  18.638  0.00  0.00    +0.000 NA
ATOM      9  C   UNL     1      -1.138  10.683  18.976  0.00  0.00    +0.000 A 
ATOM     10  N   UNL     1      -2.204  10.917  18.074  0.00  0.00    +0.000 N 
ATOM     11  C   UNL     1      -1.113  11.288  20.232  0.00  0.00    +0.000 A 
ATOM     12  C   UNL     1      -2.064  12.339  20.638  0.00  0.00    +0.000 A 
ATOM     13  O   UNL     1      -2.916  12.749  19.851  0.00  0.00    +0.000 OA
ATOM     14  H   UNL     1      -2.675  11.798  18.304  0.00  0.00    +0.000 HD
ENDROOT
BRANCH   7  15
ATOM     15  C   UNL     1       1.726   8.419  19.074  0.00  0.00    +0.000 A 
ATOM     16  C   UNL     1       2.019   7.323  19.895  0.00  0.00    +0.000 A 
ATOM     17  C   UNL     1       2.990   6.386  19.542  0.00  0.00    +0.000 A 
ATOM     18  C   UNL     1       3.746   6.530  18.372  0.00  0.00    +0.000 A 
ATOM     19  C   UNL     1       3.376   7.567  17.507  0.00  0.00    +0.000 A 
ATOM     20  F   UNL     1       3.978   7.699  16.315  0.00  0.00    +0.000 F 
ATOM     21  C   UNL     1       2.394   8.499  17.845  0.00  0.00    +0.000 A 
BRANCH  18  22
ATOM     22  C   UNL     1       4.924   5.621  18.031  0.00  0.00    +0.000 C 
ATOM     23  C   UNL     1       4.719   4.703  16.807  0.00  0.00    +0.000 C 
ATOM     24  C   UNL     1       3.750   3.549  17.097  0.00  0.00    +0.000 C 
ATOM     25  N   UNL     1       4.163   2.746  18.245  0.00  0.00    +0.000 NA
ATOM     26  C   UNL     1       4.358   3.569  19.440  0.00  0.00    +0.000 C 
ATOM     27  C   UNL     1       5.349   4.709  19.205  0.00  0.00    +0.000 C 
ATOM     28  H   UNL     1       5.032   2.264  18.023  0.00  0.00    +0.000 HD
ENDBRANCH  18  22
ENDBRANCH   7  15
BRANCH  10  29
ATOM     29  C   UNL     1      -2.015  10.641  16.648  0.00  0.00    +0.000 C 
ATOM     30  C   UNL     1      -2.853   9.593  15.965  0.00  0.00    +0.000 C 
ATOM     31  C   UNL     1      -3.057  11.044  15.641  0.00  0.00    +0.000 C 
ENDBRANCH  10  29
TORSDOF 3
ENDMDL
MODEL 4
REMARK VINA RESULT:      -8.6      0.901      1.178
REMARK  Name = 
REMARK  4 active torsions:
REMARK  status: ('A' for Active; 'I' for Inactive)
REMARK    1  A    between atoms: C_1  and  N_2
REMARK    2  A    between atoms: C_7  and  C_8
REMARK    3  A    between atoms: C_11  and  C_12
REMARK    4  A    between atoms: N_23  and  C_24
REMARK                            x       y       z     vdW  Elec       q    Type
REMARK                         _______ _______ _______ _____ _____    ______ ____
ROOT
ATOM      1  C   UNL     1       6.823   4.035  15.833  0.00  0.00    +0.000 C 
ATOM      2  N   UNL     1       5.836   4.989  16.287  0.00  0.00    +0.000 N 
ATOM      3  C   UNL     1       5.757   6.232  15.712  0.00  0.00    +0.000 A 
ATOM      4  N   UNL     1       4.952   7.164  16.090  0.00  0.00    +0.000 NA
ATOM      5  C   UNL     1       4.096   6.886  17.168  0.00  0.00    +0.000 A 
ATOM      6  C   UNL     1       3.249   7.897  17.595  0.00  0.00    +0.000 A 
ATOM      7  C   UNL     1       2.403   7.650  18.662  0.00  0.00    +0.000 A 
ATOM      8  N   UNL     1       2.382   6.450  19.302  0.00  0.00    +0.000 NA
ATOM      9  C   UNL     1       3.195   5.451  18.888  0.00  0.00    +0.000 A 
ATOM     10  N   UNL     1       3.065   4.178  19.493  0.00  0.00    +0.000 N 
ATOM     11  C   UNL     1       4.064   5.652  17.815  0.00  0.00    +0.000 A 
ATOM     12  C   UNL     1       5.031   4.634  17.361  0.00  0.00    +0.000 A 
ATOM     13  O   UNL     1       5.127   3.558  17.948  0.00  0.00    +0.000 OA
ATOM     14  H   UNL     1       3.898   3.610  19.305  0.00  0.00    +0.000 HD
ENDROOT
BRANCH   7  15
ATOM     15  C   UNL     1       1.449   8.647  19.167  0.00  0.00    +0.000 A 
ATOM     16  C   UNL     1       0.919   9.609  18.299  0.00  0.00    +0.000 A 
ATOM     17  C   UNL     1       0.094  10.633  18.763  0.00  0.00    +0.000 A 
ATOM     18  C   UNL     1      -0.199  10.769  20.125  0.00  0.00    +0.000 A 
ATOM     19  C   UNL     1       0.247   9.744  20.970  0.00  0.00    +0.000 A 
ATOM     20  F   UNL     1      -0.091   9.745  22.268  0.00  0.00    +0.000 F 
ATOM     21  C   UNL     1       1.059   8.707  20.511  0.00  0.00    +0.000 A 
BRANCH  18  22
ATOM     22  C   UNL     1      -0.962  11.963  20.693  0.00  0.00    +0.000 C 
ATOM     23  C   UNL     1      -1.459  12.987  19.651  0.00  0.00    +0.000 C 
ATOM     24  C   UNL     1      -0.318  13.832  19.070  0.00  0.00    +0.000 C 
ATOM     25  N   UNL     1       0.450  14.522  20.104  0.00  0.00    +0.000 NA
ATOM     26  C   UNL     1       0.959  13.592  21.113  0.00  0.00    +0.000 C 
ATOM     27  C   UNL     1      -0.154  12.756  21.746  0.00  0.00    +0.000 C 
ATOM     28  H   UNL     1      -0.142  15.218  20.555  0.00  0.00    +0.000 HD
ENDBRANCH  18  22
ENDBRANCH   7  15
BRANCH  10  29
ATOM     29  C   UNL     1       2.507   4.076  20.843  0.00  0.00    +0.000 C 
ATOM     30  C   UNL     1       1.170   3.417  21.060  0.00  0.00    +0.000 C 
ATOM     31  C   UNL     1       2.423   2.748  21.544  0.00  0.00    +0.000 C 
ENDBRANCH  10  29
TORSDOF 3
ENDMDL
MODEL 5
REMARK VINA RESULT:      -8.5      1.359      1.943
REMARK  Name = 
REMARK  4 active torsions:
REMARK  status: ('A' for Active; 'I' for Inactive)
REMARK    1  A    between atoms: C_1  and  N_2
REMARK    2  A    between atoms: C_7  and  C_8
REMARK    3  A    between atoms: C_11  and  C_12
REMARK    4  A    between atoms: N_23  and  C_24
REMARK                            x       y       z     vdW  Elec       q    Type
REMARK                         _______ _______ _______ _____ _____    ______ ____
ROOT
ATOM      1  C   UNL     1       6.134   3.439  15.686  0.00  0.00    +0.000 C 
ATOM      2  N   UNL     1       5.349   4.563  16.146  0.00  0.00    +0.000 N 
ATOM      3  C   UNL     1       5.611   5.827  15.683  0.00  0.00    +0.000 A 
ATOM      4  N   UNL     1       5.005   6.892  16.080  0.00  0.00    +0.000 NA
ATOM      5  C   UNL     1       4.008   6.747  17.058  0.00  0.00    +0.000 A 
ATOM      6  C   UNL     1       3.375   7.896  17.508  0.00  0.00    +0.000 A 
ATOM      7  C   UNL     1       2.395   7.779  18.478  0.00  0.00    +0.000 A 
ATOM      8  N   UNL     1       2.040   6.575  19.002  0.00  0.00    +0.000 NA
ATOM      9  C   UNL     1       2.642   5.444  18.563  0.00  0.00    +0.000 A 
ATOM     10  N   UNL     1       2.168   4.198  19.038  0.00  0.00    +0.000 N 
ATOM     11  C   UNL     1       3.634   5.512  17.585  0.00  0.00    +0.000 A 
ATOM     12  C   UNL     1       4.384   4.331  17.117  0.00  0.00    +0.000 A 
ATOM     13  O   UNL     1       4.175   3.223  17.609  0.00  0.00    +0.000 OA
ATOM     14  H   UNL     1       2.864   3.466  18.864  0.00  0.00    +0.000 HD
ENDROOT
BRANCH   7  15
ATOM     15  C   UNL     1       1.647   8.932  18.995  0.00  0.00    +0.000 A 
ATOM     16  C   UNL     1       0.906   8.811  20.177  0.00  0.00    +0.000 A 
ATOM     17  C   UNL     1       0.101   9.852  20.642  0.00  0.00    +0.000 A 
ATOM     18  C   UNL     1      -0.036  11.043  19.919  0.00  0.00    +0.000 A 
ATOM     19  C   UNL     1       0.788  11.196  18.796  0.00  0.00    +0.000 A 
ATOM     20  F   UNL     1       0.797  12.353  18.119  0.00  0.00    +0.000 F 
ATOM     21  C   UNL     1       1.608  10.167  18.334  0.00  0.00    +0.000 A 
BRANCH  18  22
ATOM     22  C   UNL     1      -1.027  12.137  20.307  0.00  0.00    +0.000 C 
ATOM     23  C   UNL     1      -0.423  13.548  20.476  0.00  0.00    +0.000 C 
ATOM     24  C   UNL     1       0.413  13.677  21.756  0.00  0.00    +0.000 C 
ATOM     25  N   UNL     1      -0.342  13.322  22.956  0.00  0.00    +0.000 NA
ATOM     26  C   UNL     1      -0.925  11.984  22.853  0.00  0.00    +0.000 C 
ATOM     27  C   UNL     1      -1.800  11.824  21.608  0.00  0.00    +0.000 C 
ATOM     28  H   UNL     1      -1.086  14.004  23.099  0.00  0.00    +0.000 HD
ENDBRANCH  18  22
ENDBRANCH   7  15
BRANCH  10  29
ATOM     29  C   UNL     1       1.472   4.134  20.325  0.00  0.00    +0.000 C 
ATOM     30  C   UNL     1       1.250   2.805  20.997  0.00  0.00    +0.000 C 
ATOM     31  C   UNL     1       2.216   3.792  21.586  0.00  0.00    +0.000 C 
ENDBRANCH  10  29
TORSDOF 3
ENDMDL
MODEL 6
REMARK VINA RESULT:      -8.0      3.493      9.093
REMARK  Name = 
REMARK  4 active torsions:
REMARK  status: ('A' for Active; 'I' for Inactive)
REMARK    1  A    between atoms: C_1  and  N_2
REMARK    2  A    between atoms: C_7  and  C_8
REMARK    3  A    between atoms: C_11  and  C_12
REMARK    4  A    between atoms: N_23  and  C_24
REMARK                            x       y       z     vdW  Elec       q    Type
REMARK                         _______ _______ _______ _____ _____    ______ ____
ROOT
ATOM      1  C   UNL     1      -1.720  13.519  23.519  0.00  0.00    +0.000 C 
ATOM      2  N   UNL     1      -1.165  12.414  22.768  0.00  0.00    +0.000 N 
ATOM      3  C   UNL     1      -1.319  11.126  23.214  0.00  0.00    +0.000 A 
ATOM      4  N   UNL     1      -0.810  10.089  22.645  0.00  0.00    +0.000 NA
ATOM      5  C   UNL     1      -0.043  10.293  21.486  0.00  0.00    +0.000 A 
ATOM      6  C   UNL     1       0.530   9.181  20.889  0.00  0.00    +0.000 A 
ATOM      7  C   UNL     1       1.298   9.358  19.751  0.00  0.00    +0.000 A 
ATOM      8  N   UNL     1       1.508  10.587  19.209  0.00  0.00    +0.000 NA
ATOM      9  C   UNL     1       0.946  11.680  19.775  0.00  0.00    +0.000 A 
ATOM     10  N   UNL     1       1.082  12.928  19.120  0.00  0.00    +0.000 N 
ATOM     11  C   UNL     1       0.162  11.551  20.922  0.00  0.00    +0.000 A 
ATOM     12  C   UNL     1      -0.417  12.705  21.635  0.00  0.00    +0.000 A 
ATOM     13  O   UNL     1      -0.197  13.852  21.250  0.00  0.00    +0.000 OA
ATOM     14  H   UNL     1       0.871  13.693  19.770  0.00  0.00    +0.000 HD
ENDROOT
BRANCH   7  15
ATOM     15  C   UNL     1       1.920   8.240  19.030  0.00  0.00    +0.000 A 
ATOM     16  C   UNL     1       1.786   6.934  19.517  0.00  0.00    +0.000 A 
ATOM     17  C   UNL     1       2.448   5.862  18.919  0.00  0.00    +0.000 A 
ATOM     18  C   UNL     1       3.313   6.056  17.834  0.00  0.00    +0.000 A 
ATOM     19  C   UNL     1       3.358   7.345  17.289  0.00  0.00    +0.000 A 
ATOM     20  F   UNL     1       4.075   7.583  16.180  0.00  0.00    +0.000 F 
ATOM     21  C   UNL     1       2.686   8.420  17.871  0.00  0.00    +0.000 A 
BRANCH  18  22
ATOM     22  C   UNL     1       4.178   4.939  17.256  0.00  0.00    +0.000 C 
ATOM     23  C   UNL     1       3.722   3.505  17.595  0.00  0.00    +0.000 C 
ATOM     24  C   UNL     1       3.999   3.133  19.058  0.00  0.00    +0.000 C 
ATOM     25  N   UNL     1       5.405   3.295  19.420  0.00  0.00    +0.000 NA
ATOM     26  C   UNL     1       5.886   4.647  19.131  0.00  0.00    +0.000 C 
ATOM     27  C   UNL     1       5.664   5.044  17.671  0.00  0.00    +0.000 C 
ATOM     28  H   UNL     1       5.966   2.621  18.902  0.00  0.00    +0.000 HD
ENDBRANCH  18  22
ENDBRANCH   7  15
BRANCH  10  29
ATOM     29  C   UNL     1       2.210  13.146  18.213  0.00  0.00    +0.000 C 
ATOM     30  C   UNL     1       2.606  14.546  17.823  0.00  0.00    +0.000 C 
ATOM     31  C   UNL     1       3.499  13.735  18.715  0.00  0.00    +0.000 C 
ENDBRANCH  10  29
TORSDOF 3
ENDMDL
MODEL 7
REMARK VINA RESULT:      -7.9      3.460      9.130
REMARK  Name = 
REMARK  4 active torsions:
REMARK  status: ('A' for Active; 'I' for Inactive)
REMARK    1  A    between atoms: C_1  and  N_2
REMARK    2  A    between atoms: C_7  and  C_8
REMARK    3  A    between atoms: C_11  and  C_12
REMARK    4  A    between atoms: N_23  and  C_24
REMARK                            x       y       z     vdW  Elec       q    Type
REMARK                         _______ _______ _______ _____ _____    ______ ____
ROOT
ATOM      1  C   UNL     1      -1.968  13.676  23.535  0.00  0.00    +0.000 C 
ATOM      2  N   UNL     1      -1.385  12.522  22.887  0.00  0.00    +0.000 N 
ATOM      3  C   UNL     1      -1.583  11.265  23.399  0.00  0.00    +0.000 A 
ATOM      4  N   UNL     1      -1.055  10.190  22.925  0.00  0.00    +0.000 NA
ATOM      5  C   UNL     1      -0.216  10.316  21.806  0.00  0.00    +0.000 A 
ATOM      6  C   UNL     1       0.376   9.163  21.312  0.00  0.00    +0.000 A 
ATOM      7  C   UNL     1       1.214   9.263  20.215  0.00  0.00    +0.000 A 
ATOM      8  N   UNL     1       1.473  10.455  19.614  0.00  0.00    +0.000 NA
ATOM      9  C   UNL     1       0.893  11.586  20.078  0.00  0.00    +0.000 A 
ATOM     10  N   UNL     1       1.085  12.790  19.359  0.00  0.00    +0.000 N 
ATOM     11  C   UNL     1       0.039  11.535  21.180  0.00  0.00    +0.000 A 
ATOM     12  C   UNL     1      -0.566  12.736  21.786  0.00  0.00    +0.000 A 
ATOM     13  O   UNL     1      -0.307  13.855  21.347  0.00  0.00    +0.000 OA
ATOM     14  H   UNL     1       0.846  13.595  19.947  0.00  0.00    +0.000 HD
ENDROOT
BRANCH   7  15
ATOM     15  C   UNL     1       1.862   8.097  19.601  0.00  0.00    +0.000 A 
ATOM     16  C   UNL     1       1.850   6.863  20.263  0.00  0.00    +0.000 A 
ATOM     17  C   UNL     1       2.544   5.761  19.762  0.00  0.00    +0.000 A 
ATOM     18  C   UNL     1       3.321   5.859  18.601  0.00  0.00    +0.000 A 
ATOM     19  C   UNL     1       3.243   7.063  17.891  0.00  0.00    +0.000 A 
ATOM     20  F   UNL     1       3.869   7.192  16.712  0.00  0.00    +0.000 F 
ATOM     21  C   UNL     1       2.538   8.165  18.376  0.00  0.00    +0.000 A 
BRANCH  18  22
ATOM     22  C   UNL     1       4.221   4.728  18.111  0.00  0.00    +0.000 C 
ATOM     23  C   UNL     1       3.613   3.822  17.020  0.00  0.00    +0.000 C 
ATOM     24  C   UNL     1       2.528   2.888  17.572  0.00  0.00    +0.000 C 
ATOM     25  N   UNL     1       3.009   2.063  18.677  0.00  0.00    +0.000 NA
ATOM     26  C   UNL     1       3.586   2.876  19.749  0.00  0.00    +0.000 C 
ATOM     27  C   UNL     1       4.700   3.795  19.247  0.00  0.00    +0.000 C 
ATOM     28  H   UNL     1       3.715   1.414  18.330  0.00  0.00    +0.000 HD
ENDBRANCH  18  22
ENDBRANCH   7  15
BRANCH  10  29
ATOM     29  C   UNL     1       2.269  12.941  18.511  0.00  0.00    +0.000 C 
ATOM     30  C   UNL     1       2.565  14.265  17.857  0.00  0.00    +0.000 C 
ATOM     31  C   UNL     1       3.443  13.763  18.966  0.00  0.00    +0.000 C 
ENDBRANCH  10  29
TORSDOF 3
ENDMDL
MODEL 8
REMARK VINA RESULT:      -7.9      3.321      9.066
REMARK  Name = 
REMARK  4 active torsions:
REMARK  status: ('A' for Active; 'I' for Inactive)
REMARK    1  A    between atoms: C_1  and  N_2
REMARK    2  A    between atoms: C_7  and  C_8
REMARK    3  A    between atoms: C_11  and  C_12
REMARK    4  A    between atoms: N_23  and  C_24
REMARK                            x       y       z     vdW  Elec       q    Type
REMARK                         _______ _______ _______ _____ _____    ______ ____
ROOT
ATOM      1  C   UNL     1      -2.111  13.964  23.469  0.00  0.00    +0.000 C 
ATOM      2  N   UNL     1      -1.545  12.766  22.889  0.00  0.00    +0.000 N 
ATOM      3  C   UNL     1      -1.774  11.543  23.465  0.00  0.00    +0.000 A 
ATOM      4  N   UNL     1      -1.264  10.433  23.054  0.00  0.00    +0.000 NA
ATOM      5  C   UNL     1      -0.413  10.483  21.939  0.00  0.00    +0.000 A 
ATOM      6  C   UNL     1       0.160   9.295  21.513  0.00  0.00    +0.000 A 
ATOM      7  C   UNL     1       1.011   9.319  20.421  0.00  0.00    +0.000 A 
ATOM      8  N   UNL     1       1.301  10.472  19.760  0.00  0.00    +0.000 NA
ATOM      9  C   UNL     1       0.739  11.638  20.159  0.00  0.00    +0.000 A 
ATOM     10  N   UNL     1       0.963  12.798  19.379  0.00  0.00    +0.000 N 
ATOM     11  C   UNL     1      -0.126  11.662  21.253  0.00  0.00    +0.000 A 
ATOM     12  C   UNL     1      -0.712  12.905  21.788  0.00  0.00    +0.000 A 
ATOM     13  O   UNL     1      -0.425  13.994  21.293  0.00  0.00    +0.000 OA
ATOM     14  H   UNL     1       0.735  13.638  19.922  0.00  0.00    +0.000 HD
ENDROOT
BRANCH   7  15
ATOM     15  C   UNL     1       1.641   8.110  19.877  0.00  0.00    +0.000 A 
ATOM     16  C   UNL     1       2.256   8.148  18.619  0.00  0.00    +0.000 A 
ATOM     17  C   UNL     1       2.772   6.996  18.026  0.00  0.00    +0.000 A 
ATOM     18  C   UNL     1       2.652   5.744  18.643  0.00  0.00    +0.000 A 
ATOM     19  C   UNL     1       2.131   5.731  19.943  0.00  0.00    +0.000 A 
ATOM     20  F   UNL     1       2.090   4.587  20.641  0.00  0.00    +0.000 F 
ATOM     21  C   UNL     1       1.628   6.881  20.551  0.00  0.00    +0.000 A 
BRANCH  18  22
ATOM     22  C   UNL     1       3.056   4.442  17.957  0.00  0.00    +0.000 C 
ATOM     23  C   UNL     1       3.606   3.344  18.893  0.00  0.00    +0.000 C 
ATOM     24  C   UNL     1       5.018   3.661  19.401  0.00  0.00    +0.000 C 
ATOM     25  N   UNL     1       5.965   3.894  18.312  0.00  0.00    +0.000 NA
ATOM     26  C   UNL     1       5.497   4.939  17.401  0.00  0.00    +0.000 C 
ATOM     27  C   UNL     1       4.106   4.642  16.840  0.00  0.00    +0.000 C 
ATOM     28  H   UNL     1       6.099   3.028  17.792  0.00  0.00    +0.000 HD
ENDBRANCH  18  22
ENDBRANCH   7  15
BRANCH  10  29
ATOM     29  C   UNL     1       2.158  12.880  18.537  0.00  0.00    +0.000 C 
ATOM     30  C   UNL     1       2.488  14.162  17.818  0.00  0.00    +0.000 C 
ATOM     31  C   UNL     1       3.344  13.701  18.961  0.00  0.00    +0.000 C 
ENDBRANCH  10  29
TORSDOF 3
ENDMDL
MODEL 9
REMARK VINA RESULT:      -7.9      3.452      9.199
REMARK  Name = 
REMARK  4 active torsions:
REMARK  status: ('A' for Active; 'I' for Inactive)
REMARK    1  A    between atoms: C_1  and  N_2
REMARK    2  A    between atoms: C_7  and  C_8
REMARK    3  A    between atoms: C_11  and  C_12
REMARK    4  A    between atoms: N_23  and  C_24
REMARK                            x       y       z     vdW  Elec       q    Type
REMARK                         _______ _______ _______ _____ _____    ______ ____
ROOT
ATOM      1  C   UNL     1      -2.302  16.320  22.368  0.00  0.00    +0.000 C 
ATOM      2  N   UNL     1      -1.646  15.062  22.086  0.00  0.00    +0.000 N 
ATOM      3  C   UNL     1      -0.474  14.734  22.717  0.00  0.00    +0.000 A 
ATOM      4  N   UNL     1       0.209  13.667  22.485  0.00  0.00    +0.000 NA
ATOM      5  C   UNL     1      -0.283  12.778  21.516  0.00  0.00    +0.000 A 
ATOM      6  C   UNL     1       0.465  11.643  21.244  0.00  0.00    +0.000 A 
ATOM      7  C   UNL     1       0.005  10.756  20.285  0.00  0.00    +0.000 A 
ATOM      8  N   UNL     1      -1.152  10.969  19.605  0.00  0.00    +0.000 NA
ATOM      9  C   UNL     1      -1.898  12.067  19.868  0.00  0.00    +0.000 A 
ATOM     10  N   UNL     1      -3.156  12.199  19.232  0.00  0.00    +0.000 N 
ATOM     11  C   UNL     1      -1.476  12.988  20.827  0.00  0.00    +0.000 A 
ATOM     12  C   UNL     1      -2.199  14.243  21.110  0.00  0.00    +0.000 A 
ATOM     13  O   UNL     1      -3.207  14.541  20.472  0.00  0.00    +0.000 OA
ATOM     14  H   UNL     1      -3.480  13.171  19.288  0.00  0.00    +0.000 HD
ENDROOT
BRANCH   7  15
ATOM     15  C   UNL     1       0.711   9.512  19.950  0.00  0.00    +0.000 A 
ATOM     16  C   UNL     1       0.779   8.474  20.886  0.00  0.00    +0.000 A 
ATOM     17  C   UNL     1       1.528   7.322  20.643  0.00  0.00    +0.000 A 
ATOM     18  C   UNL     1       2.281   7.179  19.471  0.00  0.00    +0.000 A 
ATOM     19  C   UNL     1       2.123   8.173  18.497  0.00  0.00    +0.000 A 
ATOM     20  F   UNL     1       2.723   8.048  17.303  0.00  0.00    +0.000 F 
ATOM     21  C   UNL     1       1.363   9.320  18.725  0.00  0.00    +0.000 A 
BRANCH  18  22
ATOM     22  C   UNL     1       3.238   6.012  19.239  0.00  0.00    +0.000 C 
ATOM     23  C   UNL     1       3.144   5.344  17.851  0.00  0.00    +0.000 C 
ATOM     24  C   UNL     1       1.873   4.498  17.694  0.00  0.00    +0.000 C 
ATOM     25  N   UNL     1       1.747   3.480  18.734  0.00  0.00    +0.000 NA
ATOM     26  C   UNL     1       1.815   4.064  20.075  0.00  0.00    +0.000 C 
ATOM     27  C   UNL     1       3.088   4.885  20.287  0.00  0.00    +0.000 C 
ATOM     28  H   UNL     1       2.493   2.795  18.627  0.00  0.00    +0.000 HD
ENDBRANCH  18  22
ENDBRANCH   7  15
BRANCH  10  29
ATOM     29  C   UNL     1      -3.397  11.511  17.962  0.00  0.00    +0.000 C 
ATOM     30  C   UNL     1      -4.427  10.415  17.882  0.00  0.00    +0.000 C 
ATOM     31  C   UNL     1      -4.674  11.729  17.199  0.00  0.00    +0.000 C 
ENDBRANCH  10  29
TORSDOF 3
ENDMDL
