MODEL 1
REMARK VINA RESULT:      -7.2      0.000      0.000
REMARK  Name = 
REMARK  17 active torsions:
REMARK  status: ('A' for Active; 'I' for Inactive)
REMARK    1  A    between atoms: C_1  and  C_2
REMARK    2  A    between atoms: C_2  and  C_3
REMARK    3  A    between atoms: C_3  and  C_4
REMARK    4  A    between atoms: C_4  and  C_5
REMARK    5  A    between atoms: C_5  and  C_6
REMARK    6  A    between atoms: C_6  and  O_7
REMARK    7  A    between atoms: C_6  and  C_8
REMARK    8  A    between atoms: C_9  and  C_10
REMARK    9  A    between atoms: C_13  and  C_14
REMARK   10  A    between atoms: C_14  and  C_15
REMARK   11  A    between atoms: C_23  and  C_24
REMARK   12  A    between atoms: C_24  and  C_25
REMARK   13  A    between atoms: C_26  and  C_27
REMARK   14  A    between atoms: C_27  and  C_28
REMARK   15  A    between atoms: C_28  and  C_29
REMARK   16  A    between atoms: C_29  and  C_30
REMARK   17  A    between atoms: C_30  and  O_32
REMARK                            x       y       z     vdW  Elec       q    Type
REMARK                         _______ _______ _______ _____ _____    ______ ____
ROOT
ATOM      1  C   UNL     1       5.512   5.534  18.701  0.00  0.00    +0.000 C 
ATOM      2  C   UNL     1       7.032   5.678  18.938  0.00  0.00    +0.000 C 
ATOM      3  C   UNL     1       7.480   6.641  17.841  0.00  0.00    +0.000 C 
ATOM      4  C   UNL     1       6.933   5.731  16.727  0.00  0.00    +0.000 C 
ATOM      5  C   UNL     1       7.682   4.448  17.132  0.00  0.00    +0.000 C 
ATOM      6  O   UNL     1       7.677   4.444  18.568  0.00  0.00    +0.000 OA
ATOM      7  C   UNL     1       5.427   5.616  17.135  0.00  0.00    +0.000 C 
ENDROOT
BRANCH   1   9
ATOM      8  C   UNL     1       4.319   3.316  18.569  0.00  0.00    +0.000 C 
ATOM      9  C   UNL     1       4.894   4.269  19.256  0.00  0.00    +0.000 C 
BRANCH   8  10
ATOM     10  C   UNL     1       3.771   2.021  19.144  0.00  0.00    +0.000 C 
BRANCH  10  11
ATOM     11  O   UNL     1       3.931   2.017  20.600  0.00  0.00    +0.000 OA
ATOM     12  H   UNL     1       3.717   2.865  21.020  0.00  0.00    +0.000 HD
ENDBRANCH  10  11
BRANCH  10  13
ATOM     13  C   UNL     1       2.347   1.695  19.084  0.00  0.00    +0.000 C 
BRANCH  13  14
ATOM     14  C   UNL     1       1.649   2.895  18.564  0.00  0.00    +0.000 C 
BRANCH  14  15
ATOM     15  C   UNL     1       0.868   3.451  19.708  0.00  0.00    +0.000 C 
BRANCH  15  17
ATOM     16  C   UNL     1       1.983   5.142  21.102  0.00  0.00    +0.000 C 
ATOM     17  C   UNL     1       1.217   4.911  19.830  0.00  0.00    +0.000 C 
ENDBRANCH  15  17
ENDBRANCH  14  15
ENDBRANCH  13  14
ENDBRANCH  10  13
ENDBRANCH   8  10
ENDBRANCH   1   9
BRANCH   4  18
ATOM     18  C   UNL     1       7.208   6.140  15.273  0.00  0.00    +0.000 C 
BRANCH  18  19
ATOM     19  C   UNL     1       6.762   5.130  14.222  0.00  0.00    +0.000 A 
ATOM     20  C   UNL     1       7.537   4.922  13.073  0.00  0.00    +0.000 A 
ATOM     21  C   UNL     1       7.140   4.005  12.093  0.00  0.00    +0.000 A 
ATOM     22  C   UNL     1       5.968   3.269  12.249  0.00  0.00    +0.000 A 
ATOM     23  C   UNL     1       5.193   3.447  13.386  0.00  0.00    +0.000 A 
ATOM     24  C   UNL     1       5.593   4.363  14.362  0.00  0.00    +0.000 A 
ENDBRANCH  18  19
ENDBRANCH   4  18
BRANCH   7  25
ATOM     25  C   UNL     1       4.590   6.844  16.703  0.00  0.00    +0.000 C 
BRANCH  25  26
ATOM     26  C   UNL     1       3.539   7.182  17.689  0.00  0.00    +0.000 C 
ATOM     27  C   UNL     1       2.753   8.272  17.652  0.00  0.00    +0.000 C 
BRANCH  27  28
ATOM     28  C   UNL     1       1.754   8.660  18.708  0.00  0.00    +0.000 C 
BRANCH  28  29
ATOM     29  C   UNL     1       0.731   9.685  18.204  0.00  0.00    +0.000 C 
BRANCH  29  30
ATOM     30  C   UNL     1       0.241  10.563  19.347  0.00  0.00    +0.000 C 
BRANCH  30  31
ATOM     31  C   UNL     1       0.107  11.889  18.752  0.00  0.00    +0.000 C 
ATOM     32  O   UNL     1      -0.824  12.706  18.761  0.00  0.00    +0.000 OA
BRANCH  31  33
ATOM     33  O   UNL     1       1.230  12.174  18.160  0.00  0.00    +0.000 OA
ATOM     34  H   UNL     1       1.546  12.943  18.706  0.00  0.00    +0.000 HD
ENDBRANCH  31  33
ENDBRANCH  30  31
ENDBRANCH  29  30
ENDBRANCH  28  29
ENDBRANCH  27  28
ENDBRANCH  25  26
ENDBRANCH   7  25
TORSDOF 16
ENDMDL
MODEL 2
REMARK VINA RESULT:      -7.2      0.813      1.234
REMARK  Name = 
REMARK  17 active torsions:
REMARK  status: ('A' for Active; 'I' for Inactive)
REMARK    1  A    between atoms: C_1  and  C_2
REMARK    2  A    between atoms: C_2  and  C_3
REMARK    3  A    between atoms: C_3  and  C_4
REMARK    4  A    between atoms: C_4  and  C_5
REMARK    5  A    between atoms: C_5  and  C_6
REMARK    6  A    between atoms: C_6  and  O_7
REMARK    7  A    between atoms: C_6  and  C_8
REMARK    8  A    between atoms: C_9  and  C_10
REMARK    9  A    between atoms: C_13  and  C_14
REMARK   10  A    between atoms: C_14  and  C_15
REMARK   11  A    between atoms: C_23  and  C_24
REMARK   12  A    between atoms: C_24  and  C_25
REMARK   13  A    between atoms: C_26  and  C_27
REMARK   14  A    between atoms: C_27  and  C_28
REMARK   15  A    between atoms: C_28  and  C_29
REMARK   16  A    between atoms: C_29  and  C_30
REMARK   17  A    between atoms: C_30  and  O_32
REMARK                            x       y       z     vdW  Elec       q    Type
REMARK                         _______ _______ _______ _____ _____    ______ ____
ROOT
ATOM      1  C   UNL     1       5.556   5.547  18.662  0.00  0.00    +0.000 C 
ATOM      2  C   UNL     1       7.083   5.669  18.869  0.00  0.00    +0.000 C 
ATOM      3  C   UNL     1       7.520   6.635  17.771  0.00  0.00    +0.000 C 
ATOM      4  C   UNL     1       6.939   5.743  16.661  0.00  0.00    +0.000 C 
ATOM      5  C   UNL     1       7.678   4.446  17.038  0.00  0.00    +0.000 C 
ATOM      6  O   UNL     1       7.702   4.429  18.474  0.00  0.00    +0.000 OA
ATOM      7  C   UNL     1       5.440   5.645  17.099  0.00  0.00    +0.000 C 
ENDROOT
BRANCH   1   9
ATOM      8  C   UNL     1       4.345   3.339  18.533  0.00  0.00    +0.000 C 
ATOM      9  C   UNL     1       4.931   4.285  19.218  0.00  0.00    +0.000 C 
BRANCH   8  10
ATOM     10  C   UNL     1       3.791   2.046  19.109  0.00  0.00    +0.000 C 
BRANCH  10  11
ATOM     11  O   UNL     1       4.057   1.990  20.547  0.00  0.00    +0.000 OA
ATOM     12  H   UNL     1       3.288   1.723  21.078  0.00  0.00    +0.000 HD
ENDBRANCH  10  11
BRANCH  10  13
ATOM     13  C   UNL     1       2.355   1.775  19.145  0.00  0.00    +0.000 C 
BRANCH  13  14
ATOM     14  C   UNL     1       1.670   2.990  18.644  0.00  0.00    +0.000 C 
BRANCH  14  15
ATOM     15  C   UNL     1       0.589   3.295  19.628  0.00  0.00    +0.000 C 
BRANCH  15  17
ATOM     16  C   UNL     1       1.759   5.259  20.534  0.00  0.00    +0.000 C 
ATOM     17  C   UNL     1       1.241   3.884  20.851  0.00  0.00    +0.000 C 
ENDBRANCH  15  17
ENDBRANCH  14  15
ENDBRANCH  13  14
ENDBRANCH  10  13
ENDBRANCH   8  10
ENDBRANCH   1   9
BRANCH   4  18
ATOM     18  C   UNL     1       7.189   6.162  15.205  0.00  0.00    +0.000 C 
BRANCH  18  19
ATOM     19  C   UNL     1       6.774   5.136  14.156  0.00  0.00    +0.000 A 
ATOM     20  C   UNL     1       5.594   4.400  14.322  0.00  0.00    +0.000 A 
ATOM     21  C   UNL     1       5.200   3.447  13.374  0.00  0.00    +0.000 A 
ATOM     22  C   UNL     1       5.971   3.224  12.236  0.00  0.00    +0.000 A 
ATOM     23  C   UNL     1       7.136   3.954  12.043  0.00  0.00    +0.000 A 
ATOM     24  C   UNL     1       7.526   4.903  12.991  0.00  0.00    +0.000 A 
ENDBRANCH  18  19
ENDBRANCH   4  18
BRANCH   7  25
ATOM     25  C   UNL     1       4.611   6.888  16.695  0.00  0.00    +0.000 C 
BRANCH  25  26
ATOM     26  C   UNL     1       3.799   7.411  17.817  0.00  0.00    +0.000 C 
ATOM     27  C   UNL     1       2.553   7.904  17.718  0.00  0.00    +0.000 C 
BRANCH  27  28
ATOM     28  C   UNL     1       1.770   8.522  18.844  0.00  0.00    +0.000 C 
BRANCH  28  29
ATOM     29  C   UNL     1       1.355   9.968  18.550  0.00  0.00    +0.000 C 
BRANCH  29  30
ATOM     30  C   UNL     1       0.296  10.436  19.538  0.00  0.00    +0.000 C 
BRANCH  30  31
ATOM     31  C   UNL     1       0.941  11.520  20.273  0.00  0.00    +0.000 C 
ATOM     32  O   UNL     1       1.428  12.595  19.897  0.00  0.00    +0.000 OA
BRANCH  31  33
ATOM     33  O   UNL     1       0.919  11.212  21.536  0.00  0.00    +0.000 OA
ATOM     34  H   UNL     1       0.369  10.383  21.523  0.00  0.00    +0.000 HD
ENDBRANCH  31  33
ENDBRANCH  30  31
ENDBRANCH  29  30
ENDBRANCH  28  29
ENDBRANCH  27  28
ENDBRANCH  25  26
ENDBRANCH   7  25
TORSDOF 16
ENDMDL
MODEL 3
REMARK VINA RESULT:      -7.2      1.394      1.832
REMARK  Name = 
REMARK  17 active torsions:
REMARK  status: ('A' for Active; 'I' for Inactive)
REMARK    1  A    between atoms: C_1  and  C_2
REMARK    2  A    between atoms: C_2  and  C_3
REMARK    3  A    between atoms: C_3  and  C_4
REMARK    4  A    between atoms: C_4  and  C_5
REMARK    5  A    between atoms: C_5  and  C_6
REMARK    6  A    between atoms: C_6  and  O_7
REMARK    7  A    between atoms: C_6  and  C_8
REMARK    8  A    between atoms: C_9  and  C_10
REMARK    9  A    between atoms: C_13  and  C_14
REMARK   10  A    between atoms: C_14  and  C_15
REMARK   11  A    between atoms: C_23  and  C_24
REMARK   12  A    between atoms: C_24  and  C_25
REMARK   13  A    between atoms: C_26  and  C_27
REMARK   14  A    between atoms: C_27  and  C_28
REMARK   15  A    between atoms: C_28  and  C_29
REMARK   16  A    between atoms: C_29  and  C_30
REMARK   17  A    between atoms: C_30  and  O_32
REMARK                            x       y       z     vdW  Elec       q    Type
REMARK                         _______ _______ _______ _____ _____    ______ ____
ROOT
ATOM      1  C   UNL     1       5.478   5.615  18.788  0.00  0.00    +0.000 C 
ATOM      2  C   UNL     1       7.005   5.708  19.005  0.00  0.00    +0.000 C 
ATOM      3  C   UNL     1       7.467   6.672  17.915  0.00  0.00    +0.000 C 
ATOM      4  C   UNL     1       6.877   5.797  16.796  0.00  0.00    +0.000 C 
ATOM      5  C   UNL     1       7.590   4.484  17.172  0.00  0.00    +0.000 C 
ATOM      6  O   UNL     1       7.605   4.459  18.607  0.00  0.00    +0.000 OA
ATOM      7  C   UNL     1       5.374   5.723  17.224  0.00  0.00    +0.000 C 
ENDROOT
BRANCH   1   9
ATOM      8  C   UNL     1       4.500   3.294  18.652  0.00  0.00    +0.000 C 
ATOM      9  C   UNL     1       4.827   4.362  19.333  0.00  0.00    +0.000 C 
BRANCH   8  10
ATOM     10  C   UNL     1       3.915   2.020  19.238  0.00  0.00    +0.000 C 
BRANCH  10  11
ATOM     11  O   UNL     1       4.130   1.994  20.686  0.00  0.00    +0.000 OA
ATOM     12  H   UNL     1       5.062   1.910  20.942  0.00  0.00    +0.000 HD
ENDBRANCH  10  11
BRANCH  10  13
ATOM     13  C   UNL     1       2.476   1.761  19.229  0.00  0.00    +0.000 C 
BRANCH  13  14
ATOM     14  C   UNL     1       1.931   2.376  17.996  0.00  0.00    +0.000 C 
BRANCH  14  15
ATOM     15  C   UNL     1       1.264   3.642  18.421  0.00  0.00    +0.000 C 
BRANCH  15  17
ATOM     16  C   UNL     1       1.299   4.653  20.662  0.00  0.00    +0.000 C 
ATOM     17  C   UNL     1       0.838   3.472  19.855  0.00  0.00    +0.000 C 
ENDBRANCH  15  17
ENDBRANCH  14  15
ENDBRANCH  13  14
ENDBRANCH  10  13
ENDBRANCH   8  10
ENDBRANCH   1   9
BRANCH   4  18
ATOM     18  C   UNL     1       7.145   6.218  15.344  0.00  0.00    +0.000 C 
BRANCH  18  19
ATOM     19  C   UNL     1       6.748   5.192  14.289  0.00  0.00    +0.000 A 
ATOM     20  C   UNL     1       5.548   4.480  14.416  0.00  0.00    +0.000 A 
ATOM     21  C   UNL     1       5.171   3.527  13.462  0.00  0.00    +0.000 A 
ATOM     22  C   UNL     1       5.980   3.279  12.355  0.00  0.00    +0.000 A 
ATOM     23  C   UNL     1       7.165   3.984  12.201  0.00  0.00    +0.000 A 
ATOM     24  C   UNL     1       7.538   4.934  13.156  0.00  0.00    +0.000 A 
ENDBRANCH  18  19
ENDBRANCH   4  18
BRANCH   7  25
ATOM     25  C   UNL     1       4.570   6.983  16.822  0.00  0.00    +0.000 C 
BRANCH  25  26
ATOM     26  C   UNL     1       3.551   7.346  17.833  0.00  0.00    +0.000 C 
ATOM     27  C   UNL     1       2.622   8.308  17.697  0.00  0.00    +0.000 C 
BRANCH  27  28
ATOM     28  C   UNL     1       1.653   8.736  18.764  0.00  0.00    +0.000 C 
BRANCH  28  29
ATOM     29  C   UNL     1       1.827   7.951  20.070  0.00  0.00    +0.000 C 
BRANCH  29  30
ATOM     30  C   UNL     1       1.523   8.833  21.273  0.00  0.00    +0.000 C 
BRANCH  30  31
ATOM     31  C   UNL     1       0.065   8.844  21.353  0.00  0.00    +0.000 C 
ATOM     32  O   UNL     1      -0.748   7.976  21.699  0.00  0.00    +0.000 OA
BRANCH  31  33
ATOM     33  O   UNL     1      -0.343  10.030  21.009  0.00  0.00    +0.000 OA
ATOM     34  H   UNL     1      -0.686   9.857  20.092  0.00  0.00    +0.000 HD
ENDBRANCH  31  33
ENDBRANCH  30  31
ENDBRANCH  29  30
ENDBRANCH  28  29
ENDBRANCH  27  28
ENDBRANCH  25  26
ENDBRANCH   7  25
TORSDOF 16
ENDMDL
MODEL 4
REMARK VINA RESULT:      -7.1      1.465      1.647
REMARK  Name = 
REMARK  17 active torsions:
REMARK  status: ('A' for Active; 'I' for Inactive)
REMARK    1  A    between atoms: C_1  and  C_2
REMARK    2  A    between atoms: C_2  and  C_3
REMARK    3  A    between atoms: C_3  and  C_4
REMARK    4  A    between atoms: C_4  and  C_5
REMARK    5  A    between atoms: C_5  and  C_6
REMARK    6  A    between atoms: C_6  and  O_7
REMARK    7  A    between atoms: C_6  and  C_8
REMARK    8  A    between atoms: C_9  and  C_10
REMARK    9  A    between atoms: C_13  and  C_14
REMARK   10  A    between atoms: C_14  and  C_15
REMARK   11  A    between atoms: C_23  and  C_24
REMARK   12  A    between atoms: C_24  and  C_25
REMARK   13  A    between atoms: C_26  and  C_27
REMARK   14  A    between atoms: C_27  and  C_28
REMARK   15  A    between atoms: C_28  and  C_29
REMARK   16  A    between atoms: C_29  and  C_30
REMARK   17  A    between atoms: C_30  and  O_32
REMARK                            x       y       z     vdW  Elec       q    Type
REMARK                         _______ _______ _______ _____ _____    ______ ____
ROOT
ATOM      1  C   UNL     1       5.619   5.600  18.859  0.00  0.00    +0.000 C 
ATOM      2  C   UNL     1       7.155   5.673  19.012  0.00  0.00    +0.000 C 
ATOM      3  C   UNL     1       7.580   6.656  17.924  0.00  0.00    +0.000 C 
ATOM      4  C   UNL     1       6.934   5.809  16.814  0.00  0.00    +0.000 C 
ATOM      5  C   UNL     1       7.649   4.483  17.131  0.00  0.00    +0.000 C 
ATOM      6  O   UNL     1       7.724   4.428  18.565  0.00  0.00    +0.000 OA
ATOM      7  C   UNL     1       5.450   5.741  17.304  0.00  0.00    +0.000 C 
ENDROOT
BRANCH   1   9
ATOM      8  C   UNL     1       4.531   3.329  18.710  0.00  0.00    +0.000 C 
ATOM      9  C   UNL     1       4.979   4.342  19.405  0.00  0.00    +0.000 C 
BRANCH   8  10
ATOM     10  C   UNL     1       3.960   2.045  19.287  0.00  0.00    +0.000 C 
BRANCH  10  11
ATOM     11  O   UNL     1       3.882   2.148  20.746  0.00  0.00    +0.000 OA
ATOM     12  H   UNL     1       3.551   1.345  21.178  0.00  0.00    +0.000 HD
ENDBRANCH  10  11
BRANCH  10  13
ATOM     13  C   UNL     1       2.581   1.633  19.028  0.00  0.00    +0.000 C 
BRANCH  13  14
ATOM     14  C   UNL     1       1.821   2.856  18.677  0.00  0.00    +0.000 C 
BRANCH  14  15
ATOM     15  C   UNL     1       0.610   2.858  19.550  0.00  0.00    +0.000 C 
BRANCH  15  17
ATOM     16  C   UNL     1       1.605   4.968  20.329  0.00  0.00    +0.000 C 
ATOM     17  C   UNL     1       0.923   3.700  20.759  0.00  0.00    +0.000 C 
ENDBRANCH  15  17
ENDBRANCH  14  15
ENDBRANCH  13  14
ENDBRANCH  10  13
ENDBRANCH   8  10
ENDBRANCH   1   9
BRANCH   4  18
ATOM     18  C   UNL     1       7.144   6.258  15.360  0.00  0.00    +0.000 C 
BRANCH  18  19
ATOM     19  C   UNL     1       6.743   5.236  14.303  0.00  0.00    +0.000 A 
ATOM     20  C   UNL     1       7.568   5.014  13.192  0.00  0.00    +0.000 A 
ATOM     21  C   UNL     1       7.213   4.085  12.206  0.00  0.00    +0.000 A 
ATOM     22  C   UNL     1       6.034   3.351  12.320  0.00  0.00    +0.000 A 
ATOM     23  C   UNL     1       5.210   3.544  13.420  0.00  0.00    +0.000 A 
ATOM     24  C   UNL     1       5.568   4.472  14.402  0.00  0.00    +0.000 A 
ENDBRANCH  18  19
ENDBRANCH   4  18
BRANCH   7  25
ATOM     25  C   UNL     1       4.642   7.017  16.962  0.00  0.00    +0.000 C 
BRANCH  25  26
ATOM     26  C   UNL     1       3.332   7.055  17.651  0.00  0.00    +0.000 C 
ATOM     27  C   UNL     1       2.691   8.166  18.051  0.00  0.00    +0.000 C 
BRANCH  27  28
ATOM     28  C   UNL     1       1.409   8.194  18.837  0.00  0.00    +0.000 C 
BRANCH  28  29
ATOM     29  C   UNL     1       1.502   9.075  20.088  0.00  0.00    +0.000 C 
BRANCH  29  30
ATOM     30  C   UNL     1       0.793   8.419  21.264  0.00  0.00    +0.000 C 
BRANCH  30  31
ATOM     31  C   UNL     1       0.332   9.539  22.079  0.00  0.00    +0.000 C 
ATOM     32  O   UNL     1       0.633  10.740  22.074  0.00  0.00    +0.000 OA
BRANCH  31  33
ATOM     33  O   UNL     1      -0.572   9.088  22.898  0.00  0.00    +0.000 OA
ATOM     34  H   UNL     1      -1.065   8.454  22.312  0.00  0.00    +0.000 HD
ENDBRANCH  31  33
ENDBRANCH  30  31
ENDBRANCH  29  30
ENDBRANCH  28  29
ENDBRANCH  27  28
ENDBRANCH  25  26
ENDBRANCH   7  25
TORSDOF 16
ENDMDL
MODEL 5
REMARK VINA RESULT:      -7.1      1.052      1.426
REMARK  Name = 
REMARK  17 active torsions:
REMARK  status: ('A' for Active; 'I' for Inactive)
REMARK    1  A    between atoms: C_1  and  C_2
REMARK    2  A    between atoms: C_2  and  C_3
REMARK    3  A    between atoms: C_3  and  C_4
REMARK    4  A    between atoms: C_4  and  C_5
REMARK    5  A    between atoms: C_5  and  C_6
REMARK    6  A    between atoms: C_6  and  O_7
REMARK    7  A    between atoms: C_6  and  C_8
REMARK    8  A    between atoms: C_9  and  C_10
REMARK    9  A    between atoms: C_13  and  C_14
REMARK   10  A    between atoms: C_14  and  C_15
REMARK   11  A    between atoms: C_23  and  C_24
REMARK   12  A    between atoms: C_24  and  C_25
REMARK   13  A    between atoms: C_26  and  C_27
REMARK   14  A    between atoms: C_27  and  C_28
REMARK   15  A    between atoms: C_28  and  C_29
REMARK   16  A    between atoms: C_29  and  C_30
REMARK   17  A    between atoms: C_30  and  O_32
REMARK                            x       y       z     vdW  Elec       q    Type
REMARK                         _______ _______ _______ _____ _____    ______ ____
ROOT
ATOM      1  C   UNL     1       5.387   5.448  18.834  0.00  0.00    +0.000 C 
ATOM      2  C   UNL     1       6.911   5.608  19.040  0.00  0.00    +0.000 C 
ATOM      3  C   UNL     1       7.317   6.612  17.964  0.00  0.00    +0.000 C 
ATOM      4  C   UNL     1       6.757   5.731  16.835  0.00  0.00    +0.000 C 
ATOM      5  C   UNL     1       7.534   4.446  17.179  0.00  0.00    +0.000 C 
ATOM      6  O   UNL     1       7.563   4.396  18.614  0.00  0.00    +0.000 OA
ATOM      7  C   UNL     1       5.264   5.580  17.274  0.00  0.00    +0.000 C 
ENDROOT
BRANCH   1   9
ATOM      8  C   UNL     1       3.790   4.036  20.183  0.00  0.00    +0.000 C 
ATOM      9  C   UNL     1       4.801   4.156  19.362  0.00  0.00    +0.000 C 
BRANCH   8  10
ATOM     10  C   UNL     1       3.175   2.724  20.638  0.00  0.00    +0.000 C 
BRANCH  10  11
ATOM     11  O   UNL     1       2.816   2.810  22.055  0.00  0.00    +0.000 OA
ATOM     12  H   UNL     1       3.360   2.249  22.632  0.00  0.00    +0.000 HD
ENDBRANCH  10  11
BRANCH  10  13
ATOM     13  C   UNL     1       1.889   2.258  20.120  0.00  0.00    +0.000 C 
BRANCH  13  14
ATOM     14  C   UNL     1       1.082   3.462  19.813  0.00  0.00    +0.000 C 
BRANCH  14  15
ATOM     15  C   UNL     1       0.626   3.309  18.400  0.00  0.00    +0.000 C 
BRANCH  15  17
ATOM     16  C   UNL     1       2.519   3.397  16.832  0.00  0.00    +0.000 C 
ATOM     17  C   UNL     1       1.478   4.212  17.547  0.00  0.00    +0.000 C 
ENDBRANCH  15  17
ENDBRANCH  14  15
ENDBRANCH  13  14
ENDBRANCH  10  13
ENDBRANCH   8  10
ENDBRANCH   1   9
BRANCH   4  18
ATOM     18  C   UNL     1       6.991   6.190  15.388  0.00  0.00    +0.000 C 
BRANCH  18  19
ATOM     19  C   UNL     1       6.633   5.166  14.318  0.00  0.00    +0.000 A 
ATOM     20  C   UNL     1       7.503   4.939  13.243  0.00  0.00    +0.000 A 
ATOM     21  C   UNL     1       7.188   4.008  12.246  0.00  0.00    +0.000 A 
ATOM     22  C   UNL     1       6.004   3.277  12.312  0.00  0.00    +0.000 A 
ATOM     23  C   UNL     1       5.135   3.475  13.375  0.00  0.00    +0.000 A 
ATOM     24  C   UNL     1       5.453   4.404  14.369  0.00  0.00    +0.000 A 
ENDBRANCH  18  19
ENDBRANCH   4  18
BRANCH   7  25
ATOM     25  C   UNL     1       4.398   6.808  16.902  0.00  0.00    +0.000 C 
BRANCH  25  26
ATOM     26  C   UNL     1       3.404   7.133  17.951  0.00  0.00    +0.000 C 
ATOM     27  C   UNL     1       2.619   8.223  17.972  0.00  0.00    +0.000 C 
BRANCH  27  28
ATOM     28  C   UNL     1       1.681   8.596  19.087  0.00  0.00    +0.000 C 
BRANCH  28  29
ATOM     29  C   UNL     1       0.710   9.716  18.693  0.00  0.00    +0.000 C 
BRANCH  29  30
ATOM     30  C   UNL     1       1.387  11.076  18.792  0.00  0.00    +0.000 C 
BRANCH  30  31
ATOM     31  C   UNL     1       0.892  11.635  20.047  0.00  0.00    +0.000 C 
ATOM     32  O   UNL     1       1.274  11.498  21.217  0.00  0.00    +0.000 OA
BRANCH  31  33
ATOM     33  O   UNL     1      -0.105  12.422  19.766  0.00  0.00    +0.000 OA
ATOM     34  H   UNL     1      -0.198  12.926  20.617  0.00  0.00    +0.000 HD
ENDBRANCH  31  33
ENDBRANCH  30  31
ENDBRANCH  29  30
ENDBRANCH  28  29
ENDBRANCH  27  28
ENDBRANCH  25  26
ENDBRANCH   7  25
TORSDOF 16
ENDMDL
MODEL 6
REMARK VINA RESULT:      -7.0      2.537      7.151
REMARK  Name = 
REMARK  17 active torsions:
REMARK  status: ('A' for Active; 'I' for Inactive)
REMARK    1  A    between atoms: C_1  and  C_2
REMARK    2  A    between atoms: C_2  and  C_3
REMARK    3  A    between atoms: C_3  and  C_4
REMARK    4  A    between atoms: C_4  and  C_5
REMARK    5  A    between atoms: C_5  and  C_6
REMARK    6  A    between atoms: C_6  and  O_7
REMARK    7  A    between atoms: C_6  and  C_8
REMARK    8  A    between atoms: C_9  and  C_10
REMARK    9  A    between atoms: C_13  and  C_14
REMARK   10  A    between atoms: C_14  and  C_15
REMARK   11  A    between atoms: C_23  and  C_24
REMARK   12  A    between atoms: C_24  and  C_25
REMARK   13  A    between atoms: C_26  and  C_27
REMARK   14  A    between atoms: C_27  and  C_28
REMARK   15  A    between atoms: C_28  and  C_29
REMARK   16  A    between atoms: C_29  and  C_30
REMARK   17  A    between atoms: C_30  and  O_32
REMARK                            x       y       z     vdW  Elec       q    Type
REMARK                         _______ _______ _______ _____ _____    ______ ____
ROOT
ATOM      1  C   UNL     1       6.521   4.678  16.416  0.00  0.00    +0.000 C 
ATOM      2  C   UNL     1       6.748   6.131  16.892  0.00  0.00    +0.000 C 
ATOM      3  C   UNL     1       6.056   6.177  18.252  0.00  0.00    +0.000 C 
ATOM      4  C   UNL     1       4.707   5.739  17.656  0.00  0.00    +0.000 C 
ATOM      5  C   UNL     1       4.602   6.832  16.577  0.00  0.00    +0.000 C 
ATOM      6  O   UNL     1       5.940   7.011  16.088  0.00  0.00    +0.000 OA
ATOM      7  C   UNL     1       5.092   4.376  16.993  0.00  0.00    +0.000 C 
ENDROOT
BRANCH   1   9
ATOM      8  C   UNL     1       5.789   3.763  14.183  0.00  0.00    +0.000 C 
ATOM      9  C   UNL     1       6.603   4.474  14.919  0.00  0.00    +0.000 C 
BRANCH   8  10
ATOM     10  C   UNL     1       5.851   3.634  12.670  0.00  0.00    +0.000 C 
BRANCH  10  11
ATOM     11  O   UNL     1       6.035   2.231  12.298  0.00  0.00    +0.000 OA
ATOM     12  H   UNL     1       6.863   2.057  11.822  0.00  0.00    +0.000 HD
ENDBRANCH  10  11
BRANCH  10  13
ATOM     13  C   UNL     1       4.694   3.929  11.826  0.00  0.00    +0.000 C 
BRANCH  13  14
ATOM     14  C   UNL     1       4.204   2.636  11.293  0.00  0.00    +0.000 C 
BRANCH  14  15
ATOM     15  C   UNL     1       3.162   2.973  10.278  0.00  0.00    +0.000 C 
BRANCH  15  17
ATOM     16  C   UNL     1       2.182   4.856   9.036  0.00  0.00    +0.000 C 
ATOM     17  C   UNL     1       3.287   4.441   9.967  0.00  0.00    +0.000 C 
ENDBRANCH  15  17
ENDBRANCH  14  15
ENDBRANCH  13  14
ENDBRANCH  10  13
ENDBRANCH   8  10
ENDBRANCH   1   9
BRANCH   4  18
ATOM     18  C   UNL     1       3.489   5.715  18.591  0.00  0.00    +0.000 C 
BRANCH  18  19
ATOM     19  C   UNL     1       2.745   7.039  18.719  0.00  0.00    +0.000 A 
ATOM     20  C   UNL     1       2.095   7.367  19.916  0.00  0.00    +0.000 A 
ATOM     21  C   UNL     1       1.399   8.575  20.050  0.00  0.00    +0.000 A 
ATOM     22  C   UNL     1       1.353   9.483  18.995  0.00  0.00    +0.000 A 
ATOM     23  C   UNL     1       2.003   9.186  17.805  0.00  0.00    +0.000 A 
ATOM     24  C   UNL     1       2.696   7.979  17.675  0.00  0.00    +0.000 A 
ENDBRANCH  18  19
ENDBRANCH   4  18
BRANCH   7  25
ATOM     25  C   UNL     1       5.155   3.208  18.008  0.00  0.00    +0.000 C 
BRANCH  25  26
ATOM     26  C   UNL     1       3.813   2.673  18.332  0.00  0.00    +0.000 C 
ATOM     27  C   UNL     1       2.703   2.846  17.594  0.00  0.00    +0.000 C 
BRANCH  27  28
ATOM     28  C   UNL     1       1.324   2.384  17.977  0.00  0.00    +0.000 C 
BRANCH  28  29
ATOM     29  C   UNL     1       1.153   2.229  19.493  0.00  0.00    +0.000 C 
BRANCH  29  30
ATOM     30  C   UNL     1       0.911   3.581  20.149  0.00  0.00    +0.000 C 
BRANCH  30  31
ATOM     31  C   UNL     1       1.806   3.589  21.302  0.00  0.00    +0.000 C 
ATOM     32  O   UNL     1       2.604   4.440  21.719  0.00  0.00    +0.000 OA
BRANCH  31  33
ATOM     33  O   UNL     1       1.631   2.475  21.949  0.00  0.00    +0.000 OA
ATOM     34  H   UNL     1       2.368   2.520  22.615  0.00  0.00    +0.000 HD
ENDBRANCH  31  33
ENDBRANCH  30  31
ENDBRANCH  29  30
ENDBRANCH  28  29
ENDBRANCH  27  28
ENDBRANCH  25  26
ENDBRANCH   7  25
TORSDOF 16
ENDMDL
MODEL 7
REMARK VINA RESULT:      -6.9      0.815      1.264
REMARK  Name = 
REMARK  17 active torsions:
REMARK  status: ('A' for Active; 'I' for Inactive)
REMARK    1  A    between atoms: C_1  and  C_2
REMARK    2  A    between atoms: C_2  and  C_3
REMARK    3  A    between atoms: C_3  and  C_4
REMARK    4  A    between atoms: C_4  and  C_5
REMARK    5  A    between atoms: C_5  and  C_6
REMARK    6  A    between atoms: C_6  and  O_7
REMARK    7  A    between atoms: C_6  and  C_8
REMARK    8  A    between atoms: C_9  and  C_10
REMARK    9  A    between atoms: C_13  and  C_14
REMARK   10  A    between atoms: C_14  and  C_15
REMARK   11  A    between atoms: C_23  and  C_24
REMARK   12  A    between atoms: C_24  and  C_25
REMARK   13  A    between atoms: C_26  and  C_27
REMARK   14  A    between atoms: C_27  and  C_28
REMARK   15  A    between atoms: C_28  and  C_29
REMARK   16  A    between atoms: C_29  and  C_30
REMARK   17  A    between atoms: C_30  and  O_32
REMARK                            x       y       z     vdW  Elec       q    Type
REMARK                         _______ _______ _______ _____ _____    ______ ____
ROOT
ATOM      1  C   UNL     1       5.316   5.327  18.570  0.00  0.00    +0.000 C 
ATOM      2  C   UNL     1       6.805   5.535  18.926  0.00  0.00    +0.000 C 
ATOM      3  C   UNL     1       7.274   6.583  17.920  0.00  0.00    +0.000 C 
ATOM      4  C   UNL     1       6.859   5.715  16.720  0.00  0.00    +0.000 C 
ATOM      5  C   UNL     1       7.648   4.450  17.106  0.00  0.00    +0.000 C 
ATOM      6  O   UNL     1       7.542   4.360  18.536  0.00  0.00    +0.000 OA
ATOM      7  C   UNL     1       5.337   5.498  17.009  0.00  0.00    +0.000 C 
ENDROOT
BRANCH   1   9
ATOM      8  C   UNL     1       4.045   3.170  18.266  0.00  0.00    +0.000 C 
ATOM      9  C   UNL     1       4.731   4.001  19.007  0.00  0.00    +0.000 C 
BRANCH   8  10
ATOM     10  C   UNL     1       3.533   1.810  18.709  0.00  0.00    +0.000 C 
BRANCH  10  11
ATOM     11  O   UNL     1       4.254   1.373  19.906  0.00  0.00    +0.000 OA
ATOM     12  H   UNL     1       3.679   1.008  20.599  0.00  0.00    +0.000 HD
ENDBRANCH  10  11
BRANCH  10  13
ATOM     13  C   UNL     1       2.168   1.627  19.203  0.00  0.00    +0.000 C 
BRANCH  13  14
ATOM     14  C   UNL     1       1.587   2.978  19.386  0.00  0.00    +0.000 C 
BRANCH  14  15
ATOM     15  C   UNL     1       1.219   3.080  20.829  0.00  0.00    +0.000 C 
BRANCH  15  17
ATOM     16  C   UNL     1       1.843   5.457  20.727  0.00  0.00    +0.000 C 
ATOM     17  C   UNL     1       2.077   4.156  21.442  0.00  0.00    +0.000 C 
ENDBRANCH  15  17
ENDBRANCH  14  15
ENDBRANCH  13  14
ENDBRANCH  10  13
ENDBRANCH   8  10
ENDBRANCH   1   9
BRANCH   4  18
ATOM     18  C   UNL     1       7.212   6.223  15.315  0.00  0.00    +0.000 C 
BRANCH  18  19
ATOM     19  C   UNL     1       6.927   5.244  14.182  0.00  0.00    +0.000 A 
ATOM     20  C   UNL     1       5.801   4.413  14.238  0.00  0.00    +0.000 A 
ATOM     21  C   UNL     1       5.527   3.501  13.211  0.00  0.00    +0.000 A 
ATOM     22  C   UNL     1       6.366   3.414  12.102  0.00  0.00    +0.000 A 
ATOM     23  C   UNL     1       7.478   4.239  12.019  0.00  0.00    +0.000 A 
ATOM     24  C   UNL     1       7.749   5.148  13.045  0.00  0.00    +0.000 A 
ENDBRANCH  18  19
ENDBRANCH   4  18
BRANCH   7  25
ATOM     25  C   UNL     1       4.464   6.705  16.586  0.00  0.00    +0.000 C 
BRANCH  25  26
ATOM     26  C   UNL     1       3.821   7.367  17.744  0.00  0.00    +0.000 C 
ATOM     27  C   UNL     1       2.517   7.672  17.845  0.00  0.00    +0.000 C 
BRANCH  27  28
ATOM     28  C   UNL     1       1.887   8.431  18.981  0.00  0.00    +0.000 C 
BRANCH  28  29
ATOM     29  C   UNL     1       1.228   9.738  18.524  0.00  0.00    +0.000 C 
BRANCH  29  30
ATOM     30  C   UNL     1       2.253  10.664  17.885  0.00  0.00    +0.000 C 
BRANCH  30  31
ATOM     31  C   UNL     1       1.964  11.974  18.460  0.00  0.00    +0.000 C 
ATOM     32  O   UNL     1       1.517  12.308  19.566  0.00  0.00    +0.000 OA
BRANCH  31  33
ATOM     33  O   UNL     1       2.303  12.876  17.586  0.00  0.00    +0.000 OA
ATOM     34  H   UNL     1       2.924  12.359  17.007  0.00  0.00    +0.000 HD
ENDBRANCH  31  33
ENDBRANCH  30  31
ENDBRANCH  29  30
ENDBRANCH  28  29
ENDBRANCH  27  28
ENDBRANCH  25  26
ENDBRANCH   7  25
TORSDOF 16
ENDMDL
MODEL 8
REMARK VINA RESULT:      -6.9      3.569      8.719
REMARK  Name = 
REMARK  17 active torsions:
REMARK  status: ('A' for Active; 'I' for Inactive)
REMARK    1  A    between atoms: C_1  and  C_2
REMARK    2  A    between atoms: C_2  and  C_3
REMARK    3  A    between atoms: C_3  and  C_4
REMARK    4  A    between atoms: C_4  and  C_5
REMARK    5  A    between atoms: C_5  and  C_6
REMARK    6  A    between atoms: C_6  and  O_7
REMARK    7  A    between atoms: C_6  and  C_8
REMARK    8  A    between atoms: C_9  and  C_10
REMARK    9  A    between atoms: C_13  and  C_14
REMARK   10  A    between atoms: C_14  and  C_15
REMARK   11  A    between atoms: C_23  and  C_24
REMARK   12  A    between atoms: C_24  and  C_25
REMARK   13  A    between atoms: C_26  and  C_27
REMARK   14  A    between atoms: C_27  and  C_28
REMARK   15  A    between atoms: C_28  and  C_29
REMARK   16  A    between atoms: C_29  and  C_30
REMARK   17  A    between atoms: C_30  and  O_32
REMARK                            x       y       z     vdW  Elec       q    Type
REMARK                         _______ _______ _______ _____ _____    ______ ____
ROOT
ATOM      1  C   UNL     1       6.782   5.971  17.068  0.00  0.00    +0.000 C 
ATOM      2  C   UNL     1       6.541   4.903  18.159  0.00  0.00    +0.000 C 
ATOM      3  C   UNL     1       5.135   4.390  17.857  0.00  0.00    +0.000 C 
ATOM      4  C   UNL     1       4.524   5.797  17.976  0.00  0.00    +0.000 C 
ATOM      5  C   UNL     1       5.058   6.129  19.381  0.00  0.00    +0.000 C 
ATOM      6  O   UNL     1       6.378   5.567  19.427  0.00  0.00    +0.000 OA
ATOM      7  C   UNL     1       5.344   6.580  16.899  0.00  0.00    +0.000 C 
ENDROOT
BRANCH   1   9
ATOM      8  C   UNL     1       7.614   8.289  17.613  0.00  0.00    +0.000 C 
ATOM      9  C   UNL     1       7.824   7.014  17.411  0.00  0.00    +0.000 C 
BRANCH   8  10
ATOM     10  C   UNL     1       8.667   9.301  18.029  0.00  0.00    +0.000 C 
BRANCH  10  11
ATOM     11  O   UNL     1       8.305  10.629  17.529  0.00  0.00    +0.000 OA
ATOM     12  H   UNL     1       7.457  10.652  17.057  0.00  0.00    +0.000 HD
ENDBRANCH  10  11
BRANCH  10  13
ATOM     13  C   UNL     1       8.884   9.652  19.432  0.00  0.00    +0.000 C 
BRANCH  13  14
ATOM     14  C   UNL     1       9.418  11.034  19.457  0.00  0.00    +0.000 C 
BRANCH  14  15
ATOM     15  C   UNL     1       9.492  11.426  20.895  0.00  0.00    +0.000 C 
BRANCH  15  17
ATOM     16  C   UNL     1      11.677  12.074  19.972  0.00  0.00    +0.000 C 
ATOM     17  C   UNL     1      10.672  12.347  21.056  0.00  0.00    +0.000 C 
ENDBRANCH  15  17
ENDBRANCH  14  15
ENDBRANCH  13  14
ENDBRANCH  10  13
ENDBRANCH   8  10
ENDBRANCH   1   9
BRANCH   4  18
ATOM     18  C   UNL     1       2.996   5.921  17.881  0.00  0.00    +0.000 C 
BRANCH  18  19
ATOM     19  C   UNL     1       2.212   4.853  18.635  0.00  0.00    +0.000 A 
ATOM     20  C   UNL     1       1.802   3.686  17.976  0.00  0.00    +0.000 A 
ATOM     21  C   UNL     1       1.073   2.698  18.649  0.00  0.00    +0.000 A 
ATOM     22  C   UNL     1       0.755   2.850  19.996  0.00  0.00    +0.000 A 
ATOM     23  C   UNL     1       1.165   3.990  20.672  0.00  0.00    +0.000 A 
ATOM     24  C   UNL     1       1.891   4.975  19.998  0.00  0.00    +0.000 A 
ENDBRANCH  18  19
ENDBRANCH   4  18
BRANCH   7  25
ATOM     25  C   UNL     1       4.825   6.349  15.458  0.00  0.00    +0.000 C 
BRANCH  25  26
ATOM     26  C   UNL     1       5.167   5.002  14.948  0.00  0.00    +0.000 C 
ATOM     27  C   UNL     1       6.165   4.720  14.093  0.00  0.00    +0.000 C 
BRANCH  27  28
ATOM     28  C   UNL     1       6.446   3.366  13.502  0.00  0.00    +0.000 C 
BRANCH  28  29
ATOM     29  C   UNL     1       6.318   3.350  11.974  0.00  0.00    +0.000 C 
BRANCH  29  30
ATOM     30  C   UNL     1       5.399   2.224  11.523  0.00  0.00    +0.000 C 
BRANCH  30  31
ATOM     31  C   UNL     1       6.305   1.129  11.191  0.00  0.00    +0.000 C 
ATOM     32  O   UNL     1       6.103  -0.079  11.001  0.00  0.00    +0.000 OA
BRANCH  31  33
ATOM     33  O   UNL     1       7.500   1.626  11.066  0.00  0.00    +0.000 OA
ATOM     34  H   UNL     1       7.843   1.110  10.288  0.00  0.00    +0.000 HD
ENDBRANCH  31  33
ENDBRANCH  30  31
ENDBRANCH  29  30
ENDBRANCH  28  29
ENDBRANCH  27  28
ENDBRANCH  25  26
ENDBRANCH   7  25
TORSDOF 16
ENDMDL
MODEL 9
REMARK VINA RESULT:      -6.9      2.135      5.497
REMARK  Name = 
REMARK  17 active torsions:
REMARK  status: ('A' for Active; 'I' for Inactive)
REMARK    1  A    between atoms: C_1  and  C_2
REMARK    2  A    between atoms: C_2  and  C_3
REMARK    3  A    between atoms: C_3  and  C_4
REMARK    4  A    between atoms: C_4  and  C_5
REMARK    5  A    between atoms: C_5  and  C_6
REMARK    6  A    between atoms: C_6  and  O_7
REMARK    7  A    between atoms: C_6  and  C_8
REMARK    8  A    between atoms: C_9  and  C_10
REMARK    9  A    between atoms: C_13  and  C_14
REMARK   10  A    between atoms: C_14  and  C_15
REMARK   11  A    between atoms: C_23  and  C_24
REMARK   12  A    between atoms: C_24  and  C_25
REMARK   13  A    between atoms: C_26  and  C_27
REMARK   14  A    between atoms: C_27  and  C_28
REMARK   15  A    between atoms: C_28  and  C_29
REMARK   16  A    between atoms: C_29  and  C_30
REMARK   17  A    between atoms: C_30  and  O_32
REMARK                            x       y       z     vdW  Elec       q    Type
REMARK                         _______ _______ _______ _____ _____    ______ ____
ROOT
ATOM      1  C   UNL     1       3.534   6.193  17.608  0.00  0.00    +0.000 C 
ATOM      2  C   UNL     1       4.328   7.254  16.814  0.00  0.00    +0.000 C 
ATOM      3  C   UNL     1       5.017   6.445  15.718  0.00  0.00    +0.000 C 
ATOM      4  C   UNL     1       5.715   5.531  16.739  0.00  0.00    +0.000 C 
ATOM      5  C   UNL     1       6.389   6.638  17.570  0.00  0.00    +0.000 C 
ATOM      6  O   UNL     1       5.431   7.707  17.622  0.00  0.00    +0.000 OA
ATOM      7  C   UNL     1       4.491   4.951  17.522  0.00  0.00    +0.000 C 
ENDROOT
BRANCH   1   9
ATOM      8  C   UNL     1       2.101   7.152  19.450  0.00  0.00    +0.000 C 
ATOM      9  C   UNL     1       3.200   6.577  19.034  0.00  0.00    +0.000 C 
BRANCH   8  10
ATOM     10  C   UNL     1       1.760   7.460  20.898  0.00  0.00    +0.000 C 
BRANCH  10  11
ATOM     11  O   UNL     1       2.319   8.760  21.274  0.00  0.00    +0.000 OA
ATOM     12  H   UNL     1       3.164   8.701  21.748  0.00  0.00    +0.000 HD
ENDBRANCH  10  11
BRANCH  10  13
ATOM     13  C   UNL     1       0.382   7.685  21.331  0.00  0.00    +0.000 C 
BRANCH  13  14
ATOM     14  C   UNL     1       0.248   9.133  21.619  0.00  0.00    +0.000 C 
BRANCH  14  15
ATOM     15  C   UNL     1      -0.489   9.233  22.914  0.00  0.00    +0.000 C 
BRANCH  15  17
ATOM     16  C   UNL     1      -0.424  11.491  21.942  0.00  0.00    +0.000 C 
ATOM     17  C   UNL     1      -1.014  10.640  23.030  0.00  0.00    +0.000 C 
ENDBRANCH  15  17
ENDBRANCH  14  15
ENDBRANCH  13  14
ENDBRANCH  10  13
ENDBRANCH   8  10
ENDBRANCH   1   9
BRANCH   4  18
ATOM     18  C   UNL     1       6.721   4.501  16.204  0.00  0.00    +0.000 C 
BRANCH  18  19
ATOM     19  C   UNL     1       6.830   4.432  14.685  0.00  0.00    +0.000 A 
ATOM     20  C   UNL     1       6.034   3.533  13.963  0.00  0.00    +0.000 A 
ATOM     21  C   UNL     1       6.125   3.448  12.569  0.00  0.00    +0.000 A 
ATOM     22  C   UNL     1       7.004   4.271  11.868  0.00  0.00    +0.000 A 
ATOM     23  C   UNL     1       7.790   5.180  12.561  0.00  0.00    +0.000 A 
ATOM     24  C   UNL     1       7.697   5.262  13.953  0.00  0.00    +0.000 A 
ENDBRANCH  18  19
ENDBRANCH   4  18
BRANCH   7  25
ATOM     25  C   UNL     1       3.797   3.784  16.778  0.00  0.00    +0.000 C 
BRANCH  25  26
ATOM     26  C   UNL     1       2.477   3.453  17.362  0.00  0.00    +0.000 C 
ATOM     27  C   UNL     1       2.256   2.549  18.332  0.00  0.00    +0.000 C 
BRANCH  27  28
ATOM     28  C   UNL     1       0.904   2.147  18.853  0.00  0.00    +0.000 C 
BRANCH  28  29
ATOM     29  C   UNL     1       0.371   3.113  19.919  0.00  0.00    +0.000 C 
BRANCH  29  30
ATOM     30  C   UNL     1       1.515   3.716  20.721  0.00  0.00    +0.000 C 
BRANCH  30  31
ATOM     31  C   UNL     1       1.737   2.765  21.806  0.00  0.00    +0.000 C 
ATOM     32  O   UNL     1       0.955   2.229  22.604  0.00  0.00    +0.000 OA
BRANCH  31  33
ATOM     33  O   UNL     1       3.004   2.476  21.829  0.00  0.00    +0.000 OA
ATOM     34  H   UNL     1       2.991   1.525  21.536  0.00  0.00    +0.000 HD
ENDBRANCH  31  33
ENDBRANCH  30  31
ENDBRANCH  29  30
ENDBRANCH  28  29
ENDBRANCH  27  28
ENDBRANCH  25  26
ENDBRANCH   7  25
TORSDOF 16
ENDMDL
