MODEL 1
REMARK VINA RESULT:      -6.1      0.000      0.000
REMARK  Name = 
REMARK  6 active torsions:
REMARK  status: ('A' for Active; 'I' for Inactive)
REMARK    1  A    between atoms: C_2  and  C_3
REMARK    2  A    between atoms: C_2  and  C_9
REMARK    3  A    between atoms: C_3  and  C_4
REMARK    4  A    between atoms: C_4  and  C_6
REMARK    5  A    between atoms: C_6  and  O_8
REMARK    6  A    between atoms: C_9  and  C_10
REMARK                            x       y       z     vdW  Elec       q    Type
REMARK                         _______ _______ _______ _____ _____    ______ ____
ROOT
ATOM      1  O   UNL     1       5.024   5.690  19.096  0.00  0.00    +0.000 OA
ATOM      2  C   UNL     1       4.264   5.943  18.158  0.00  0.00    +0.000 C 
ENDROOT
BRANCH   2   3
ATOM      3  C   UNL     1       4.774   5.922  16.740  0.00  0.00    +0.000 C 
BRANCH   3   4
ATOM      4  C   UNL     1       5.689   4.779  16.428  0.00  0.00    +0.000 C 
ATOM      5  O   UNL     1       5.356   3.614  16.223  0.00  0.00    +0.000 OA
BRANCH   4   6
ATOM      6  C   UNL     1       7.178   5.100  16.391  0.00  0.00    +0.000 C 
ATOM      7  O   UNL     1       7.618   6.128  15.922  0.00  0.00    +0.000 OA
BRANCH   6   8
ATOM      8  O   UNL     1       7.896   4.115  16.961  0.00  0.00    +0.000 OA
ATOM      9  H   UNL     1       7.388   3.716  17.706  0.00  0.00    +0.000 HD
ENDBRANCH   6   8
ENDBRANCH   4   6
ENDBRANCH   3   4
ENDBRANCH   2   3
BRANCH   2  10
ATOM     10  C   UNL     1       2.788   6.191  18.400  0.00  0.00    +0.000 C 
BRANCH  10  11
ATOM     11  C   UNL     1       2.020   4.965  18.805  0.00  0.00    +0.000 A 
ATOM     12  C   UNL     1       1.727   4.707  20.148  0.00  0.00    +0.000 A 
ATOM     13  C   UNL     1       1.091   3.520  20.504  0.00  0.00    +0.000 A 
ATOM     14  C   UNL     1       0.762   2.627  19.499  0.00  0.00    +0.000 A 
ATOM     15  N   UNL     1       1.015   2.846  18.193  0.00  0.00    +0.000 NA
ATOM     16  C   UNL     1       1.641   4.002  17.874  0.00  0.00    +0.000 A 
ENDBRANCH  10  11
ENDBRANCH   2  10
TORSDOF 6
ENDMDL
MODEL 2
REMARK VINA RESULT:      -6.1      1.266      1.522
REMARK  Name = 
REMARK  6 active torsions:
REMARK  status: ('A' for Active; 'I' for Inactive)
REMARK    1  A    between atoms: C_2  and  C_3
REMARK    2  A    between atoms: C_2  and  C_9
REMARK    3  A    between atoms: C_3  and  C_4
REMARK    4  A    between atoms: C_4  and  C_6
REMARK    5  A    between atoms: C_6  and  O_8
REMARK    6  A    between atoms: C_9  and  C_10
REMARK                            x       y       z     vdW  Elec       q    Type
REMARK                         _______ _______ _______ _____ _____    ______ ____
ROOT
ATOM      1  O   UNL     1       5.684   4.318  19.312  0.00  0.00    +0.000 OA
ATOM      2  C   UNL     1       5.070   5.025  18.508  0.00  0.00    +0.000 C 
ENDROOT
BRANCH   2   3
ATOM      3  C   UNL     1       5.568   5.180  17.096  0.00  0.00    +0.000 C 
BRANCH   3   4
ATOM      4  C   UNL     1       7.045   5.401  16.980  0.00  0.00    +0.000 C 
ATOM      5  O   UNL     1       7.860   4.628  16.483  0.00  0.00    +0.000 OA
BRANCH   4   6
ATOM      6  C   UNL     1       7.578   6.703  17.565  0.00  0.00    +0.000 C 
ATOM      7  O   UNL     1       7.554   7.754  16.961  0.00  0.00    +0.000 OA
BRANCH   6   8
ATOM      8  O   UNL     1       8.037   6.515  18.815  0.00  0.00    +0.000 OA
ATOM      9  H   UNL     1       8.294   7.380  19.213  0.00  0.00    +0.000 HD
ENDBRANCH   6   8
ENDBRANCH   4   6
ENDBRANCH   3   4
ENDBRANCH   2   3
BRANCH   2  10
ATOM     10  C   UNL     1       3.758   5.680  18.896  0.00  0.00    +0.000 C 
BRANCH  10  11
ATOM     11  C   UNL     1       2.618   4.715  19.059  0.00  0.00    +0.000 A 
ATOM     12  C   UNL     1       2.033   4.493  20.309  0.00  0.00    +0.000 A 
ATOM     13  C   UNL     1       1.036   3.530  20.448  0.00  0.00    +0.000 A 
ATOM     14  C   UNL     1       0.652   2.819  19.324  0.00  0.00    +0.000 A 
ATOM     15  N   UNL     1       1.183   3.013  18.099  0.00  0.00    +0.000 NA
ATOM     16  C   UNL     1       2.155   3.949  17.993  0.00  0.00    +0.000 A 
ENDBRANCH  10  11
ENDBRANCH   2  10
TORSDOF 6
ENDMDL
MODEL 3
REMARK VINA RESULT:      -6.1      1.769      2.830
REMARK  Name = 
REMARK  6 active torsions:
REMARK  status: ('A' for Active; 'I' for Inactive)
REMARK    1  A    between atoms: C_2  and  C_3
REMARK    2  A    between atoms: C_2  and  C_9
REMARK    3  A    between atoms: C_3  and  C_4
REMARK    4  A    between atoms: C_4  and  C_6
REMARK    5  A    between atoms: C_6  and  O_8
REMARK    6  A    between atoms: C_9  and  C_10
REMARK                            x       y       z     vdW  Elec       q    Type
REMARK                         _______ _______ _______ _____ _____    ______ ____
ROOT
ATOM      1  O   UNL     1       5.205   4.328  15.046  0.00  0.00    +0.000 OA
ATOM      2  C   UNL     1       5.443   4.637  16.216  0.00  0.00    +0.000 C 
ENDROOT
BRANCH   2   3
ATOM      3  C   UNL     1       6.853   4.590  16.744  0.00  0.00    +0.000 C 
BRANCH   3   4
ATOM      4  C   UNL     1       7.352   5.891  17.293  0.00  0.00    +0.000 C 
ATOM      5  O   UNL     1       7.623   6.899  16.644  0.00  0.00    +0.000 OA
BRANCH   4   6
ATOM      6  C   UNL     1       7.568   5.947  18.799  0.00  0.00    +0.000 C 
ATOM      7  O   UNL     1       7.019   5.190  19.572  0.00  0.00    +0.000 OA
BRANCH   6   8
ATOM      8  O   UNL     1       8.447   6.912  19.123  0.00  0.00    +0.000 OA
ATOM      9  H   UNL     1       9.250   6.841  18.555  0.00  0.00    +0.000 HD
ENDBRANCH   6   8
ENDBRANCH   4   6
ENDBRANCH   3   4
ENDBRANCH   2   3
BRANCH   2  10
ATOM     10  C   UNL     1       4.341   5.156  17.119  0.00  0.00    +0.000 C 
BRANCH  10  11
ATOM     11  C   UNL     1       3.419   4.087  17.635  0.00  0.00    +0.000 A 
ATOM     12  C   UNL     1       2.044   4.314  17.750  0.00  0.00    +0.000 A 
ATOM     13  C   UNL     1       1.225   3.338  18.313  0.00  0.00    +0.000 A 
ATOM     14  C   UNL     1       1.810   2.158  18.740  0.00  0.00    +0.000 A 
ATOM     15  N   UNL     1       3.129   1.897  18.633  0.00  0.00    +0.000 NA
ATOM     16  C   UNL     1       3.904   2.865  18.090  0.00  0.00    +0.000 A 
ENDBRANCH  10  11
ENDBRANCH   2  10
TORSDOF 6
ENDMDL
MODEL 4
REMARK VINA RESULT:      -6.1      1.681      2.460
REMARK  Name = 
REMARK  6 active torsions:
REMARK  status: ('A' for Active; 'I' for Inactive)
REMARK    1  A    between atoms: C_2  and  C_3
REMARK    2  A    between atoms: C_2  and  C_9
REMARK    3  A    between atoms: C_3  and  C_4
REMARK    4  A    between atoms: C_4  and  C_6
REMARK    5  A    between atoms: C_6  and  O_8
REMARK    6  A    between atoms: C_9  and  C_10
REMARK                            x       y       z     vdW  Elec       q    Type
REMARK                         _______ _______ _______ _____ _____    ______ ____
ROOT
ATOM      1  O   UNL     1       4.720   3.436  17.095  0.00  0.00    +0.000 OA
ATOM      2  C   UNL     1       4.735   4.663  17.229  0.00  0.00    +0.000 C 
ENDROOT
BRANCH   2   3
ATOM      3  C   UNL     1       5.960   5.454  16.854  0.00  0.00    +0.000 C 
BRANCH   3   4
ATOM      4  C   UNL     1       7.203   5.059  17.590  0.00  0.00    +0.000 C 
ATOM      5  O   UNL     1       8.052   4.258  17.207  0.00  0.00    +0.000 OA
BRANCH   4   6
ATOM      6  C   UNL     1       7.406   5.698  18.958  0.00  0.00    +0.000 C 
ATOM      7  O   UNL     1       6.870   5.285  19.964  0.00  0.00    +0.000 OA
BRANCH   6   8
ATOM      8  O   UNL     1       8.259   6.736  18.881  0.00  0.00    +0.000 OA
ATOM      9  H   UNL     1       8.947   6.659  19.583  0.00  0.00    +0.000 HD
ENDBRANCH   6   8
ENDBRANCH   4   6
ENDBRANCH   3   4
ENDBRANCH   2   3
BRANCH   2  10
ATOM     10  C   UNL     1       3.496   5.407  17.687  0.00  0.00    +0.000 C 
BRANCH  10  11
ATOM     11  C   UNL     1       2.715   4.696  18.755  0.00  0.00    +0.000 A 
ATOM     12  C   UNL     1       1.613   3.897  18.433  0.00  0.00    +0.000 A 
ATOM     13  C   UNL     1       0.854   3.320  19.449  0.00  0.00    +0.000 A 
ATOM     14  C   UNL     1       1.226   3.559  20.761  0.00  0.00    +0.000 A 
ATOM     15  N   UNL     1       2.289   4.312  21.110  0.00  0.00    +0.000 NA
ATOM     16  C   UNL     1       3.005   4.867  20.106  0.00  0.00    +0.000 A 
ENDBRANCH  10  11
ENDBRANCH   2  10
TORSDOF 6
ENDMDL
MODEL 5
REMARK VINA RESULT:      -6.0      1.491      2.240
REMARK  Name = 
REMARK  6 active torsions:
REMARK  status: ('A' for Active; 'I' for Inactive)
REMARK    1  A    between atoms: C_2  and  C_3
REMARK    2  A    between atoms: C_2  and  C_9
REMARK    3  A    between atoms: C_3  and  C_4
REMARK    4  A    between atoms: C_4  and  C_6
REMARK    5  A    between atoms: C_6  and  O_8
REMARK    6  A    between atoms: C_9  and  C_10
REMARK                            x       y       z     vdW  Elec       q    Type
REMARK                         _______ _______ _______ _____ _____    ______ ____
ROOT
ATOM      1  O   UNL     1       4.237   4.523  16.831  0.00  0.00    +0.000 OA
ATOM      2  C   UNL     1       4.026   5.606  17.384  0.00  0.00    +0.000 C 
ENDROOT
BRANCH   2   3
ATOM      3  C   UNL     1       5.074   6.687  17.365  0.00  0.00    +0.000 C 
BRANCH   3   4
ATOM      4  C   UNL     1       6.484   6.184  17.429  0.00  0.00    +0.000 C 
ATOM      5  O   UNL     1       7.399   6.485  16.666  0.00  0.00    +0.000 OA
BRANCH   4   6
ATOM      6  C   UNL     1       6.791   5.183  18.535  0.00  0.00    +0.000 C 
ATOM      7  O   UNL     1       6.824   5.488  19.708  0.00  0.00    +0.000 OA
BRANCH   6   8
ATOM      8  O   UNL     1       6.988   3.953  18.028  0.00  0.00    +0.000 OA
ATOM      9  H   UNL     1       7.884   3.897  17.619  0.00  0.00    +0.000 HD
ENDBRANCH   6   8
ENDBRANCH   4   6
ENDBRANCH   3   4
ENDBRANCH   2   3
BRANCH   2  10
ATOM     10  C   UNL     1       2.680   5.904  18.014  0.00  0.00    +0.000 C 
BRANCH  10  11
ATOM     11  C   UNL     1       2.235   4.881  19.021  0.00  0.00    +0.000 A 
ATOM     12  C   UNL     1       1.368   3.844  18.662  0.00  0.00    +0.000 A 
ATOM     13  C   UNL     1       0.902   2.961  19.633  0.00  0.00    +0.000 A 
ATOM     14  C   UNL     1       1.325   3.143  20.939  0.00  0.00    +0.000 A 
ATOM     15  N   UNL     1       2.170   4.121  21.322  0.00  0.00    +0.000 NA
ATOM     16  C   UNL     1       2.601   4.970  20.360  0.00  0.00    +0.000 A 
ENDBRANCH  10  11
ENDBRANCH   2  10
TORSDOF 6
ENDMDL
MODEL 6
REMARK VINA RESULT:      -6.0      2.171      2.748
REMARK  Name = 
REMARK  6 active torsions:
REMARK  status: ('A' for Active; 'I' for Inactive)
REMARK    1  A    between atoms: C_2  and  C_3
REMARK    2  A    between atoms: C_2  and  C_9
REMARK    3  A    between atoms: C_3  and  C_4
REMARK    4  A    between atoms: C_4  and  C_6
REMARK    5  A    between atoms: C_6  and  O_8
REMARK    6  A    between atoms: C_9  and  C_10
REMARK                            x       y       z     vdW  Elec       q    Type
REMARK                         _______ _______ _______ _____ _____    ______ ____
ROOT
ATOM      1  O   UNL     1       7.566   5.529  19.759  0.00  0.00    +0.000 OA
ATOM      2  C   UNL     1       6.721   5.182  18.930  0.00  0.00    +0.000 C 
ENDROOT
BRANCH   2   3
ATOM      3  C   UNL     1       7.142   4.512  17.649  0.00  0.00    +0.000 C 
BRANCH   3   4
ATOM      4  C   UNL     1       7.199   5.423  16.462  0.00  0.00    +0.000 C 
ATOM      5  O   UNL     1       7.468   6.622  16.478  0.00  0.00    +0.000 OA
BRANCH   4   6
ATOM      6  C   UNL     1       6.860   4.797  15.116  0.00  0.00    +0.000 C 
ATOM      7  O   UNL     1       7.207   5.280  14.059  0.00  0.00    +0.000 OA
BRANCH   6   8
ATOM      8  O   UNL     1       6.166   3.656  15.278  0.00  0.00    +0.000 OA
ATOM      9  H   UNL     1       5.214   3.861  15.440  0.00  0.00    +0.000 HD
ENDBRANCH   6   8
ENDBRANCH   4   6
ENDBRANCH   3   4
ENDBRANCH   2   3
BRANCH   2  10
ATOM     10  C   UNL     1       5.241   5.339  19.220  0.00  0.00    +0.000 C 
BRANCH  10  11
ATOM     11  C   UNL     1       4.390   4.223  18.685  0.00  0.00    +0.000 A 
ATOM     12  C   UNL     1       3.548   4.419  17.586  0.00  0.00    +0.000 A 
ATOM     13  C   UNL     1       2.705   3.393  17.165  0.00  0.00    +0.000 A 
ATOM     14  C   UNL     1       2.736   2.195  17.857  0.00  0.00    +0.000 A 
ATOM     15  N   UNL     1       3.544   1.963  18.912  0.00  0.00    +0.000 NA
ATOM     16  C   UNL     1       4.347   2.978  19.306  0.00  0.00    +0.000 A 
ENDBRANCH  10  11
ENDBRANCH   2  10
TORSDOF 6
ENDMDL
MODEL 7
REMARK VINA RESULT:      -6.0      3.163      6.030
REMARK  Name = 
REMARK  6 active torsions:
REMARK  status: ('A' for Active; 'I' for Inactive)
REMARK    1  A    between atoms: C_2  and  C_3
REMARK    2  A    between atoms: C_2  and  C_9
REMARK    3  A    between atoms: C_3  and  C_4
REMARK    4  A    between atoms: C_4  and  C_6
REMARK    5  A    between atoms: C_6  and  O_8
REMARK    6  A    between atoms: C_9  and  C_10
REMARK                            x       y       z     vdW  Elec       q    Type
REMARK                         _______ _______ _______ _____ _____    ______ ____
ROOT
ATOM      1  O   UNL     1       5.092   2.854  19.742  0.00  0.00    +0.000 OA
ATOM      2  C   UNL     1       4.582   3.842  19.209  0.00  0.00    +0.000 C 
ENDROOT
BRANCH   2   3
ATOM      3  C   UNL     1       3.088   3.930  19.042  0.00  0.00    +0.000 C 
BRANCH   3   4
ATOM      4  C   UNL     1       2.360   4.466  20.236  0.00  0.00    +0.000 C 
ATOM      5  O   UNL     1       2.286   5.645  20.574  0.00  0.00    +0.000 OA
BRANCH   4   6
ATOM      6  C   UNL     1       1.675   3.436  21.124  0.00  0.00    +0.000 C 
ATOM      7  O   UNL     1       2.148   3.051  22.172  0.00  0.00    +0.000 OA
BRANCH   6   8
ATOM      8  O   UNL     1       0.498   3.054  20.596  0.00  0.00    +0.000 OA
ATOM      9  H   UNL     1       0.321   2.109  20.815  0.00  0.00    +0.000 HD
ENDBRANCH   6   8
ENDBRANCH   4   6
ENDBRANCH   3   4
ENDBRANCH   2   3
BRANCH   2  10
ATOM     10  C   UNL     1       5.434   5.026  18.795  0.00  0.00    +0.000 C 
BRANCH  10  11
ATOM     11  C   UNL     1       5.916   4.965  17.373  0.00  0.00    +0.000 A 
ATOM     12  C   UNL     1       5.372   4.052  16.465  0.00  0.00    +0.000 A 
ATOM     13  C   UNL     1       5.897   3.955  15.178  0.00  0.00    +0.000 A 
ATOM     14  C   UNL     1       6.953   4.784  14.839  0.00  0.00    +0.000 A 
ATOM     15  N   UNL     1       7.495   5.686  15.681  0.00  0.00    +0.000 NA
ATOM     16  C   UNL     1       6.972   5.754  16.927  0.00  0.00    +0.000 A 
ENDBRANCH  10  11
ENDBRANCH   2  10
TORSDOF 6
ENDMDL
MODEL 8
REMARK VINA RESULT:      -6.0      3.198      5.829
REMARK  Name = 
REMARK  6 active torsions:
REMARK  status: ('A' for Active; 'I' for Inactive)
REMARK    1  A    between atoms: C_2  and  C_3
REMARK    2  A    between atoms: C_2  and  C_9
REMARK    3  A    between atoms: C_3  and  C_4
REMARK    4  A    between atoms: C_4  and  C_6
REMARK    5  A    between atoms: C_6  and  O_8
REMARK    6  A    between atoms: C_9  and  C_10
REMARK                            x       y       z     vdW  Elec       q    Type
REMARK                         _______ _______ _______ _____ _____    ______ ____
ROOT
ATOM      1  O   UNL     1       5.414   3.767  19.362  0.00  0.00    +0.000 OA
ATOM      2  C   UNL     1       4.366   4.346  19.064  0.00  0.00    +0.000 C 
ENDROOT
BRANCH   2   3
ATOM      3  C   UNL     1       3.075   3.985  19.749  0.00  0.00    +0.000 C 
BRANCH   3   4
ATOM      4  C   UNL     1       2.443   2.721  19.254  0.00  0.00    +0.000 C 
ATOM      5  O   UNL     1       3.031   1.747  18.789  0.00  0.00    +0.000 OA
BRANCH   4   6
ATOM      6  C   UNL     1       0.923   2.662  19.312  0.00  0.00    +0.000 C 
ATOM      7  O   UNL     1       0.250   2.138  18.449  0.00  0.00    +0.000 OA
BRANCH   6   8
ATOM      8  O   UNL     1       0.462   3.237  20.438  0.00  0.00    +0.000 OA
ATOM      9  H   UNL     1      -0.230   3.904  20.217  0.00  0.00    +0.000 HD
ENDBRANCH   6   8
ENDBRANCH   4   6
ENDBRANCH   3   4
ENDBRANCH   2   3
BRANCH   2  10
ATOM     10  C   UNL     1       4.370   5.491  18.070  0.00  0.00    +0.000 C 
BRANCH  10  11
ATOM     11  C   UNL     1       5.276   5.275  16.891  0.00  0.00    +0.000 A 
ATOM     12  C   UNL     1       5.009   4.278  15.947  0.00  0.00    +0.000 A 
ATOM     13  C   UNL     1       5.911   4.042  14.913  0.00  0.00    +0.000 A 
ATOM     14  C   UNL     1       7.056   4.817  14.853  0.00  0.00    +0.000 A 
ATOM     15  N   UNL     1       7.342   5.796  15.735  0.00  0.00    +0.000 NA
ATOM     16  C   UNL     1       6.454   6.001  16.735  0.00  0.00    +0.000 A 
ENDBRANCH  10  11
ENDBRANCH   2  10
TORSDOF 6
ENDMDL
MODEL 9
REMARK VINA RESULT:      -6.0      3.281      5.702
REMARK  Name = 
REMARK  6 active torsions:
REMARK  status: ('A' for Active; 'I' for Inactive)
REMARK    1  A    between atoms: C_2  and  C_3
REMARK    2  A    between atoms: C_2  and  C_9
REMARK    3  A    between atoms: C_3  and  C_4
REMARK    4  A    between atoms: C_4  and  C_6
REMARK    5  A    between atoms: C_6  and  O_8
REMARK    6  A    between atoms: C_9  and  C_10
REMARK                            x       y       z     vdW  Elec       q    Type
REMARK                         _______ _______ _______ _____ _____    ______ ____
ROOT
ATOM      1  O   UNL     1       1.864   4.824  17.897  0.00  0.00    +0.000 OA
ATOM      2  C   UNL     1       2.828   5.344  18.464  0.00  0.00    +0.000 C 
ENDROOT
BRANCH   2   3
ATOM      3  C   UNL     1       3.220   4.909  19.851  0.00  0.00    +0.000 C 
BRANCH   3   4
ATOM      4  C   UNL     1       2.938   3.469  20.152  0.00  0.00    +0.000 C 
ATOM      5  O   UNL     1       3.571   2.501  19.737  0.00  0.00    +0.000 OA
BRANCH   4   6
ATOM      6  C   UNL     1       1.730   3.192  21.037  0.00  0.00    +0.000 C 
ATOM      7  O   UNL     1       1.826   2.767  22.169  0.00  0.00    +0.000 OA
BRANCH   6   8
ATOM      8  O   UNL     1       0.586   3.503  20.400  0.00  0.00    +0.000 OA
ATOM      9  H   UNL     1       0.490   2.948  19.590  0.00  0.00    +0.000 HD
ENDBRANCH   6   8
ENDBRANCH   4   6
ENDBRANCH   3   4
ENDBRANCH   2   3
BRANCH   2  10
ATOM     10  C   UNL     1       3.690   6.366  17.748  0.00  0.00    +0.000 C 
BRANCH  10  11
ATOM     11  C   UNL     1       4.832   5.769  16.977  0.00  0.00    +0.000 A 
ATOM     12  C   UNL     1       4.753   4.474  16.454  0.00  0.00    +0.000 A 
ATOM     13  C   UNL     1       5.858   3.912  15.820  0.00  0.00    +0.000 A 
ATOM     14  C   UNL     1       7.013   4.670  15.723  0.00  0.00    +0.000 A 
ATOM     15  N   UNL     1       7.124   5.926  16.202  0.00  0.00    +0.000 NA
ATOM     16  C   UNL     1       6.038   6.446  16.820  0.00  0.00    +0.000 A 
ENDBRANCH  10  11
ENDBRANCH   2  10
TORSDOF 6
ENDMDL
