MODEL 1
REMARK VINA RESULT:      -7.8      0.000      0.000
REMARK  Name = 
REMARK  8 active torsions:
REMARK  status: ('A' for Active; 'I' for Inactive)
REMARK    1  A    between atoms: N_1  and  CA_2
REMARK    2  A    between atoms: CA_2  and  C_3
REMARK    3  A    between atoms: CA_2  and  C_21
REMARK    4  A    between atoms: C_3  and  C_4
REMARK    5  A    between atoms: C_10  and  O_11
REMARK    6  A    between atoms: O_11  and  C_12
REMARK    7  A    between atoms: C_12  and  C_13
REMARK    8  A    between atoms: C_21  and  OXT_23
REMARK                            x       y       z     vdW  Elec       q    Type
REMARK                         _______ _______ _______ _____ _____    ______ ____
ROOT
ATOM      1  C   UNL     1       4.085   4.925  17.296  0.00  0.00    +0.000 A 
ATOM      2  C   UNL     1       3.918   3.617  16.894  0.00  0.00    +0.000 A 
ATOM      3  N   UNL     1       3.002   3.020  17.727  0.00  0.00    +0.000 N 
ATOM      4  C   UNL     1       2.548   3.925  18.661  0.00  0.00    +0.000 A 
ATOM      5  C   UNL     1       1.612   3.782  19.691  0.00  0.00    +0.000 A 
ATOM      6  C   UNL     1       1.331   4.916  20.468  0.00  0.00    +0.000 A 
ATOM      7  C   UNL     1       1.972   6.129  20.228  0.00  0.00    +0.000 A 
ATOM      8  C   UNL     1       2.961   6.222  19.244  0.00  0.00    +0.000 A 
ATOM      9  C   UNL     1       3.226   5.117  18.421  0.00  0.00    +0.000 A 
ATOM     10  H   UNL     1       2.695   2.058  17.665  0.00  0.00    +0.000 HD
ENDROOT
BRANCH   1  11
ATOM     11  C   UNL     1       4.977   5.971  16.685  0.00  0.00    +0.000 C 
BRANCH  11  12
ATOM     12  CA  UNL     1       6.288   6.181  17.461  0.00  0.00    +0.000 C 
BRANCH  12  13
ATOM     13  N   UNL     1       7.108   7.328  16.951  0.00  0.00    +0.000 NA
ATOM     14  H1  UNL     1       6.533   8.170  17.068  0.00  0.00    +0.000 HD
ATOM     15  H2  UNL     1       7.177   7.228  15.932  0.00  0.00    +0.000 HD
ENDBRANCH  12  13
BRANCH  12  16
ATOM     16  C   UNL     1       7.158   4.915  17.393  0.00  0.00    +0.000 C 
ATOM     17  O   UNL     1       7.839   4.566  16.443  0.00  0.00    +0.000 OA
BRANCH  16  18
ATOM     18  OXT UNL     1       7.050   4.190  18.540  0.00  0.00    +0.000 OA
ATOM     19  HXT UNL     1       6.603   4.782  19.198  0.00  0.00    +0.000 HD
ENDBRANCH  16  18
ENDBRANCH  12  16
ENDBRANCH  11  12
ENDBRANCH   1  11
BRANCH   7  20
ATOM     20  O   UNL     1       1.561   7.193  20.988  0.00  0.00    +0.000 OA
BRANCH  20  21
ATOM     21  C   UNL     1       1.468   8.426  20.266  0.00  0.00    +0.000 C 
BRANCH  21  22
ATOM     22  C   UNL     1       0.687   9.418  21.080  0.00  0.00    +0.000 A 
ATOM     23  C   UNL     1       0.539  10.739  20.644  0.00  0.00    +0.000 A 
ATOM     24  C   UNL     1      -0.178  11.653  21.413  0.00  0.00    +0.000 A 
ATOM     25  C   UNL     1      -0.747  11.252  22.622  0.00  0.00    +0.000 A 
ATOM     26  C   UNL     1      -0.605   9.938  23.062  0.00  0.00    +0.000 A 
ATOM     27  C   UNL     1       0.113   9.023  22.296  0.00  0.00    +0.000 A 
ENDBRANCH  21  22
ENDBRANCH  20  21
ENDBRANCH   7  20
TORSDOF 8
ENDMDL
MODEL 2
REMARK VINA RESULT:      -7.7      0.471      1.056
REMARK  Name = 
REMARK  8 active torsions:
REMARK  status: ('A' for Active; 'I' for Inactive)
REMARK    1  A    between atoms: N_1  and  CA_2
REMARK    2  A    between atoms: CA_2  and  C_3
REMARK    3  A    between atoms: CA_2  and  C_21
REMARK    4  A    between atoms: C_3  and  C_4
REMARK    5  A    between atoms: C_10  and  O_11
REMARK    6  A    between atoms: O_11  and  C_12
REMARK    7  A    between atoms: C_12  and  C_13
REMARK    8  A    between atoms: C_21  and  OXT_23
REMARK                            x       y       z     vdW  Elec       q    Type
REMARK                         _______ _______ _______ _____ _____    ______ ____
ROOT
ATOM      1  C   UNL     1       4.238   4.700  17.470  0.00  0.00    +0.000 A 
ATOM      2  C   UNL     1       4.240   3.364  17.127  0.00  0.00    +0.000 A 
ATOM      3  N   UNL     1       3.386   2.698  17.972  0.00  0.00    +0.000 N 
ATOM      4  C   UNL     1       2.805   3.581  18.855  0.00  0.00    +0.000 A 
ATOM      5  C   UNL     1       1.871   3.371  19.875  0.00  0.00    +0.000 A 
ATOM      6  C   UNL     1       1.437   4.496  20.594  0.00  0.00    +0.000 A 
ATOM      7  C   UNL     1       1.932   5.766  20.307  0.00  0.00    +0.000 A 
ATOM      8  C   UNL     1       2.923   5.935  19.336  0.00  0.00    +0.000 A 
ATOM      9  C   UNL     1       3.338   4.835  18.570  0.00  0.00    +0.000 A 
ATOM     10  H   UNL     1       3.199   1.704  17.950  0.00  0.00    +0.000 HD
ENDROOT
BRANCH   1  11
ATOM     11  C   UNL     1       5.010   5.819  16.825  0.00  0.00    +0.000 C 
BRANCH  11  12
ATOM     12  CA  UNL     1       6.322   6.151  17.554  0.00  0.00    +0.000 C 
BRANCH  12  13
ATOM     13  N   UNL     1       6.959   7.426  17.087  0.00  0.00    +0.000 NA
ATOM     14  H1  UNL     1       7.574   7.738  17.849  0.00  0.00    +0.000 HD
ATOM     15  H2  UNL     1       6.228   8.146  17.064  0.00  0.00    +0.000 HD
ENDBRANCH  12  13
BRANCH  12  16
ATOM     16  C   UNL     1       7.344   5.019  17.361  0.00  0.00    +0.000 C 
ATOM     17  O   UNL     1       7.751   4.598  16.291  0.00  0.00    +0.000 OA
BRANCH  16  18
ATOM     18  OXT UNL     1       7.726   4.501  18.561  0.00  0.00    +0.000 OA
ATOM     19  HXT UNL     1       7.145   4.928  19.241  0.00  0.00    +0.000 HD
ENDBRANCH  16  18
ENDBRANCH  12  16
ENDBRANCH  11  12
ENDBRANCH   1  11
BRANCH   7  20
ATOM     20  O   UNL     1       1.378   6.805  21.010  0.00  0.00    +0.000 OA
BRANCH  20  21
ATOM     21  C   UNL     1       1.678   8.099  20.474  0.00  0.00    +0.000 C 
BRANCH  21  22
ATOM     22  C   UNL     1       0.766   9.116  21.098  0.00  0.00    +0.000 A 
ATOM     23  C   UNL     1       0.512   9.097  22.473  0.00  0.00    +0.000 A 
ATOM     24  C   UNL     1      -0.345  10.040  23.039  0.00  0.00    +0.000 A 
ATOM     25  C   UNL     1      -0.954  11.001  22.233  0.00  0.00    +0.000 A 
ATOM     26  C   UNL     1      -0.705  11.026  20.862  0.00  0.00    +0.000 A 
ATOM     27  C   UNL     1       0.149  10.084  20.293  0.00  0.00    +0.000 A 
ENDBRANCH  21  22
ENDBRANCH  20  21
ENDBRANCH   7  20
TORSDOF 8
ENDMDL
MODEL 3
REMARK VINA RESULT:      -7.6      1.448      1.863
REMARK  Name = 
REMARK  8 active torsions:
REMARK  status: ('A' for Active; 'I' for Inactive)
REMARK    1  A    between atoms: N_1  and  CA_2
REMARK    2  A    between atoms: CA_2  and  C_3
REMARK    3  A    between atoms: CA_2  and  C_21
REMARK    4  A    between atoms: C_3  and  C_4
REMARK    5  A    between atoms: C_10  and  O_11
REMARK    6  A    between atoms: O_11  and  C_12
REMARK    7  A    between atoms: C_12  and  C_13
REMARK    8  A    between atoms: C_21  and  OXT_23
REMARK                            x       y       z     vdW  Elec       q    Type
REMARK                         _______ _______ _______ _____ _____    ______ ____
ROOT
ATOM      1  C   UNL     1       4.188   4.303  17.587  0.00  0.00    +0.000 A 
ATOM      2  C   UNL     1       3.955   2.950  17.705  0.00  0.00    +0.000 A 
ATOM      3  N   UNL     1       3.031   2.753  18.702  0.00  0.00    +0.000 N 
ATOM      4  C   UNL     1       2.636   3.962  19.230  0.00  0.00    +0.000 A 
ATOM      5  C   UNL     1       1.714   4.260  20.240  0.00  0.00    +0.000 A 
ATOM      6  C   UNL     1       1.499   5.616  20.536  0.00  0.00    +0.000 A 
ATOM      7  C   UNL     1       2.188   6.618  19.857  0.00  0.00    +0.000 A 
ATOM      8  C   UNL     1       3.160   6.288  18.909  0.00  0.00    +0.000 A 
ATOM      9  C   UNL     1       3.360   4.943  18.559  0.00  0.00    +0.000 A 
ATOM     10  H   UNL     1       2.680   1.853  19.006  0.00  0.00    +0.000 HD
ENDROOT
BRANCH   1  11
ATOM     11  C   UNL     1       5.113   5.000  16.627  0.00  0.00    +0.000 C 
BRANCH  11  12
ATOM     12  CA  UNL     1       6.362   4.174  16.279  0.00  0.00    +0.000 C 
BRANCH  12  13
ATOM     13  N   UNL     1       7.529   4.443  17.182  0.00  0.00    +0.000 NA
ATOM     14  H1  UNL     1       7.729   3.560  17.666  0.00  0.00    +0.000 HD
ATOM     15  H2  UNL     1       7.200   5.056  17.936  0.00  0.00    +0.000 HD
ENDBRANCH  12  13
BRANCH  12  16
ATOM     16  C   UNL     1       6.810   4.463  14.837  0.00  0.00    +0.000 C 
ATOM     17  O   UNL     1       7.487   5.411  14.475  0.00  0.00    +0.000 OA
BRANCH  16  18
ATOM     18  OXT UNL     1       6.318   3.527  13.980  0.00  0.00    +0.000 OA
ATOM     19  HXT UNL     1       6.264   3.969  13.094  0.00  0.00    +0.000 HD
ENDBRANCH  16  18
ENDBRANCH  12  16
ENDBRANCH  11  12
ENDBRANCH   1  11
BRANCH   7  20
ATOM     20  O   UNL     1       1.839   7.908  20.164  0.00  0.00    +0.000 OA
BRANCH  20  21
ATOM     21  C   UNL     1       1.676   8.151  21.565  0.00  0.00    +0.000 C 
BRANCH  21  22
ATOM     22  C   UNL     1       0.751   9.319  21.760  0.00  0.00    +0.000 A 
ATOM     23  C   UNL     1      -0.077   9.393  22.884  0.00  0.00    +0.000 A 
ATOM     24  C   UNL     1      -0.939  10.476  23.048  0.00  0.00    +0.000 A 
ATOM     25  C   UNL     1      -0.980  11.486  22.087  0.00  0.00    +0.000 A 
ATOM     26  C   UNL     1      -0.157  11.419  20.965  0.00  0.00    +0.000 A 
ATOM     27  C   UNL     1       0.704  10.337  20.797  0.00  0.00    +0.000 A 
ENDBRANCH  21  22
ENDBRANCH  20  21
ENDBRANCH   7  20
TORSDOF 8
ENDMDL
MODEL 4
REMARK VINA RESULT:      -7.6      1.296      1.667
REMARK  Name = 
REMARK  8 active torsions:
REMARK  status: ('A' for Active; 'I' for Inactive)
REMARK    1  A    between atoms: N_1  and  CA_2
REMARK    2  A    between atoms: CA_2  and  C_3
REMARK    3  A    between atoms: CA_2  and  C_21
REMARK    4  A    between atoms: C_3  and  C_4
REMARK    5  A    between atoms: C_10  and  O_11
REMARK    6  A    between atoms: O_11  and  C_12
REMARK    7  A    between atoms: C_12  and  C_13
REMARK    8  A    between atoms: C_21  and  OXT_23
REMARK                            x       y       z     vdW  Elec       q    Type
REMARK                         _______ _______ _______ _____ _____    ______ ____
ROOT
ATOM      1  C   UNL     1       4.462   4.797  17.841  0.00  0.00    +0.000 A 
ATOM      2  C   UNL     1       4.356   3.504  17.374  0.00  0.00    +0.000 A 
ATOM      3  N   UNL     1       3.303   2.896  18.013  0.00  0.00    +0.000 N 
ATOM      4  C   UNL     1       2.701   3.778  18.882  0.00  0.00    +0.000 A 
ATOM      5  C   UNL     1       1.597   3.616  19.728  0.00  0.00    +0.000 A 
ATOM      6  C   UNL     1       1.194   4.731  20.480  0.00  0.00    +0.000 A 
ATOM      7  C   UNL     1       1.879   5.941  20.396  0.00  0.00    +0.000 A 
ATOM      8  C   UNL     1       3.025   6.049  19.605  0.00  0.00    +0.000 A 
ATOM      9  C   UNL     1       3.421   4.966  18.804  0.00  0.00    +0.000 A 
ATOM     10  H   UNL     1       3.003   1.941  17.866  0.00  0.00    +0.000 HD
ENDROOT
BRANCH   1  11
ATOM     11  C   UNL     1       5.457   5.848  17.431  0.00  0.00    +0.000 C 
BRANCH  11  12
ATOM     12  CA  UNL     1       6.829   5.683  18.106  0.00  0.00    +0.000 C 
BRANCH  12  13
ATOM     13  N   UNL     1       6.742   5.378  19.572  0.00  0.00    +0.000 NA
ATOM     14  H1  UNL     1       7.701   5.188  19.885  0.00  0.00    +0.000 HD
ATOM     15  H2  UNL     1       6.277   4.468  19.670  0.00  0.00    +0.000 HD
ENDBRANCH  12  13
BRANCH  12  16
ATOM     16  C   UNL     1       7.663   6.964  17.943  0.00  0.00    +0.000 C 
ATOM     17  O   UNL     1       7.628   7.723  16.990  0.00  0.00    +0.000 OA
BRANCH  16  18
ATOM     18  OXT UNL     1       8.496   7.138  19.006  0.00  0.00    +0.000 OA
ATOM     19  HXT UNL     1       8.079   7.839  19.569  0.00  0.00    +0.000 HD
ENDBRANCH  16  18
ENDBRANCH  12  16
ENDBRANCH  11  12
ENDBRANCH   1  11
BRANCH   7  20
ATOM     20  O   UNL     1       1.350   6.987  21.108  0.00  0.00    +0.000 OA
BRANCH  20  21
ATOM     21  C   UNL     1       1.477   8.257  20.459  0.00  0.00    +0.000 C 
BRANCH  21  22
ATOM     22  C   UNL     1       0.704   9.286  21.234  0.00  0.00    +0.000 A 
ATOM     23  C   UNL     1       0.007   8.931  22.393  0.00  0.00    +0.000 A 
ATOM     24  C   UNL     1      -0.716   9.892  23.097  0.00  0.00    +0.000 A 
ATOM     25  C   UNL     1      -0.748  11.211  22.643  0.00  0.00    +0.000 A 
ATOM     26  C   UNL     1      -0.055  11.572  21.490  0.00  0.00    +0.000 A 
ATOM     27  C   UNL     1       0.666  10.614  20.783  0.00  0.00    +0.000 A 
ENDBRANCH  21  22
ENDBRANCH  20  21
ENDBRANCH   7  20
TORSDOF 8
ENDMDL
MODEL 5
REMARK VINA RESULT:      -7.6      1.368      1.592
REMARK  Name = 
REMARK  8 active torsions:
REMARK  status: ('A' for Active; 'I' for Inactive)
REMARK    1  A    between atoms: N_1  and  CA_2
REMARK    2  A    between atoms: CA_2  and  C_3
REMARK    3  A    between atoms: CA_2  and  C_21
REMARK    4  A    between atoms: C_3  and  C_4
REMARK    5  A    between atoms: C_10  and  O_11
REMARK    6  A    between atoms: O_11  and  C_12
REMARK    7  A    between atoms: C_12  and  C_13
REMARK    8  A    between atoms: C_21  and  OXT_23
REMARK                            x       y       z     vdW  Elec       q    Type
REMARK                         _______ _______ _______ _____ _____    ______ ____
ROOT
ATOM      1  C   UNL     1       3.988   3.880  17.509  0.00  0.00    +0.000 A 
ATOM      2  C   UNL     1       3.721   2.541  17.705  0.00  0.00    +0.000 A 
ATOM      3  N   UNL     1       2.885   2.419  18.789  0.00  0.00    +0.000 N 
ATOM      4  C   UNL     1       2.582   3.662  19.298  0.00  0.00    +0.000 A 
ATOM      5  C   UNL     1       1.767   4.034  20.374  0.00  0.00    +0.000 A 
ATOM      6  C   UNL     1       1.627   5.407  20.630  0.00  0.00    +0.000 A 
ATOM      7  C   UNL     1       2.285   6.355  19.850  0.00  0.00    +0.000 A 
ATOM      8  C   UNL     1       3.155   5.952  18.834  0.00  0.00    +0.000 A 
ATOM      9  C   UNL     1       3.276   4.588  18.524  0.00  0.00    +0.000 A 
ATOM     10  H   UNL     1       2.533   1.546  19.160  0.00  0.00    +0.000 HD
ENDROOT
BRANCH   1  11
ATOM     11  C   UNL     1       4.845   4.503  16.442  0.00  0.00    +0.000 C 
BRANCH  11  12
ATOM     12  CA  UNL     1       6.351   4.290  16.669  0.00  0.00    +0.000 C 
BRANCH  12  13
ATOM     13  N   UNL     1       6.734   4.224  18.118  0.00  0.00    +0.000 NA
ATOM     14  H1  UNL     1       6.966   5.184  18.399  0.00  0.00    +0.000 HD
ATOM     15  H2  UNL     1       7.634   3.735  18.176  0.00  0.00    +0.000 HD
ENDBRANCH  12  13
BRANCH  12  16
ATOM     16  C   UNL     1       7.156   5.429  16.024  0.00  0.00    +0.000 C 
ATOM     17  O   UNL     1       7.491   6.467  16.570  0.00  0.00    +0.000 OA
BRANCH  16  18
ATOM     18  OXT UNL     1       7.430   5.151  14.719  0.00  0.00    +0.000 OA
ATOM     19  HXT UNL     1       6.654   5.482  14.199  0.00  0.00    +0.000 HD
ENDBRANCH  16  18
ENDBRANCH  12  16
ENDBRANCH  11  12
ENDBRANCH   1  11
BRANCH   7  20
ATOM     20  O   UNL     1       2.011   7.669  20.133  0.00  0.00    +0.000 OA
BRANCH  20  21
ATOM     21  C   UNL     1       1.201   7.859  21.298  0.00  0.00    +0.000 C 
BRANCH  21  22
ATOM     22  C   UNL     1       0.481   9.173  21.190  0.00  0.00    +0.000 A 
ATOM     23  C   UNL     1       0.260   9.764  19.942  0.00  0.00    +0.000 A 
ATOM     24  C   UNL     1      -0.400  10.989  19.855  0.00  0.00    +0.000 A 
ATOM     25  C   UNL     1      -0.838  11.628  21.014  0.00  0.00    +0.000 A 
ATOM     26  C   UNL     1      -0.622  11.044  22.261  0.00  0.00    +0.000 A 
ATOM     27  C   UNL     1       0.039   9.822  22.352  0.00  0.00    +0.000 A 
ENDBRANCH  21  22
ENDBRANCH  20  21
ENDBRANCH   7  20
TORSDOF 8
ENDMDL
MODEL 6
REMARK VINA RESULT:      -7.6      1.008      1.135
REMARK  Name = 
REMARK  8 active torsions:
REMARK  status: ('A' for Active; 'I' for Inactive)
REMARK    1  A    between atoms: N_1  and  CA_2
REMARK    2  A    between atoms: CA_2  and  C_3
REMARK    3  A    between atoms: CA_2  and  C_21
REMARK    4  A    between atoms: C_3  and  C_4
REMARK    5  A    between atoms: C_10  and  O_11
REMARK    6  A    between atoms: O_11  and  C_12
REMARK    7  A    between atoms: C_12  and  C_13
REMARK    8  A    between atoms: C_21  and  OXT_23
REMARK                            x       y       z     vdW  Elec       q    Type
REMARK                         _______ _______ _______ _____ _____    ______ ____
ROOT
ATOM      1  C   UNL     1       4.002   3.926  17.482  0.00  0.00    +0.000 A 
ATOM      2  C   UNL     1       3.843   2.584  17.759  0.00  0.00    +0.000 A 
ATOM      3  N   UNL     1       3.083   2.463  18.897  0.00  0.00    +0.000 N 
ATOM      4  C   UNL     1       2.723   3.708  19.363  0.00  0.00    +0.000 A 
ATOM      5  C   UNL     1       1.948   4.080  20.468  0.00  0.00    +0.000 A 
ATOM      6  C   UNL     1       1.725   5.452  20.665  0.00  0.00    +0.000 A 
ATOM      7  C   UNL     1       2.267   6.400  19.801  0.00  0.00    +0.000 A 
ATOM      8  C   UNL     1       3.102   6.003  18.753  0.00  0.00    +0.000 A 
ATOM      9  C   UNL     1       3.302   4.636  18.503  0.00  0.00    +0.000 A 
ATOM     10  H   UNL     1       2.817   1.589  19.332  0.00  0.00    +0.000 HD
ENDROOT
BRANCH   1  11
ATOM     11  C   UNL     1       4.749   4.548  16.334  0.00  0.00    +0.000 C 
BRANCH  11  12
ATOM     12  CA  UNL     1       5.919   5.439  16.781  0.00  0.00    +0.000 C 
BRANCH  12  13
ATOM     13  N   UNL     1       5.743   6.884  16.423  0.00  0.00    +0.000 NA
ATOM     14  H1  UNL     1       5.171   6.904  15.570  0.00  0.00    +0.000 HD
ATOM     15  H2  UNL     1       6.653   7.237  16.106  0.00  0.00    +0.000 HD
ENDBRANCH  12  13
BRANCH  12  16
ATOM     16  C   UNL     1       7.233   4.956  16.145  0.00  0.00    +0.000 C 
ATOM     17  O   UNL     1       7.633   5.239  15.028  0.00  0.00    +0.000 OA
BRANCH  16  18
ATOM     18  OXT UNL     1       7.901   4.120  16.987  0.00  0.00    +0.000 OA
ATOM     19  HXT UNL     1       7.327   4.022  17.788  0.00  0.00    +0.000 HD
ENDBRANCH  16  18
ENDBRANCH  12  16
ENDBRANCH  11  12
ENDBRANCH   1  11
BRANCH   7  20
ATOM     20  O   UNL     1       1.917   7.704  20.035  0.00  0.00    +0.000 OA
BRANCH  20  21
ATOM     21  C   UNL     1       1.460   7.956  21.369  0.00  0.00    +0.000 C 
BRANCH  21  22
ATOM     22  C   UNL     1       0.571   9.167  21.366  0.00  0.00    +0.000 A 
ATOM     23  C   UNL     1       0.238   9.804  20.166  0.00  0.00    +0.000 A 
ATOM     24  C   UNL     1      -0.578  10.934  20.177  0.00  0.00    +0.000 A 
ATOM     25  C   UNL     1      -1.061  11.433  21.386  0.00  0.00    +0.000 A 
ATOM     26  C   UNL     1      -0.735  10.803  22.585  0.00  0.00    +0.000 A 
ATOM     27  C   UNL     1       0.082   9.675  22.578  0.00  0.00    +0.000 A 
ENDBRANCH  21  22
ENDBRANCH  20  21
ENDBRANCH   7  20
TORSDOF 8
ENDMDL
MODEL 7
REMARK VINA RESULT:      -7.6      1.456      1.586
REMARK  Name = 
REMARK  8 active torsions:
REMARK  status: ('A' for Active; 'I' for Inactive)
REMARK    1  A    between atoms: N_1  and  CA_2
REMARK    2  A    between atoms: CA_2  and  C_3
REMARK    3  A    between atoms: CA_2  and  C_21
REMARK    4  A    between atoms: C_3  and  C_4
REMARK    5  A    between atoms: C_10  and  O_11
REMARK    6  A    between atoms: O_11  and  C_12
REMARK    7  A    between atoms: C_12  and  C_13
REMARK    8  A    between atoms: C_21  and  OXT_23
REMARK                            x       y       z     vdW  Elec       q    Type
REMARK                         _______ _______ _______ _____ _____    ______ ____
ROOT
ATOM      1  C   UNL     1       4.270   3.951  17.781  0.00  0.00    +0.000 A 
ATOM      2  C   UNL     1       3.987   2.660  17.390  0.00  0.00    +0.000 A 
ATOM      3  N   UNL     1       2.898   2.219  18.102  0.00  0.00    +0.000 N 
ATOM      4  C   UNL     1       2.448   3.211  18.944  0.00  0.00    +0.000 A 
ATOM      5  C   UNL     1       1.372   3.230  19.839  0.00  0.00    +0.000 A 
ATOM      6  C   UNL     1       1.142   4.422  20.545  0.00  0.00    +0.000 A 
ATOM      7  C   UNL     1       1.964   5.532  20.367  0.00  0.00    +0.000 A 
ATOM      8  C   UNL     1       3.078   5.458  19.527  0.00  0.00    +0.000 A 
ATOM      9  C   UNL     1       3.303   4.296  18.773  0.00  0.00    +0.000 A 
ATOM     10  H   UNL     1       2.478   1.302  18.020  0.00  0.00    +0.000 HD
ENDROOT
BRANCH   1  11
ATOM     11  C   UNL     1       5.366   4.849  17.275  0.00  0.00    +0.000 C 
BRANCH  11  12
ATOM     12  CA  UNL     1       6.484   4.091  16.541  0.00  0.00    +0.000 C 
BRANCH  12  13
ATOM     13  N   UNL     1       7.837   4.271  17.163  0.00  0.00    +0.000 NA
ATOM     14  H1  UNL     1       7.746   5.041  17.836  0.00  0.00    +0.000 HD
ATOM     15  H2  UNL     1       8.458   4.659  16.444  0.00  0.00    +0.000 HD
ENDBRANCH  12  13
BRANCH  12  16
ATOM     16  C   UNL     1       6.575   4.554  15.079  0.00  0.00    +0.000 C 
ATOM     17  O   UNL     1       6.760   5.699  14.702  0.00  0.00    +0.000 OA
BRANCH  16  18
ATOM     18  OXT UNL     1       6.386   3.510  14.226  0.00  0.00    +0.000 OA
ATOM     19  HXT UNL     1       6.573   2.690  14.751  0.00  0.00    +0.000 HD
ENDBRANCH  16  18
ENDBRANCH  12  16
ENDBRANCH  11  12
ENDBRANCH   1  11
BRANCH   7  20
ATOM     20  O   UNL     1       1.600   6.670  21.040  0.00  0.00    +0.000 OA
BRANCH  20  21
ATOM     21  C   UNL     1       1.705   7.867  20.262  0.00  0.00    +0.000 C 
BRANCH  21  22
ATOM     22  C   UNL     1       0.855   8.938  20.886  0.00  0.00    +0.000 A 
ATOM     23  C   UNL     1       0.320   9.968  20.106  0.00  0.00    +0.000 A 
ATOM     24  C   UNL     1      -0.457  10.962  20.699  0.00  0.00    +0.000 A 
ATOM     25  C   UNL     1      -0.699  10.932  22.072  0.00  0.00    +0.000 A 
ATOM     26  C   UNL     1      -0.170   9.908  22.855  0.00  0.00    +0.000 A 
ATOM     27  C   UNL     1       0.609   8.915  22.266  0.00  0.00    +0.000 A 
ENDBRANCH  21  22
ENDBRANCH  20  21
ENDBRANCH   7  20
TORSDOF 8
ENDMDL
MODEL 8
REMARK VINA RESULT:      -7.5      0.954      1.381
REMARK  Name = 
REMARK  8 active torsions:
REMARK  status: ('A' for Active; 'I' for Inactive)
REMARK    1  A    between atoms: N_1  and  CA_2
REMARK    2  A    between atoms: CA_2  and  C_3
REMARK    3  A    between atoms: CA_2  and  C_21
REMARK    4  A    between atoms: C_3  and  C_4
REMARK    5  A    between atoms: C_10  and  O_11
REMARK    6  A    between atoms: O_11  and  C_12
REMARK    7  A    between atoms: C_12  and  C_13
REMARK    8  A    between atoms: C_21  and  OXT_23
REMARK                            x       y       z     vdW  Elec       q    Type
REMARK                         _______ _______ _______ _____ _____    ______ ____
ROOT
ATOM      1  C   UNL     1       3.850   3.821  17.563  0.00  0.00    +0.000 A 
ATOM      2  C   UNL     1       3.643   2.494  17.873  0.00  0.00    +0.000 A 
ATOM      3  N   UNL     1       2.885   2.428  19.016  0.00  0.00    +0.000 N 
ATOM      4  C   UNL     1       2.572   3.696  19.453  0.00  0.00    +0.000 A 
ATOM      5  C   UNL     1       1.817   4.122  20.552  0.00  0.00    +0.000 A 
ATOM      6  C   UNL     1       1.645   5.505  20.717  0.00  0.00    +0.000 A 
ATOM      7  C   UNL     1       2.218   6.412  19.828  0.00  0.00    +0.000 A 
ATOM      8  C   UNL     1       3.033   5.960  18.787  0.00  0.00    +0.000 A 
ATOM      9  C   UNL     1       3.181   4.582  18.570  0.00  0.00    +0.000 A 
ATOM     10  H   UNL     1       2.589   1.575  19.473  0.00  0.00    +0.000 HD
ENDROOT
BRANCH   1  11
ATOM     11  C   UNL     1       4.614   4.389  16.398  0.00  0.00    +0.000 C 
BRANCH  11  12
ATOM     12  CA  UNL     1       5.704   5.390  16.814  0.00  0.00    +0.000 C 
BRANCH  12  13
ATOM     13  N   UNL     1       5.994   6.427  15.771  0.00  0.00    +0.000 NA
ATOM     14  H1  UNL     1       5.169   6.462  15.160  0.00  0.00    +0.000 HD
ATOM     15  H2  UNL     1       6.726   6.052  15.158  0.00  0.00    +0.000 HD
ENDBRANCH  12  13
BRANCH  12  16
ATOM     16  C   UNL     1       7.018   4.654  17.121  0.00  0.00    +0.000 C 
ATOM     17  O   UNL     1       7.943   4.488  16.343  0.00  0.00    +0.000 OA
BRANCH  16  18
ATOM     18  OXT UNL     1       7.014   4.163  18.391  0.00  0.00    +0.000 OA
ATOM     19  HXT UNL     1       6.159   3.672  18.492  0.00  0.00    +0.000 HD
ENDBRANCH  16  18
ENDBRANCH  12  16
ENDBRANCH  11  12
ENDBRANCH   1  11
BRANCH   7  20
ATOM     20  O   UNL     1       1.916   7.734  20.032  0.00  0.00    +0.000 OA
BRANCH  20  21
ATOM     21  C   UNL     1       1.442   8.028  21.351  0.00  0.00    +0.000 C 
BRANCH  21  22
ATOM     22  C   UNL     1       0.568   9.249  21.301  0.00  0.00    +0.000 A 
ATOM     23  C   UNL     1       0.037   9.794  22.475  0.00  0.00    +0.000 A 
ATOM     24  C   UNL     1      -0.782  10.920  22.415  0.00  0.00    +0.000 A 
ATOM     25  C   UNL     1      -1.076  11.503  21.182  0.00  0.00    +0.000 A 
ATOM     26  C   UNL     1      -0.550  10.966  20.009  0.00  0.00    +0.000 A 
ATOM     27  C   UNL     1       0.267   9.839  20.066  0.00  0.00    +0.000 A 
ENDBRANCH  21  22
ENDBRANCH  20  21
ENDBRANCH   7  20
TORSDOF 8
ENDMDL
MODEL 9
REMARK VINA RESULT:      -7.5      1.107      1.710
REMARK  Name = 
REMARK  8 active torsions:
REMARK  status: ('A' for Active; 'I' for Inactive)
REMARK    1  A    between atoms: N_1  and  CA_2
REMARK    2  A    between atoms: CA_2  and  C_3
REMARK    3  A    between atoms: CA_2  and  C_21
REMARK    4  A    between atoms: C_3  and  C_4
REMARK    5  A    between atoms: C_10  and  O_11
REMARK    6  A    between atoms: O_11  and  C_12
REMARK    7  A    between atoms: C_12  and  C_13
REMARK    8  A    between atoms: C_21  and  OXT_23
REMARK                            x       y       z     vdW  Elec       q    Type
REMARK                         _______ _______ _______ _____ _____    ______ ____
ROOT
ATOM      1  C   UNL     1       3.737   3.395  17.592  0.00  0.00    +0.000 A 
ATOM      2  C   UNL     1       3.569   2.032  17.472  0.00  0.00    +0.000 A 
ATOM      3  N   UNL     1       2.723   1.609  18.468  0.00  0.00    +0.000 N 
ATOM      4  C   UNL     1       2.315   2.680  19.232  0.00  0.00    +0.000 A 
ATOM      5  C   UNL     1       1.453   2.740  20.333  0.00  0.00    +0.000 A 
ATOM      6  C   UNL     1       1.202   4.006  20.885  0.00  0.00    +0.000 A 
ATOM      7  C   UNL     1       1.802   5.149  20.364  0.00  0.00    +0.000 A 
ATOM      8  C   UNL     1       2.720   5.049  19.315  0.00  0.00    +0.000 A 
ATOM      9  C   UNL     1       2.952   3.803  18.712  0.00  0.00    +0.000 A 
ATOM     10  H   UNL     1       2.432   0.652  18.621  0.00  0.00    +0.000 HD
ENDROOT
BRANCH   1  11
ATOM     11  C   UNL     1       4.565   4.303  16.724  0.00  0.00    +0.000 C 
BRANCH  11  12
ATOM     12  CA  UNL     1       5.799   4.872  17.443  0.00  0.00    +0.000 C 
BRANCH  12  13
ATOM     13  N   UNL     1       5.793   6.368  17.550  0.00  0.00    +0.000 NA
ATOM     14  H1  UNL     1       6.760   6.673  17.385  0.00  0.00    +0.000 HD
ATOM     15  H2  UNL     1       5.635   6.606  18.535  0.00  0.00    +0.000 HD
ENDBRANCH  12  13
BRANCH  12  16
ATOM     16  C   UNL     1       7.085   4.460  16.708  0.00  0.00    +0.000 C 
ATOM     17  O   UNL     1       8.165   4.236  17.227  0.00  0.00    +0.000 OA
BRANCH  16  18
ATOM     18  OXT UNL     1       6.879   4.408  15.363  0.00  0.00    +0.000 OA
ATOM     19  HXT UNL     1       5.907   4.550  15.229  0.00  0.00    +0.000 HD
ENDBRANCH  16  18
ENDBRANCH  12  16
ENDBRANCH  11  12
ENDBRANCH   1  11
BRANCH   7  20
ATOM     20  O   UNL     1       1.422   6.342  20.924  0.00  0.00    +0.000 OA
BRANCH  20  21
ATOM     21  C   UNL     1       1.914   7.495  20.231  0.00  0.00    +0.000 C 
BRANCH  21  22
ATOM     22  C   UNL     1       1.130   8.702  20.663  0.00  0.00    +0.000 A 
ATOM     23  C   UNL     1       0.780   8.883  22.005  0.00  0.00    +0.000 A 
ATOM     24  C   UNL     1       0.043  10.001  22.392  0.00  0.00    +0.000 A 
ATOM     25  C   UNL     1      -0.350  10.940  21.438  0.00  0.00    +0.000 A 
ATOM     26  C   UNL     1      -0.004  10.767  20.100  0.00  0.00    +0.000 A 
ATOM     27  C   UNL     1       0.730   9.650  19.710  0.00  0.00    +0.000 A 
ENDBRANCH  21  22
ENDBRANCH  20  21
ENDBRANCH   7  20
TORSDOF 8
ENDMDL
