MODEL 1
REMARK VINA RESULT:      -7.4      0.000      0.000
REMARK  Name = 
REMARK  3 active torsions:
REMARK  status: ('A' for Active; 'I' for Inactive)
REMARK    1  A    between atoms: C_1  and  C_2
REMARK    2  A    between atoms: C_13  and  C_15
REMARK    3  A    between atoms: C_20  and  C_21
REMARK                            x       y       z     vdW  Elec       q    Type
REMARK                         _______ _______ _______ _____ _____    ______ ____
ROOT
ATOM      1  C   UNL     1       1.902   8.430  19.051  0.00  0.00    +0.000 C 
ATOM      2  C   UNL     1       0.974   9.278  19.872  0.00  0.00    +0.000 A 
ATOM      3  C   UNL     1       0.429   8.804  21.068  0.00  0.00    +0.000 A 
ATOM      4  C   UNL     1      -0.436   9.603  21.832  0.00  0.00    +0.000 A 
ATOM      5  C   UNL     1      -0.763  10.898  21.388  0.00  0.00    +0.000 A 
ATOM      6  N   UNL     1      -1.598  11.801  22.040  0.00  0.00    +0.000 NA
ATOM      7  C   UNL     1      -1.698  12.924  21.353  0.00  0.00    +0.000 A 
ATOM      8  N   UNL     1      -2.458  13.974  21.746  0.00  0.00    +0.000 N 
ATOM      9  C   UNL     1      -2.766  15.131  20.911  0.00  0.00    +0.000 C 
ATOM     10  C   UNL     1      -4.185  15.560  21.318  0.00  0.00    +0.000 C 
ATOM     11  C   UNL     1      -5.215  15.309  20.216  0.00  0.00    +0.000 C 
ATOM     12  N   UNL     1      -5.643  13.941  20.421  0.00  0.00    +0.000 N 
ATOM     13  C   UNL     1      -6.180  13.182  19.378  0.00  0.00    +0.000 C 
ATOM     14  O   UNL     1      -6.403  13.688  18.280  0.00  0.00    +0.000 OA
ATOM     15  C   UNL     1      -5.550  13.610  21.832  0.00  0.00    +0.000 C 
ATOM     16  C   UNL     1      -4.587  14.614  22.460  0.00  0.00    +0.000 C 
ATOM     17  C   UNL     1      -3.305  13.927  22.916  0.00  0.00    +0.000 C 
ATOM     18  S   UNL     1      -0.750  12.951  19.908  0.00  0.00    +0.000 S 
ATOM     19  C   UNL     1      -0.207  11.356  20.200  0.00  0.00    +0.000 A 
ATOM     20  C   UNL     1       0.658  10.569  19.424  0.00  0.00    +0.000 A 
ENDROOT
BRANCH  13  21
ATOM     21  C   UNL     1      -6.467  11.718  19.587  0.00  0.00    +0.000 A 
ATOM     22  C   UNL     1      -7.544  11.400  20.441  0.00  0.00    +0.000 A 
ATOM     23  C   UNL     1      -7.878  10.087  20.755  0.00  0.00    +0.000 A 
ATOM     24  C   UNL     1      -7.194   9.053  20.145  0.00  0.00    +0.000 A 
ATOM     25  C   UNL     1      -6.168   9.342  19.239  0.00  0.00    +0.000 A 
ATOM     26  C   UNL     1      -5.765  10.669  18.925  0.00  0.00    +0.000 A 
BRANCH  26  27
ATOM     27  C   UNL     1      -4.669  10.847  17.918  0.00  0.00    +0.000 A 
ATOM     28  C   UNL     1      -3.327  10.528  18.234  0.00  0.00    +0.000 A 
ATOM     29  C   UNL     1      -2.296  10.621  17.290  0.00  0.00    +0.000 A 
ATOM     30  C   UNL     1      -2.583  11.009  15.987  0.00  0.00    +0.000 A 
ATOM     31  C   UNL     1      -3.886  11.363  15.654  0.00  0.00    +0.000 A 
ATOM     32  C   UNL     1      -4.901  11.322  16.619  0.00  0.00    +0.000 A 
ENDBRANCH  26  27
ENDBRANCH  13  21
TORSDOF 2
ENDMDL
MODEL 2
REMARK VINA RESULT:      -7.4      1.005      1.127
REMARK  Name = 
REMARK  3 active torsions:
REMARK  status: ('A' for Active; 'I' for Inactive)
REMARK    1  A    between atoms: C_1  and  C_2
REMARK    2  A    between atoms: C_13  and  C_15
REMARK    3  A    between atoms: C_20  and  C_21
REMARK                            x       y       z     vdW  Elec       q    Type
REMARK                         _______ _______ _______ _____ _____    ______ ____
ROOT
ATOM      1  C   UNL     1       1.473   8.245  20.338  0.00  0.00    +0.000 C 
ATOM      2  C   UNL     1       0.648   9.281  21.045  0.00  0.00    +0.000 A 
ATOM      3  C   UNL     1      -0.025   8.982  22.233  0.00  0.00    +0.000 A 
ATOM      4  C   UNL     1      -0.792   9.955  22.891  0.00  0.00    +0.000 A 
ATOM      5  C   UNL     1      -0.891  11.249  22.348  0.00  0.00    +0.000 A 
ATOM      6  N   UNL     1      -1.606  12.313  22.889  0.00  0.00    +0.000 NA
ATOM      7  C   UNL     1      -1.495  13.387  22.129  0.00  0.00    +0.000 A 
ATOM      8  N   UNL     1      -2.101  14.565  22.408  0.00  0.00    +0.000 N 
ATOM      9  C   UNL     1      -2.182  15.693  21.484  0.00  0.00    +0.000 C 
ATOM     10  C   UNL     1      -3.536  16.361  21.776  0.00  0.00    +0.000 C 
ATOM     11  C   UNL     1      -4.534  16.191  20.631  0.00  0.00    +0.000 C 
ATOM     12  N   UNL     1      -5.180  14.922  20.894  0.00  0.00    +0.000 N 
ATOM     13  C   UNL     1      -5.775  14.181  19.870  0.00  0.00    +0.000 C 
ATOM     14  O   UNL     1      -5.861  14.637  18.731  0.00  0.00    +0.000 OA
ATOM     15  C   UNL     1      -5.212  14.683  22.326  0.00  0.00    +0.000 C 
ATOM     16  C   UNL     1      -4.138  15.571  22.948  0.00  0.00    +0.000 C 
ATOM     17  C   UNL     1      -3.004  14.731  23.524  0.00  0.00    +0.000 C 
ATOM     18  S   UNL     1      -0.482  13.166  20.745  0.00  0.00    +0.000 S 
ATOM     19  C   UNL     1      -0.210  11.532  21.169  0.00  0.00    +0.000 A 
ATOM     20  C   UNL     1       0.560  10.569  20.499  0.00  0.00    +0.000 A 
ENDROOT
BRANCH  13  21
ATOM     21  C   UNL     1      -6.297  12.797  20.152  0.00  0.00    +0.000 A 
ATOM     22  C   UNL     1      -7.378  12.700  21.054  0.00  0.00    +0.000 A 
ATOM     23  C   UNL     1      -7.917  11.476  21.436  0.00  0.00    +0.000 A 
ATOM     24  C   UNL     1      -7.442  10.319  20.850  0.00  0.00    +0.000 A 
ATOM     25  C   UNL     1      -6.419  10.394  19.899  0.00  0.00    +0.000 A 
ATOM     26  C   UNL     1      -5.810  11.619  19.514  0.00  0.00    +0.000 A 
BRANCH  26  27
ATOM     27  C   UNL     1      -4.741  11.570  18.465  0.00  0.00    +0.000 A 
ATOM     28  C   UNL     1      -3.374  11.697  18.807  0.00  0.00    +0.000 A 
ATOM     29  C   UNL     1      -2.352  11.586  17.854  0.00  0.00    +0.000 A 
ATOM     30  C   UNL     1      -2.669  11.314  16.529  0.00  0.00    +0.000 A 
ATOM     31  C   UNL     1      -4.004  11.220  16.154  0.00  0.00    +0.000 A 
ATOM     32  C   UNL     1      -5.021  11.388  17.103  0.00  0.00    +0.000 A 
ENDBRANCH  26  27
ENDBRANCH  13  21
TORSDOF 2
ENDMDL
MODEL 3
REMARK VINA RESULT:      -6.6      7.546     11.196
REMARK  Name = 
REMARK  3 active torsions:
REMARK  status: ('A' for Active; 'I' for Inactive)
REMARK    1  A    between atoms: C_1  and  C_2
REMARK    2  A    between atoms: C_13  and  C_15
REMARK    3  A    between atoms: C_20  and  C_21
REMARK                            x       y       z     vdW  Elec       q    Type
REMARK                         _______ _______ _______ _____ _____    ______ ____
ROOT
ATOM      1  C   UNL     1      -1.646  11.915  23.077  0.00  0.00    +0.000 C 
ATOM      2  C   UNL     1      -0.546  12.211  22.098  0.00  0.00    +0.000 A 
ATOM      3  C   UNL     1       0.077  11.187  21.380  0.00  0.00    +0.000 A 
ATOM      4  C   UNL     1       1.102  11.469  20.465  0.00  0.00    +0.000 A 
ATOM      5  C   UNL     1       1.513  12.801  20.267  0.00  0.00    +0.000 A 
ATOM      6  N   UNL     1       2.507  13.231  19.394  0.00  0.00    +0.000 NA
ATOM      7  C   UNL     1       2.648  14.543  19.454  0.00  0.00    +0.000 A 
ATOM      8  N   UNL     1       3.554  15.231  18.720  0.00  0.00    +0.000 N 
ATOM      9  C   UNL     1       3.887  16.637  18.925  0.00  0.00    +0.000 C 
ATOM     10  C   UNL     1       5.381  16.756  18.579  0.00  0.00    +0.000 C 
ATOM     11  C   UNL     1       6.247  17.046  19.805  0.00  0.00    +0.000 C 
ATOM     12  N   UNL     1       6.547  15.742  20.358  0.00  0.00    +0.000 N 
ATOM     13  C   UNL     1       6.880  15.580  21.704  0.00  0.00    +0.000 C 
ATOM     14  O   UNL     1       7.030  16.556  22.438  0.00  0.00    +0.000 OA
ATOM     15  C   UNL     1       6.580  14.759  19.289  0.00  0.00    +0.000 C 
ATOM     16  C   UNL     1       5.806  15.354  18.116  0.00  0.00    +0.000 C 
ATOM     17  C   UNL     1       4.518  14.579  17.864  0.00  0.00    +0.000 C 
ATOM     18  S   UNL     1       1.551  15.317  20.544  0.00  0.00    +0.000 S 
ATOM     19  C   UNL     1       0.878  13.808  20.984  0.00  0.00    +0.000 A 
ATOM     20  C   UNL     1      -0.147  13.541  21.905  0.00  0.00    +0.000 A 
ENDROOT
BRANCH  13  21
ATOM     21  C   UNL     1       7.032  14.196  22.278  0.00  0.00    +0.000 A 
ATOM     22  C   UNL     1       5.918  13.671  22.966  0.00  0.00    +0.000 A 
ATOM     23  C   UNL     1       5.949  12.426  23.585  0.00  0.00    +0.000 A 
ATOM     24  C   UNL     1       7.073  11.634  23.451  0.00  0.00    +0.000 A 
ATOM     25  C   UNL     1       8.165  12.103  22.714  0.00  0.00    +0.000 A 
ATOM     26  C   UNL     1       8.192  13.387  22.104  0.00  0.00    +0.000 A 
BRANCH  26  27
ATOM     27  C   UNL     1       9.412  13.762  21.318  0.00  0.00    +0.000 A 
ATOM     28  C   UNL     1       9.872  12.952  20.252  0.00  0.00    +0.000 A 
ATOM     29  C   UNL     1      10.968  13.315  19.458  0.00  0.00    +0.000 A 
ATOM     30  C   UNL     1      11.622  14.518  19.690  0.00  0.00    +0.000 A 
ATOM     31  C   UNL     1      11.218  15.319  20.752  0.00  0.00    +0.000 A 
ATOM     32  C   UNL     1      10.156  14.921  21.577  0.00  0.00    +0.000 A 
ENDBRANCH  26  27
ENDBRANCH  13  21
TORSDOF 2
ENDMDL
MODEL 4
REMARK VINA RESULT:      -6.5      2.436      5.443
REMARK  Name = 
REMARK  3 active torsions:
REMARK  status: ('A' for Active; 'I' for Inactive)
REMARK    1  A    between atoms: C_1  and  C_2
REMARK    2  A    between atoms: C_13  and  C_15
REMARK    3  A    between atoms: C_20  and  C_21
REMARK                            x       y       z     vdW  Elec       q    Type
REMARK                         _______ _______ _______ _____ _____    ______ ____
ROOT
ATOM      1  C   UNL     1       2.606  15.093  22.019  0.00  0.00    +0.000 C 
ATOM      2  C   UNL     1       1.741  14.594  20.898  0.00  0.00    +0.000 A 
ATOM      3  C   UNL     1       1.505  15.377  19.764  0.00  0.00    +0.000 A 
ATOM      4  C   UNL     1       0.698  14.905  18.719  0.00  0.00    +0.000 A 
ATOM      5  C   UNL     1       0.113  13.628  18.811  0.00  0.00    +0.000 A 
ATOM      6  N   UNL     1      -0.702  13.028  17.856  0.00  0.00    +0.000 NA
ATOM      7  C   UNL     1      -1.088  11.830  18.255  0.00  0.00    +0.000 A 
ATOM      8  N   UNL     1      -1.899  11.026  17.528  0.00  0.00    +0.000 N 
ATOM      9  C   UNL     1      -2.521   9.805  18.031  0.00  0.00    +0.000 C 
ATOM     10  C   UNL     1      -3.883   9.720  17.323  0.00  0.00    +0.000 C 
ATOM     11  C   UNL     1      -5.057   9.935  18.278  0.00  0.00    +0.000 C 
ATOM     12  N   UNL     1      -5.241  11.371  18.314  0.00  0.00    +0.000 N 
ATOM     13  C   UNL     1      -5.854  12.001  19.400  0.00  0.00    +0.000 C 
ATOM     14  O   UNL     1      -6.351  11.342  20.312  0.00  0.00    +0.000 OA
ATOM     15  C   UNL     1      -4.836  11.943  17.042  0.00  0.00    +0.000 C 
ATOM     16  C   UNL     1      -3.923  10.922  16.367  0.00  0.00    +0.000 C 
ATOM     17  C   UNL     1      -2.494  11.445  16.279  0.00  0.00    +0.000 C 
ATOM     18  S   UNL     1      -0.445  11.361  19.790  0.00  0.00    +0.000 S 
ATOM     19  C   UNL     1       0.363  12.860  19.942  0.00  0.00    +0.000 A 
ATOM     20  C   UNL     1       1.167  13.319  20.997  0.00  0.00    +0.000 A 
ENDROOT
BRANCH  13  21
ATOM     21  C   UNL     1      -5.887  13.504  19.474  0.00  0.00    +0.000 A 
ATOM     22  C   UNL     1      -6.670  14.168  18.507  0.00  0.00    +0.000 A 
ATOM     23  C   UNL     1      -6.742  15.556  18.437  0.00  0.00    +0.000 A 
ATOM     24  C   UNL     1      -6.099  16.313  19.397  0.00  0.00    +0.000 A 
ATOM     25  C   UNL     1      -5.375  15.676  20.409  0.00  0.00    +0.000 A 
ATOM     26  C   UNL     1      -5.238  14.264  20.491  0.00  0.00    +0.000 A 
BRANCH  26  27
ATOM     27  C   UNL     1      -4.456  13.702  21.640  0.00  0.00    +0.000 A 
ATOM     28  C   UNL     1      -5.074  13.443  22.887  0.00  0.00    +0.000 A 
ATOM     29  C   UNL     1      -4.383  12.855  23.954  0.00  0.00    +0.000 A 
ATOM     30  C   UNL     1      -3.055  12.480  23.796  0.00  0.00    +0.000 A 
ATOM     31  C   UNL     1      -2.408  12.754  22.596  0.00  0.00    +0.000 A 
ATOM     32  C   UNL     1      -3.091  13.394  21.552  0.00  0.00    +0.000 A 
ENDBRANCH  26  27
ENDBRANCH  13  21
TORSDOF 2
ENDMDL
MODEL 5
REMARK VINA RESULT:      -6.5      3.301      6.199
REMARK  Name = 
REMARK  3 active torsions:
REMARK  status: ('A' for Active; 'I' for Inactive)
REMARK    1  A    between atoms: C_1  and  C_2
REMARK    2  A    between atoms: C_13  and  C_15
REMARK    3  A    between atoms: C_20  and  C_21
REMARK                            x       y       z     vdW  Elec       q    Type
REMARK                         _______ _______ _______ _____ _____    ______ ____
ROOT
ATOM      1  C   UNL     1       1.521   9.020  17.987  0.00  0.00    +0.000 C 
ATOM      2  C   UNL     1       0.417   9.874  18.538  0.00  0.00    +0.000 A 
ATOM      3  C   UNL     1      -0.683  10.229  17.753  0.00  0.00    +0.000 A 
ATOM      4  C   UNL     1      -1.714  11.024  18.274  0.00  0.00    +0.000 A 
ATOM      5  C   UNL     1      -1.641  11.476  19.605  0.00  0.00    +0.000 A 
ATOM      6  N   UNL     1      -2.585  12.263  20.257  0.00  0.00    +0.000 NA
ATOM      7  C   UNL     1      -2.210  12.513  21.498  0.00  0.00    +0.000 A 
ATOM      8  N   UNL     1      -2.933  13.268  22.359  0.00  0.00    +0.000 N 
ATOM      9  C   UNL     1      -2.447  13.746  23.649  0.00  0.00    +0.000 C 
ATOM     10  C   UNL     1      -3.109  15.119  23.851  0.00  0.00    +0.000 C 
ATOM     11  C   UNL     1      -2.107  16.272  23.781  0.00  0.00    +0.000 C 
ATOM     12  N   UNL     1      -2.020  16.595  22.372  0.00  0.00    +0.000 N 
ATOM     13  C   UNL     1      -0.895  17.226  21.837  0.00  0.00    +0.000 C 
ATOM     14  O   UNL     1       0.013  17.620  22.568  0.00  0.00    +0.000 OA
ATOM     15  C   UNL     1      -3.287  16.298  21.728  0.00  0.00    +0.000 C 
ATOM     16  C   UNL     1      -4.025  15.314  22.633  0.00  0.00    +0.000 C 
ATOM     17  C   UNL     1      -4.147  13.948  21.968  0.00  0.00    +0.000 C 
ATOM     18  S   UNL     1      -0.714  11.770  21.943  0.00  0.00    +0.000 S 
ATOM     19  C   UNL     1      -0.544  11.109  20.375  0.00  0.00    +0.000 A 
ATOM     20  C   UNL     1       0.496  10.315  19.867  0.00  0.00    +0.000 A 
ENDROOT
BRANCH  13  21
ATOM     21  C   UNL     1      -0.772  17.405  20.347  0.00  0.00    +0.000 A 
ATOM     22  C   UNL     1      -1.674  18.306  19.742  0.00  0.00    +0.000 A 
ATOM     23  C   UNL     1      -1.696  18.520  18.368  0.00  0.00    +0.000 A 
ATOM     24  C   UNL     1      -0.751  17.901  17.574  0.00  0.00    +0.000 A 
ATOM     25  C   UNL     1       0.200  17.058  18.158  0.00  0.00    +0.000 A 
ATOM     26  C   UNL     1       0.230  16.776  19.551  0.00  0.00    +0.000 A 
BRANCH  26  27
ATOM     27  C   UNL     1       1.316  15.877  20.059  0.00  0.00    +0.000 A 
ATOM     28  C   UNL     1       1.165  14.470  20.047  0.00  0.00    +0.000 A 
ATOM     29  C   UNL     1       2.190  13.605  20.453  0.00  0.00    +0.000 A 
ATOM     30  C   UNL     1       3.413  14.125  20.856  0.00  0.00    +0.000 A 
ATOM     31  C   UNL     1       3.582  15.503  20.914  0.00  0.00    +0.000 A 
ATOM     32  C   UNL     1       2.532  16.362  20.561  0.00  0.00    +0.000 A 
ENDBRANCH  26  27
ENDBRANCH  13  21
TORSDOF 2
ENDMDL
MODEL 6
REMARK VINA RESULT:      -6.4      9.373     12.888
REMARK  Name = 
REMARK  3 active torsions:
REMARK  status: ('A' for Active; 'I' for Inactive)
REMARK    1  A    between atoms: C_1  and  C_2
REMARK    2  A    between atoms: C_13  and  C_15
REMARK    3  A    between atoms: C_20  and  C_21
REMARK                            x       y       z     vdW  Elec       q    Type
REMARK                         _______ _______ _______ _____ _____    ______ ____
ROOT
ATOM      1  C   UNL     1       7.454  12.658  27.562  0.00  0.00    +0.000 C 
ATOM      2  C   UNL     1       6.867  12.801  26.188  0.00  0.00    +0.000 A 
ATOM      3  C   UNL     1       6.509  11.680  25.434  0.00  0.00    +0.000 A 
ATOM      4  C   UNL     1       5.958  11.819  24.151  0.00  0.00    +0.000 A 
ATOM      5  C   UNL     1       5.765  13.105  23.611  0.00  0.00    +0.000 A 
ATOM      6  N   UNL     1       5.228  13.397  22.362  0.00  0.00    +0.000 NA
ATOM      7  C   UNL     1       5.190  14.701  22.162  0.00  0.00    +0.000 A 
ATOM      8  N   UNL     1       4.727  15.269  21.023  0.00  0.00    +0.000 N 
ATOM      9  C   UNL     1       4.877  16.680  20.682  0.00  0.00    +0.000 C 
ATOM     10  C   UNL     1       5.032  16.715  19.153  0.00  0.00    +0.000 C 
ATOM     11  C   UNL     1       6.437  17.131  18.714  0.00  0.00    +0.000 C 
ATOM     12  N   UNL     1       7.195  15.897  18.696  0.00  0.00    +0.000 N 
ATOM     13  C   UNL     1       8.585  15.894  18.829  0.00  0.00    +0.000 C 
ATOM     14  O   UNL     1       9.217  16.948  18.861  0.00  0.00    +0.000 OA
ATOM     15  C   UNL     1       6.309  14.789  18.383  0.00  0.00    +0.000 C 
ATOM     16  C   UNL     1       4.889  15.256  18.694  0.00  0.00    +0.000 C 
ATOM     17  C   UNL     1       4.311  14.491  19.879  0.00  0.00    +0.000 C 
ATOM     18  S   UNL     1       5.767  15.633  23.499  0.00  0.00    +0.000 S 
ATOM     19  C   UNL     1       6.120  14.209  24.376  0.00  0.00    +0.000 A 
ATOM     20  C   UNL     1       6.674  14.086  25.660  0.00  0.00    +0.000 A 
ENDROOT
BRANCH  13  21
ATOM     21  C   UNL     1       9.322  14.588  18.964  0.00  0.00    +0.000 A 
ATOM     22  C   UNL     1       9.365  13.764  17.819  0.00  0.00    +0.000 A 
ATOM     23  C   UNL     1       9.970  12.512  17.829  0.00  0.00    +0.000 A 
ATOM     24  C   UNL     1      10.630  12.092  18.967  0.00  0.00    +0.000 A 
ATOM     25  C   UNL     1      10.664  12.920  20.093  0.00  0.00    +0.000 A 
ATOM     26  C   UNL     1      10.020  14.187  20.141  0.00  0.00    +0.000 A 
BRANCH  26  27
ATOM     27  C   UNL     1      10.152  14.992  21.398  0.00  0.00    +0.000 A 
ATOM     28  C   UNL     1       9.334  14.730  22.523  0.00  0.00    +0.000 A 
ATOM     29  C   UNL     1       9.483  15.422  23.732  0.00  0.00    +0.000 A 
ATOM     30  C   UNL     1      10.480  16.381  23.861  0.00  0.00    +0.000 A 
ATOM     31  C   UNL     1      11.277  16.687  22.764  0.00  0.00    +0.000 A 
ATOM     32  C   UNL     1      11.083  16.030  21.541  0.00  0.00    +0.000 A 
ENDBRANCH  26  27
ENDBRANCH  13  21
TORSDOF 2
ENDMDL
MODEL 7
REMARK VINA RESULT:      -6.3      1.866      2.930
REMARK  Name = 
REMARK  3 active torsions:
REMARK  status: ('A' for Active; 'I' for Inactive)
REMARK    1  A    between atoms: C_1  and  C_2
REMARK    2  A    between atoms: C_13  and  C_15
REMARK    3  A    between atoms: C_20  and  C_21
REMARK                            x       y       z     vdW  Elec       q    Type
REMARK                         _______ _______ _______ _____ _____    ______ ____
ROOT
ATOM      1  C   UNL     1       0.013   8.760  20.681  0.00  0.00    +0.000 C 
ATOM      2  C   UNL     1      -0.394  10.101  21.221  0.00  0.00    +0.000 A 
ATOM      3  C   UNL     1      -0.555  10.309  22.594  0.00  0.00    +0.000 A 
ATOM      4  C   UNL     1      -0.932  11.564  23.093  0.00  0.00    +0.000 A 
ATOM      5  C   UNL     1      -1.158  12.630  22.202  0.00  0.00    +0.000 A 
ATOM      6  N   UNL     1      -1.529  13.925  22.549  0.00  0.00    +0.000 NA
ATOM      7  C   UNL     1      -1.663  14.678  21.473  0.00  0.00    +0.000 A 
ATOM      8  N   UNL     1      -2.031  15.981  21.515  0.00  0.00    +0.000 N 
ATOM      9  C   UNL     1      -2.403  16.773  20.346  0.00  0.00    +0.000 C 
ATOM     10  C   UNL     1      -3.483  17.749  20.843  0.00  0.00    +0.000 C 
ATOM     11  C   UNL     1      -4.864  17.442  20.263  0.00  0.00    +0.000 C 
ATOM     12  N   UNL     1      -5.430  16.462  21.166  0.00  0.00    +0.000 N 
ATOM     13  C   UNL     1      -6.430  15.579  20.751  0.00  0.00    +0.000 C 
ATOM     14  O   UNL     1      -6.933  15.679  19.633  0.00  0.00    +0.000 OA
ATOM     15  C   UNL     1      -4.903  16.673  22.503  0.00  0.00    +0.000 C 
ATOM     16  C   UNL     1      -3.616  17.479  22.350  0.00  0.00    +0.000 C 
ATOM     17  C   UNL     1      -2.401  16.646  22.743  0.00  0.00    +0.000 C 
ATOM     18  S   UNL     1      -1.303  13.860  19.994  0.00  0.00    +0.000 S 
ATOM     19  C   UNL     1      -0.987  12.408  20.840  0.00  0.00    +0.000 A 
ATOM     20  C   UNL     1      -0.612  11.158  20.326  0.00  0.00    +0.000 A 
ENDROOT
BRANCH  13  21
ATOM     21  C   UNL     1      -6.882  14.473  21.667  0.00  0.00    +0.000 A 
ATOM     22  C   UNL     1      -7.501  14.863  22.873  0.00  0.00    +0.000 A 
ATOM     23  C   UNL     1      -7.916  13.939  23.826  0.00  0.00    +0.000 A 
ATOM     24  C   UNL     1      -7.803  12.590  23.549  0.00  0.00    +0.000 A 
ATOM     25  C   UNL     1      -7.259  12.176  22.330  0.00  0.00    +0.000 A 
ATOM     26  C   UNL     1      -6.780  13.087  21.349  0.00  0.00    +0.000 A 
BRANCH  26  27
ATOM     27  C   UNL     1      -6.243  12.518  20.070  0.00  0.00    +0.000 A 
ATOM     28  C   UNL     1      -4.850  12.388  19.857  0.00  0.00    +0.000 A 
ATOM     29  C   UNL     1      -4.324  11.798  18.700  0.00  0.00    +0.000 A 
ATOM     30  C   UNL     1      -5.181  11.291  17.731  0.00  0.00    +0.000 A 
ATOM     31  C   UNL     1      -6.554  11.435  17.894  0.00  0.00    +0.000 A 
ATOM     32  C   UNL     1      -7.070  12.078  19.027  0.00  0.00    +0.000 A 
ENDBRANCH  26  27
ENDBRANCH  13  21
TORSDOF 2
ENDMDL
MODEL 8
REMARK VINA RESULT:      -6.3      9.185     12.944
REMARK  Name = 
REMARK  3 active torsions:
REMARK  status: ('A' for Active; 'I' for Inactive)
REMARK    1  A    between atoms: C_1  and  C_2
REMARK    2  A    between atoms: C_13  and  C_15
REMARK    3  A    between atoms: C_20  and  C_21
REMARK                            x       y       z     vdW  Elec       q    Type
REMARK                         _______ _______ _______ _____ _____    ______ ____
ROOT
ATOM      1  C   UNL     1       1.097  13.141  20.513  0.00  0.00    +0.000 C 
ATOM      2  C   UNL     1       2.321  13.817  19.969  0.00  0.00    +0.000 A 
ATOM      3  C   UNL     1       2.844  13.472  18.719  0.00  0.00    +0.000 A 
ATOM      4  C   UNL     1       3.986  14.110  18.215  0.00  0.00    +0.000 A 
ATOM      5  C   UNL     1       4.621  15.109  18.976  0.00  0.00    +0.000 A 
ATOM      6  N   UNL     1       5.752  15.828  18.605  0.00  0.00    +0.000 NA
ATOM      7  C   UNL     1       6.092  16.687  19.549  0.00  0.00    +0.000 A 
ATOM      8  N   UNL     1       7.165  17.508  19.460  0.00  0.00    +0.000 N 
ATOM      9  C   UNL     1       7.694  18.299  20.567  0.00  0.00    +0.000 C 
ATOM     10  C   UNL     1       9.215  18.346  20.343  0.00  0.00    +0.000 C 
ATOM     11  C   UNL     1       9.989  17.553  21.396  0.00  0.00    +0.000 C 
ATOM     12  N   UNL     1      10.023  16.199  20.883  0.00  0.00    +0.000 N 
ATOM     13  C   UNL     1      10.189  15.102  21.731  0.00  0.00    +0.000 C 
ATOM     14  O   UNL     1      10.418  15.261  22.929  0.00  0.00    +0.000 OA
ATOM     15  C   UNL     1      10.006  16.231  19.431  0.00  0.00    +0.000 C 
ATOM     16  C   UNL     1       9.457  17.596  19.024  0.00  0.00    +0.000 C 
ATOM     17  C   UNL     1       8.094  17.458  18.355  0.00  0.00    +0.000 C 
ATOM     18  S   UNL     1       5.029  16.688  20.912  0.00  0.00    +0.000 S 
ATOM     19  C   UNL     1       4.085  15.445  20.214  0.00  0.00    +0.000 A 
ATOM     20  C   UNL     1       2.943  14.815  20.733  0.00  0.00    +0.000 A 
ENDROOT
BRANCH  13  21
ATOM     21  C   UNL     1      10.062  13.705  21.184  0.00  0.00    +0.000 A 
ATOM     22  C   UNL     1      11.036  13.301  20.247  0.00  0.00    +0.000 A 
ATOM     23  C   UNL     1      10.999  12.055  19.631  0.00  0.00    +0.000 A 
ATOM     24  C   UNL     1      10.032  11.144  20.009  0.00  0.00    +0.000 A 
ATOM     25  C   UNL     1       9.097  11.494  20.988  0.00  0.00    +0.000 A 
ATOM     26  C   UNL     1       9.070  12.773  21.610  0.00  0.00    +0.000 A 
BRANCH  26  27
ATOM     27  C   UNL     1       8.034  13.016  22.664  0.00  0.00    +0.000 A 
ATOM     28  C   UNL     1       8.219  12.558  23.990  0.00  0.00    +0.000 A 
ATOM     29  C   UNL     1       7.297  12.831  25.010  0.00  0.00    +0.000 A 
ATOM     30  C   UNL     1       6.173  13.600  24.738  0.00  0.00    +0.000 A 
ATOM     31  C   UNL     1       5.943  14.035  23.438  0.00  0.00    +0.000 A 
ATOM     32  C   UNL     1       6.841  13.709  22.412  0.00  0.00    +0.000 A 
ENDBRANCH  26  27
ENDBRANCH  13  21
TORSDOF 2
ENDMDL
MODEL 9
REMARK VINA RESULT:      -6.2      9.946     12.862
REMARK  Name = 
REMARK  3 active torsions:
REMARK  status: ('A' for Active; 'I' for Inactive)
REMARK    1  A    between atoms: C_1  and  C_2
REMARK    2  A    between atoms: C_13  and  C_15
REMARK    3  A    between atoms: C_20  and  C_21
REMARK                            x       y       z     vdW  Elec       q    Type
REMARK                         _______ _______ _______ _____ _____    ______ ____
ROOT
ATOM      1  C   UNL     1       8.022   8.884  17.832  0.00  0.00    +0.000 C 
ATOM      2  C   UNL     1       8.768  10.059  18.395  0.00  0.00    +0.000 A 
ATOM      3  C   UNL     1       9.369   9.998  19.655  0.00  0.00    +0.000 A 
ATOM      4  C   UNL     1      10.067  11.098  20.175  0.00  0.00    +0.000 A 
ATOM      5  C   UNL     1      10.162  12.283  19.421  0.00  0.00    +0.000 A 
ATOM      6  N   UNL     1      10.823  13.446  19.803  0.00  0.00    +0.000 NA
ATOM      7  C   UNL     1      10.717  14.373  18.868  0.00  0.00    +0.000 A 
ATOM      8  N   UNL     1      11.253  15.611  18.980  0.00  0.00    +0.000 N 
ATOM      9  C   UNL     1      10.968  16.721  18.076  0.00  0.00    +0.000 C 
ATOM     10  C   UNL     1      11.020  17.983  18.952  0.00  0.00    +0.000 C 
ATOM     11  C   UNL     1       9.646  18.631  19.132  0.00  0.00    +0.000 C 
ATOM     12  N   UNL     1       9.066  17.947  20.269  0.00  0.00    +0.000 N 
ATOM     13  C   UNL     1       7.683  17.885  20.454  0.00  0.00    +0.000 C 
ATOM     14  O   UNL     1       6.920  18.500  19.711  0.00  0.00    +0.000 OA
ATOM     15  C   UNL     1      10.123  17.518  21.168  0.00  0.00    +0.000 C 
ATOM     16  C   UNL     1      11.414  17.492  20.353  0.00  0.00    +0.000 C 
ATOM     17  C   UNL     1      11.919  16.065  20.179  0.00  0.00    +0.000 C 
ATOM     18  S   UNL     1       9.846  13.859  17.466  0.00  0.00    +0.000 S 
ATOM     19  C   UNL     1       9.565  12.325  18.167  0.00  0.00    +0.000 A 
ATOM     20  C   UNL     1       8.862  11.233  17.634  0.00  0.00    +0.000 A 
ENDROOT
BRANCH  13  21
ATOM     21  C   UNL     1       7.111  17.035  21.557  0.00  0.00    +0.000 A 
ATOM     22  C   UNL     1       7.592  17.282  22.860  0.00  0.00    +0.000 A 
ATOM     23  C   UNL     1       7.182  16.531  23.957  0.00  0.00    +0.000 A 
ATOM     24  C   UNL     1       6.205  15.568  23.786  0.00  0.00    +0.000 A 
ATOM     25  C   UNL     1       5.660  15.353  22.517  0.00  0.00    +0.000 A 
ATOM     26  C   UNL     1       6.084  16.066  21.362  0.00  0.00    +0.000 A 
BRANCH  26  27
ATOM     27  C   UNL     1       5.402  15.761  20.063  0.00  0.00    +0.000 A 
ATOM     28  C   UNL     1       4.146  16.330  19.745  0.00  0.00    +0.000 A 
ATOM     29  C   UNL     1       3.521  16.115  18.510  0.00  0.00    +0.000 A 
ATOM     30  C   UNL     1       4.150  15.344  17.540  0.00  0.00    +0.000 A 
ATOM     31  C   UNL     1       5.368  14.741  17.834  0.00  0.00    +0.000 A 
ATOM     32  C   UNL     1       5.960  14.915  19.093  0.00  0.00    +0.000 A 
ENDBRANCH  26  27
ENDBRANCH  13  21
TORSDOF 2
ENDMDL
