MODEL 1
REMARK VINA RESULT:      -7.6      0.000      0.000
REMARK  Name = 
REMARK  8 active torsions:
REMARK  status: ('A' for Active; 'I' for Inactive)
REMARK    1  A    between atoms: C_1  and  C_2
REMARK    2  A    between atoms: C_2  and  O_3
REMARK    3  A    between atoms: O_3  and  C_4
REMARK    4  A    between atoms: C_4  and  C_6
REMARK    5  A    between atoms: C_11  and  C_12
REMARK    6  A    between atoms: C_12  and  C_14
REMARK    7  A    between atoms: C_20  and  O_21
REMARK    8  A    between atoms: C_24  and  C_25
REMARK                            x       y       z     vdW  Elec       q    Type
REMARK                         _______ _______ _______ _____ _____    ______ ____
ROOT
ATOM      1  C   UNL     1       0.999   9.486  20.101  0.00  0.00    +0.000 A 
ATOM      2  S   UNL     1       0.931   8.293  21.325  0.00  0.00    +0.000 S 
ATOM      3  C   UNL     1       1.689   7.146  20.340  0.00  0.00    +0.000 A 
ATOM      4  N   UNL     1       1.895   5.895  20.799  0.00  0.00    +0.000 NA
ATOM      5  C   UNL     1       2.528   5.094  19.916  0.00  0.00    +0.000 A 
ATOM      6  C   UNL     1       2.920   5.442  18.630  0.00  0.00    +0.000 A 
ATOM      7  C   UNL     1       2.689   6.752  18.209  0.00  0.00    +0.000 A 
ATOM      8  C   UNL     1       2.049   7.647  19.095  0.00  0.00    +0.000 A 
ATOM      9  C   UNL     1       1.675   9.035  18.971  0.00  0.00    +0.000 A 
ATOM     10  C   UNL     1       1.947   9.881  17.763  0.00  0.00    +0.000 C 
ENDROOT
BRANCH   1  11
ATOM     11  C   UNL     1       0.408  10.804  20.287  0.00  0.00    +0.000 C 
ATOM     12  O   UNL     1       1.013  11.786  20.658  0.00  0.00    +0.000 OA
BRANCH  11  13
ATOM     13  O   UNL     1      -0.943  10.778  20.060  0.00  0.00    +0.000 OA
BRANCH  13  15
ATOM     14  C   UNL     1      -1.876  10.246  17.924  0.00  0.00    +0.000 C 
ATOM     15  C   UNL     1      -1.310  11.346  18.801  0.00  0.00    +0.000 C 
ENDBRANCH  13  15
ENDBRANCH  11  13
ENDBRANCH   1  11
BRANCH   6  16
ATOM     16  C   UNL     1       3.559   4.480  17.695  0.00  0.00    +0.000 C 
ATOM     17  O   UNL     1       2.970   3.453  17.364  0.00  0.00    +0.000 OA
BRANCH  16  18
ATOM     18  C   UNL     1       4.933   4.716  17.186  0.00  0.00    +0.000 A 
ATOM     19  C   UNL     1       5.106   4.984  15.823  0.00  0.00    +0.000 A 
ATOM     20  C   UNL     1       6.389   4.960  15.296  0.00  0.00    +0.000 A 
ATOM     21  F   UNL     1       6.560   5.097  13.975  0.00  0.00    +0.000 F 
ATOM     22  C   UNL     1       7.499   4.756  16.111  0.00  0.00    +0.000 A 
ATOM     23  C   UNL     1       7.337   4.611  17.487  0.00  0.00    +0.000 A 
ATOM     24  C   UNL     1       6.051   4.548  18.014  0.00  0.00    +0.000 A 
BRANCH  24  25
ATOM     25  O   UNL     1       5.886   4.267  19.335  0.00  0.00    +0.000 OA
ATOM     26  H   UNL     1       4.963   4.400  19.614  0.00  0.00    +0.000 HD
ENDBRANCH  24  25
ENDBRANCH  16  18
ENDBRANCH   6  16
TORSDOF 6
ENDMDL
MODEL 2
REMARK VINA RESULT:      -7.5      3.500      4.617
REMARK  Name = 
REMARK  8 active torsions:
REMARK  status: ('A' for Active; 'I' for Inactive)
REMARK    1  A    between atoms: C_1  and  C_2
REMARK    2  A    between atoms: C_2  and  O_3
REMARK    3  A    between atoms: O_3  and  C_4
REMARK    4  A    between atoms: C_4  and  C_6
REMARK    5  A    between atoms: C_11  and  C_12
REMARK    6  A    between atoms: C_12  and  C_14
REMARK    7  A    between atoms: C_20  and  O_21
REMARK    8  A    between atoms: C_24  and  C_25
REMARK                            x       y       z     vdW  Elec       q    Type
REMARK                         _______ _______ _______ _____ _____    ______ ____
ROOT
ATOM      1  C   UNL     1       0.024  11.040  20.856  0.00  0.00    +0.000 A 
ATOM      2  S   UNL     1       0.380  11.146  19.187  0.00  0.00    +0.000 S 
ATOM      3  C   UNL     1       1.158   9.645  19.190  0.00  0.00    +0.000 A 
ATOM      4  N   UNL     1       1.719   9.175  18.057  0.00  0.00    +0.000 NA
ATOM      5  C   UNL     1       2.285   7.958  18.201  0.00  0.00    +0.000 A 
ATOM      6  C   UNL     1       2.358   7.222  19.377  0.00  0.00    +0.000 A 
ATOM      7  C   UNL     1       1.755   7.753  20.517  0.00  0.00    +0.000 A 
ATOM      8  C   UNL     1       1.126   9.015  20.428  0.00  0.00    +0.000 A 
ATOM      9  C   UNL     1       0.426   9.822  21.398  0.00  0.00    +0.000 A 
ATOM     10  C   UNL     1       0.189   9.418  22.822  0.00  0.00    +0.000 C 
ENDROOT
BRANCH   1  11
ATOM     11  C   UNL     1      -0.632  12.128  21.567  0.00  0.00    +0.000 C 
ATOM     12  O   UNL     1      -0.061  12.950  22.250  0.00  0.00    +0.000 OA
BRANCH  11  13
ATOM     13  O   UNL     1      -1.994  12.063  21.426  0.00  0.00    +0.000 OA
BRANCH  13  15
ATOM     14  C   UNL     1      -4.135  12.743  22.243  0.00  0.00    +0.000 C 
ATOM     15  C   UNL     1      -2.697  12.436  22.613  0.00  0.00    +0.000 C 
ENDBRANCH  13  15
ENDBRANCH  11  13
ENDBRANCH   1  11
BRANCH   6  16
ATOM     16  C   UNL     1       3.055   5.913  19.466  0.00  0.00    +0.000 C 
ATOM     17  O   UNL     1       4.283   5.860  19.418  0.00  0.00    +0.000 OA
BRANCH  16  18
ATOM     18  C   UNL     1       2.285   4.649  19.562  0.00  0.00    +0.000 A 
ATOM     19  C   UNL     1       1.796   4.255  20.813  0.00  0.00    +0.000 A 
ATOM     20  C   UNL     1       1.295   2.970  20.961  0.00  0.00    +0.000 A 
ATOM     21  F   UNL     1       0.934   2.540  22.177  0.00  0.00    +0.000 F 
ATOM     22  C   UNL     1       1.200   2.105  19.874  0.00  0.00    +0.000 A 
ATOM     23  C   UNL     1       1.573   2.537  18.604  0.00  0.00    +0.000 A 
ATOM     24  C   UNL     1       2.155   3.793  18.460  0.00  0.00    +0.000 A 
BRANCH  24  25
ATOM     25  O   UNL     1       2.647   4.164  17.247  0.00  0.00    +0.000 OA
ATOM     26  H   UNL     1       2.002   4.697  16.749  0.00  0.00    +0.000 HD
ENDBRANCH  24  25
ENDBRANCH  16  18
ENDBRANCH   6  16
TORSDOF 6
ENDMDL
MODEL 3
REMARK VINA RESULT:      -7.5      4.229      5.835
REMARK  Name = 
REMARK  8 active torsions:
REMARK  status: ('A' for Active; 'I' for Inactive)
REMARK    1  A    between atoms: C_1  and  C_2
REMARK    2  A    between atoms: C_2  and  O_3
REMARK    3  A    between atoms: O_3  and  C_4
REMARK    4  A    between atoms: C_4  and  C_6
REMARK    5  A    between atoms: C_11  and  C_12
REMARK    6  A    between atoms: C_12  and  C_14
REMARK    7  A    between atoms: C_20  and  O_21
REMARK    8  A    between atoms: C_24  and  C_25
REMARK                            x       y       z     vdW  Elec       q    Type
REMARK                         _______ _______ _______ _____ _____    ______ ____
ROOT
ATOM      1  C   UNL     1       1.900   3.878  18.790  0.00  0.00    +0.000 A 
ATOM      2  S   UNL     1       1.931   5.581  18.623  0.00  0.00    +0.000 S 
ATOM      3  C   UNL     1       3.326   5.527  17.669  0.00  0.00    +0.000 A 
ATOM      4  N   UNL     1       3.884   6.673  17.228  0.00  0.00    +0.000 NA
ATOM      5  C   UNL     1       4.978   6.479  16.461  0.00  0.00    +0.000 A 
ATOM      6  C   UNL     1       5.554   5.254  16.150  0.00  0.00    +0.000 A 
ATOM      7  C   UNL     1       4.931   4.100  16.628  0.00  0.00    +0.000 A 
ATOM      8  C   UNL     1       3.769   4.234  17.419  0.00  0.00    +0.000 A 
ATOM      9  C   UNL     1       2.906   3.264  18.049  0.00  0.00    +0.000 A 
ATOM     10  C   UNL     1       3.087   1.779  17.951  0.00  0.00    +0.000 C 
ENDROOT
BRANCH   1  11
ATOM     11  C   UNL     1       0.906   3.212  19.618  0.00  0.00    +0.000 C 
ATOM     12  O   UNL     1       0.173   2.324  19.238  0.00  0.00    +0.000 OA
BRANCH  11  13
ATOM     13  O   UNL     1       0.849   3.766  20.870  0.00  0.00    +0.000 OA
BRANCH  13  15
ATOM     14  C   UNL     1       2.540   2.310  21.729  0.00  0.00    +0.000 C 
ATOM     15  C   UNL     1       2.109   3.752  21.545  0.00  0.00    +0.000 C 
ENDBRANCH  13  15
ENDBRANCH  11  13
ENDBRANCH   1  11
BRANCH   6  16
ATOM     16  C   UNL     1       6.798   5.129  15.349  0.00  0.00    +0.000 C 
ATOM     17  O   UNL     1       7.890   5.389  15.852  0.00  0.00    +0.000 OA
BRANCH  16  18
ATOM     18  C   UNL     1       6.742   4.739  13.918  0.00  0.00    +0.000 A 
ATOM     19  C   UNL     1       5.748   3.845  13.505  0.00  0.00    +0.000 A 
ATOM     20  C   UNL     1       5.835   3.286  12.238  0.00  0.00    +0.000 A 
ATOM     21  F   UNL     1       4.959   2.341  11.874  0.00  0.00    +0.000 F 
ATOM     22  C   UNL     1       6.843   3.661  11.354  0.00  0.00    +0.000 A 
ATOM     23  C   UNL     1       7.763   4.641  11.719  0.00  0.00    +0.000 A 
ATOM     24  C   UNL     1       7.735   5.146  13.016  0.00  0.00    +0.000 A 
BRANCH  24  25
ATOM     25  O   UNL     1       8.715   5.998  13.419  0.00  0.00    +0.000 OA
ATOM     26  H   UNL     1       8.922   5.881  14.364  0.00  0.00    +0.000 HD
ENDBRANCH  24  25
ENDBRANCH  16  18
ENDBRANCH   6  16
TORSDOF 6
ENDMDL
MODEL 4
REMARK VINA RESULT:      -7.5      2.723      8.019
REMARK  Name = 
REMARK  8 active torsions:
REMARK  status: ('A' for Active; 'I' for Inactive)
REMARK    1  A    between atoms: C_1  and  C_2
REMARK    2  A    between atoms: C_2  and  O_3
REMARK    3  A    between atoms: O_3  and  C_4
REMARK    4  A    between atoms: C_4  and  C_6
REMARK    5  A    between atoms: C_11  and  C_12
REMARK    6  A    between atoms: C_12  and  C_14
REMARK    7  A    between atoms: C_20  and  O_21
REMARK    8  A    between atoms: C_24  and  C_25
REMARK                            x       y       z     vdW  Elec       q    Type
REMARK                         _______ _______ _______ _____ _____    ______ ____
ROOT
ATOM      1  C   UNL     1       4.274   5.307  18.501  0.00  0.00    +0.000 A 
ATOM      2  S   UNL     1       3.302   5.206  19.905  0.00  0.00    +0.000 S 
ATOM      3  C   UNL     1       2.582   6.704  19.593  0.00  0.00    +0.000 A 
ATOM      4  N   UNL     1       1.674   7.206  20.454  0.00  0.00    +0.000 NA
ATOM      5  C   UNL     1       1.167   8.396  20.069  0.00  0.00    +0.000 A 
ATOM      6  C   UNL     1       1.528   9.112  18.935  0.00  0.00    +0.000 A 
ATOM      7  C   UNL     1       2.468   8.542  18.075  0.00  0.00    +0.000 A 
ATOM      8  C   UNL     1       3.021   7.287  18.411  0.00  0.00    +0.000 A 
ATOM      9  C   UNL     1       3.990   6.445  17.751  0.00  0.00    +0.000 A 
ATOM     10  C   UNL     1       4.638   6.768  16.438  0.00  0.00    +0.000 C 
ENDROOT
BRANCH   1  11
ATOM     11  C   UNL     1       5.260   4.284  18.181  0.00  0.00    +0.000 C 
ATOM     12  O   UNL     1       5.078   3.368  17.409  0.00  0.00    +0.000 OA
BRANCH  11  13
ATOM     13  O   UNL     1       6.402   4.445  18.922  0.00  0.00    +0.000 OA
BRANCH  13  15
ATOM     14  C   UNL     1       7.914   6.294  18.816  0.00  0.00    +0.000 C 
ATOM     15  C   UNL     1       7.485   4.992  18.167  0.00  0.00    +0.000 C 
ENDBRANCH  13  15
ENDBRANCH  11  13
ENDBRANCH   1  11
BRANCH   6  16
ATOM     16  C   UNL     1       0.966  10.449  18.614  0.00  0.00    +0.000 C 
ATOM     17  O   UNL     1       1.709  11.421  18.490  0.00  0.00    +0.000 OA
BRANCH  16  18
ATOM     18  C   UNL     1      -0.500  10.645  18.488  0.00  0.00    +0.000 A 
ATOM     19  C   UNL     1      -1.209   9.841  17.588  0.00  0.00    +0.000 A 
ATOM     20  C   UNL     1      -2.520  10.176  17.282  0.00  0.00    +0.000 A 
ATOM     21  F   UNL     1      -3.171   9.488  16.336  0.00  0.00    +0.000 F 
ATOM     22  C   UNL     1      -3.156  11.243  17.911  0.00  0.00    +0.000 A 
ATOM     23  C   UNL     1      -2.490  11.969  18.896  0.00  0.00    +0.000 A 
ATOM     24  C   UNL     1      -1.150  11.695  19.150  0.00  0.00    +0.000 A 
BRANCH  24  25
ATOM     25  O   UNL     1      -0.459  12.492  20.009  0.00  0.00    +0.000 OA
ATOM     26  H   UNL     1      -1.039  13.153  20.426  0.00  0.00    +0.000 HD
ENDBRANCH  24  25
ENDBRANCH  16  18
ENDBRANCH   6  16
TORSDOF 6
ENDMDL
MODEL 5
REMARK VINA RESULT:      -7.4      1.004      1.331
REMARK  Name = 
REMARK  8 active torsions:
REMARK  status: ('A' for Active; 'I' for Inactive)
REMARK    1  A    between atoms: C_1  and  C_2
REMARK    2  A    between atoms: C_2  and  O_3
REMARK    3  A    between atoms: O_3  and  C_4
REMARK    4  A    between atoms: C_4  and  C_6
REMARK    5  A    between atoms: C_11  and  C_12
REMARK    6  A    between atoms: C_12  and  C_14
REMARK    7  A    between atoms: C_20  and  O_21
REMARK    8  A    between atoms: C_24  and  C_25
REMARK                            x       y       z     vdW  Elec       q    Type
REMARK                         _______ _______ _______ _____ _____    ______ ____
ROOT
ATOM      1  C   UNL     1       1.152   9.124  20.020  0.00  0.00    +0.000 A 
ATOM      2  S   UNL     1       1.063   8.001  21.308  0.00  0.00    +0.000 S 
ATOM      3  C   UNL     1       1.821   6.796  20.396  0.00  0.00    +0.000 A 
ATOM      4  N   UNL     1       2.013   5.571  20.926  0.00  0.00    +0.000 NA
ATOM      5  C   UNL     1       2.647   4.718  20.095  0.00  0.00    +0.000 A 
ATOM      6  C   UNL     1       3.054   4.990  18.795  0.00  0.00    +0.000 A 
ATOM      7  C   UNL     1       2.837   6.276  18.300  0.00  0.00    +0.000 A 
ATOM      8  C   UNL     1       2.196   7.224  19.128  0.00  0.00    +0.000 A 
ATOM      9  C   UNL     1       1.834   8.605  18.923  0.00  0.00    +0.000 A 
ATOM     10  C   UNL     1       2.123   9.381  17.673  0.00  0.00    +0.000 C 
ENDROOT
BRANCH   1  11
ATOM     11  C   UNL     1       0.569  10.454  20.127  0.00  0.00    +0.000 C 
ATOM     12  O   UNL     1       1.132  11.482  19.816  0.00  0.00    +0.000 OA
BRANCH  11  13
ATOM     13  O   UNL     1      -0.677  10.406  20.695  0.00  0.00    +0.000 OA
BRANCH  13  15
ATOM     14  C   UNL     1      -1.020  10.622  23.051  0.00  0.00    +0.000 C 
ATOM     15  C   UNL     1      -0.852  11.365  21.740  0.00  0.00    +0.000 C 
ENDBRANCH  13  15
ENDBRANCH  11  13
ENDBRANCH   1  11
BRANCH   6  16
ATOM     16  C   UNL     1       3.693   3.973  17.921  0.00  0.00    +0.000 C 
ATOM     17  O   UNL     1       3.255   2.825  17.883  0.00  0.00    +0.000 OA
BRANCH  16  18
ATOM     18  C   UNL     1       4.897   4.310  17.122  0.00  0.00    +0.000 A 
ATOM     19  C   UNL     1       4.796   4.314  15.726  0.00  0.00    +0.000 A 
ATOM     20  C   UNL     1       5.958   4.382  14.971  0.00  0.00    +0.000 A 
ATOM     21  F   UNL     1       5.885   4.267  13.639  0.00  0.00    +0.000 F 
ATOM     22  C   UNL     1       7.203   4.525  15.577  0.00  0.00    +0.000 A 
ATOM     23  C   UNL     1       7.295   4.644  16.962  0.00  0.00    +0.000 A 
ATOM     24  C   UNL     1       6.145   4.492  17.733  0.00  0.00    +0.000 A 
BRANCH  24  25
ATOM     25  O   UNL     1       6.251   4.468  19.088  0.00  0.00    +0.000 OA
ATOM     26  H   UNL     1       5.376   4.451  19.514  0.00  0.00    +0.000 HD
ENDBRANCH  24  25
ENDBRANCH  16  18
ENDBRANCH   6  16
TORSDOF 6
ENDMDL
MODEL 6
REMARK VINA RESULT:      -7.4      3.520      4.761
REMARK  Name = 
REMARK  8 active torsions:
REMARK  status: ('A' for Active; 'I' for Inactive)
REMARK    1  A    between atoms: C_1  and  C_2
REMARK    2  A    between atoms: C_2  and  O_3
REMARK    3  A    between atoms: O_3  and  C_4
REMARK    4  A    between atoms: C_4  and  C_6
REMARK    5  A    between atoms: C_11  and  C_12
REMARK    6  A    between atoms: C_12  and  C_14
REMARK    7  A    between atoms: C_20  and  O_21
REMARK    8  A    between atoms: C_24  and  C_25
REMARK                            x       y       z     vdW  Elec       q    Type
REMARK                         _______ _______ _______ _____ _____    ______ ____
ROOT
ATOM      1  C   UNL     1      -0.139  11.070  20.721  0.00  0.00    +0.000 A 
ATOM      2  S   UNL     1       0.290  11.170  19.068  0.00  0.00    +0.000 S 
ATOM      3  C   UNL     1       1.084   9.678  19.117  0.00  0.00    +0.000 A 
ATOM      4  N   UNL     1       1.700   9.207  18.014  0.00  0.00    +0.000 NA
ATOM      5  C   UNL     1       2.273   7.998  18.191  0.00  0.00    +0.000 A 
ATOM      6  C   UNL     1       2.302   7.271  19.374  0.00  0.00    +0.000 A 
ATOM      7  C   UNL     1       1.643   7.803  20.483  0.00  0.00    +0.000 A 
ATOM      8  C   UNL     1       1.004   9.056  20.357  0.00  0.00    +0.000 A 
ATOM      9  C   UNL     1       0.252   9.861  21.289  0.00  0.00    +0.000 A 
ATOM     10  C   UNL     1      -0.044   9.464  22.704  0.00  0.00    +0.000 C 
ENDROOT
BRANCH   1  11
ATOM     11  C   UNL     1      -0.839  12.155  21.394  0.00  0.00    +0.000 C 
ATOM     12  O   UNL     1      -1.993  12.464  21.189  0.00  0.00    +0.000 OA
BRANCH  11  13
ATOM     13  O   UNL     1      -0.004  12.835  22.241  0.00  0.00    +0.000 OA
BRANCH  13  15
ATOM     14  C   UNL     1      -0.030  15.224  22.332  0.00  0.00    +0.000 C 
ATOM     15  C   UNL     1       0.561  14.006  21.648  0.00  0.00    +0.000 C 
ENDBRANCH  13  15
ENDBRANCH  11  13
ENDBRANCH   1  11
BRANCH   6  16
ATOM     16  C   UNL     1       3.010   5.971  19.504  0.00  0.00    +0.000 C 
ATOM     17  O   UNL     1       4.239   5.930  19.496  0.00  0.00    +0.000 OA
BRANCH  16  18
ATOM     18  C   UNL     1       2.250   4.700  19.593  0.00  0.00    +0.000 A 
ATOM     19  C   UNL     1       1.808   4.269  20.849  0.00  0.00    +0.000 A 
ATOM     20  C   UNL     1       1.320   2.977  20.979  0.00  0.00    +0.000 A 
ATOM     21  F   UNL     1       1.006   2.511  22.195  0.00  0.00    +0.000 F 
ATOM     22  C   UNL     1       1.190   2.141  19.873  0.00  0.00    +0.000 A 
ATOM     23  C   UNL     1       1.515   2.611  18.602  0.00  0.00    +0.000 A 
ATOM     24  C   UNL     1       2.085   3.874  18.472  0.00  0.00    +0.000 A 
BRANCH  24  25
ATOM     25  O   UNL     1       2.531   4.281  17.254  0.00  0.00    +0.000 OA
ATOM     26  H   UNL     1       2.375   5.232  17.116  0.00  0.00    +0.000 HD
ENDBRANCH  24  25
ENDBRANCH  16  18
ENDBRANCH   6  16
TORSDOF 6
ENDMDL
MODEL 7
REMARK VINA RESULT:      -7.4      0.958      1.448
REMARK  Name = 
REMARK  8 active torsions:
REMARK  status: ('A' for Active; 'I' for Inactive)
REMARK    1  A    between atoms: C_1  and  C_2
REMARK    2  A    between atoms: C_2  and  O_3
REMARK    3  A    between atoms: O_3  and  C_4
REMARK    4  A    between atoms: C_4  and  C_6
REMARK    5  A    between atoms: C_11  and  C_12
REMARK    6  A    between atoms: C_12  and  C_14
REMARK    7  A    between atoms: C_20  and  O_21
REMARK    8  A    between atoms: C_24  and  C_25
REMARK                            x       y       z     vdW  Elec       q    Type
REMARK                         _______ _______ _______ _____ _____    ______ ____
ROOT
ATOM      1  C   UNL     1       1.043   9.255  19.936  0.00  0.00    +0.000 A 
ATOM      2  S   UNL     1       0.925   8.214  21.288  0.00  0.00    +0.000 S 
ATOM      3  C   UNL     1       1.738   6.969  20.482  0.00  0.00    +0.000 A 
ATOM      4  N   UNL     1       1.931   5.784  21.095  0.00  0.00    +0.000 NA
ATOM      5  C   UNL     1       2.611   4.893  20.343  0.00  0.00    +0.000 A 
ATOM      6  C   UNL     1       3.061   5.092  19.044  0.00  0.00    +0.000 A 
ATOM      7  C   UNL     1       2.840   6.339  18.461  0.00  0.00    +0.000 A 
ATOM      8  C   UNL     1       2.153   7.324  19.204  0.00  0.00    +0.000 A 
ATOM      9  C   UNL     1       1.774   8.683  18.899  0.00  0.00    +0.000 A 
ATOM     10  C   UNL     1       2.097   9.384  17.614  0.00  0.00    +0.000 C 
ENDROOT
BRANCH   1  11
ATOM     11  C   UNL     1       0.433  10.578  19.937  0.00  0.00    +0.000 C 
ATOM     12  O   UNL     1      -0.742  10.797  19.738  0.00  0.00    +0.000 OA
BRANCH  11  13
ATOM     13  O   UNL     1       1.374  11.558  20.120  0.00  0.00    +0.000 OA
BRANCH  13  15
ATOM     14  C   UNL     1       2.453  12.904  18.465  0.00  0.00    +0.000 C 
ATOM     15  C   UNL     1       1.182  12.684  19.261  0.00  0.00    +0.000 C 
ENDBRANCH  13  15
ENDBRANCH  11  13
ENDBRANCH   1  11
BRANCH   6  16
ATOM     16  C   UNL     1       3.750   4.034  18.260  0.00  0.00    +0.000 C 
ATOM     17  O   UNL     1       3.387   2.863  18.345  0.00  0.00    +0.000 OA
BRANCH  16  18
ATOM     18  C   UNL     1       4.917   4.365  17.404  0.00  0.00    +0.000 A 
ATOM     19  C   UNL     1       4.756   4.342  16.013  0.00  0.00    +0.000 A 
ATOM     20  C   UNL     1       5.884   4.404  15.209  0.00  0.00    +0.000 A 
ATOM     21  F   UNL     1       5.755   4.265  13.883  0.00  0.00    +0.000 F 
ATOM     22  C   UNL     1       7.153   4.568  15.759  0.00  0.00    +0.000 A 
ATOM     23  C   UNL     1       7.302   4.713  17.136  0.00  0.00    +0.000 A 
ATOM     24  C   UNL     1       6.188   4.567  17.957  0.00  0.00    +0.000 A 
BRANCH  24  25
ATOM     25  O   UNL     1       6.352   4.569  19.307  0.00  0.00    +0.000 OA
ATOM     26  H   UNL     1       5.585   4.964  19.759  0.00  0.00    +0.000 HD
ENDBRANCH  24  25
ENDBRANCH  16  18
ENDBRANCH   6  16
TORSDOF 6
ENDMDL
MODEL 8
REMARK VINA RESULT:      -7.3      3.060      8.012
REMARK  Name = 
REMARK  8 active torsions:
REMARK  status: ('A' for Active; 'I' for Inactive)
REMARK    1  A    between atoms: C_1  and  C_2
REMARK    2  A    between atoms: C_2  and  O_3
REMARK    3  A    between atoms: O_3  and  C_4
REMARK    4  A    between atoms: C_4  and  C_6
REMARK    5  A    between atoms: C_11  and  C_12
REMARK    6  A    between atoms: C_12  and  C_14
REMARK    7  A    between atoms: C_20  and  O_21
REMARK    8  A    between atoms: C_24  and  C_25
REMARK                            x       y       z     vdW  Elec       q    Type
REMARK                         _______ _______ _______ _____ _____    ______ ____
ROOT
ATOM      1  C   UNL     1       3.747   5.239  18.696  0.00  0.00    +0.000 A 
ATOM      2  S   UNL     1       4.164   6.311  17.430  0.00  0.00    +0.000 S 
ATOM      3  C   UNL     1       3.085   7.489  17.983  0.00  0.00    +0.000 A 
ATOM      4  N   UNL     1       2.946   8.646  17.305  0.00  0.00    +0.000 NA
ATOM      5  C   UNL     1       2.068   9.501  17.871  0.00  0.00    +0.000 A 
ATOM      6  C   UNL     1       1.316   9.264  19.014  0.00  0.00    +0.000 A 
ATOM      7  C   UNL     1       1.505   8.053  19.681  0.00  0.00    +0.000 A 
ATOM      8  C   UNL     1       2.426   7.123  19.151  0.00  0.00    +0.000 A 
ATOM      9  C   UNL     1       2.845   5.813  19.588  0.00  0.00    +0.000 A 
ATOM     10  C   UNL     1       2.348   5.136  20.831  0.00  0.00    +0.000 C 
ENDROOT
BRANCH   1  11
ATOM     11  C   UNL     1       4.312   3.900  18.779  0.00  0.00    +0.000 C 
ATOM     12  O   UNL     1       5.295   3.603  19.423  0.00  0.00    +0.000 OA
BRANCH  11  13
ATOM     13  O   UNL     1       3.631   3.023  17.975  0.00  0.00    +0.000 OA
BRANCH  13  15
ATOM     14  C   UNL     1       1.478   2.231  18.648  0.00  0.00    +0.000 C 
ATOM     15  C   UNL     1       2.974   1.987  18.708  0.00  0.00    +0.000 C 
ENDBRANCH  13  15
ENDBRANCH  11  13
ENDBRANCH   1  11
BRANCH   6  16
ATOM     16  C   UNL     1       0.323  10.235  19.540  0.00  0.00    +0.000 C 
ATOM     17  O   UNL     1       0.536  10.833  20.593  0.00  0.00    +0.000 OA
BRANCH  16  18
ATOM     18  C   UNL     1      -0.963  10.463  18.834  0.00  0.00    +0.000 A 
ATOM     19  C   UNL     1      -1.220   9.742  17.661  0.00  0.00    +0.000 A 
ATOM     20  C   UNL     1      -2.292  10.120  16.866  0.00  0.00    +0.000 A 
ATOM     21  F   UNL     1      -2.479   9.519  15.684  0.00  0.00    +0.000 F 
ATOM     22  C   UNL     1      -3.152  11.143  17.256  0.00  0.00    +0.000 A 
ATOM     23  C   UNL     1      -2.969  11.780  18.482  0.00  0.00    +0.000 A 
ATOM     24  C   UNL     1      -1.849  11.467  19.247  0.00  0.00    +0.000 A 
BRANCH  24  25
ATOM     25  O   UNL     1      -1.592  12.182  20.374  0.00  0.00    +0.000 OA
ATOM     26  H   UNL     1      -1.402  11.599  21.130  0.00  0.00    +0.000 HD
ENDBRANCH  24  25
ENDBRANCH  16  18
ENDBRANCH   6  16
TORSDOF 6
ENDMDL
MODEL 9
REMARK VINA RESULT:      -7.3      2.825      7.912
REMARK  Name = 
REMARK  8 active torsions:
REMARK  status: ('A' for Active; 'I' for Inactive)
REMARK    1  A    between atoms: C_1  and  C_2
REMARK    2  A    between atoms: C_2  and  O_3
REMARK    3  A    between atoms: O_3  and  C_4
REMARK    4  A    between atoms: C_4  and  C_6
REMARK    5  A    between atoms: C_11  and  C_12
REMARK    6  A    between atoms: C_12  and  C_14
REMARK    7  A    between atoms: C_20  and  O_21
REMARK    8  A    between atoms: C_24  and  C_25
REMARK                            x       y       z     vdW  Elec       q    Type
REMARK                         _______ _______ _______ _____ _____    ______ ____
ROOT
ATOM      1  C   UNL     1       4.011   5.216  18.830  0.00  0.00    +0.000 A 
ATOM      2  S   UNL     1       3.050   5.219  20.246  0.00  0.00    +0.000 S 
ATOM      3  C   UNL     1       2.374   6.720  19.862  0.00  0.00    +0.000 A 
ATOM      4  N   UNL     1       1.490   7.295  20.703  0.00  0.00    +0.000 NA
ATOM      5  C   UNL     1       1.017   8.479  20.260  0.00  0.00    +0.000 A 
ATOM      6  C   UNL     1       1.388   9.123  19.087  0.00  0.00    +0.000 A 
ATOM      7  C   UNL     1       2.302   8.480  18.251  0.00  0.00    +0.000 A 
ATOM      8  C   UNL     1       2.819   7.226  18.647  0.00  0.00    +0.000 A 
ATOM      9  C   UNL     1       3.754   6.321  18.024  0.00  0.00    +0.000 A 
ATOM     10  C   UNL     1       4.399   6.554  16.691  0.00  0.00    +0.000 C 
ENDROOT
BRANCH   1  11
ATOM     11  C   UNL     1       4.961   4.147  18.556  0.00  0.00    +0.000 C 
ATOM     12  O   UNL     1       6.098   4.109  18.975  0.00  0.00    +0.000 OA
BRANCH  11  13
ATOM     13  O   UNL     1       4.430   3.219  17.699  0.00  0.00    +0.000 OA
BRANCH  13  15
ATOM     14  C   UNL     1       2.265   2.210  17.785  0.00  0.00    +0.000 C 
ATOM     15  C   UNL     1       3.665   2.213  18.367  0.00  0.00    +0.000 C 
ENDBRANCH  13  15
ENDBRANCH  11  13
ENDBRANCH   1  11
BRANCH   6  16
ATOM     16  C   UNL     1       0.865  10.459  18.701  0.00  0.00    +0.000 C 
ATOM     17  O   UNL     1       1.635  11.403  18.537  0.00  0.00    +0.000 OA
BRANCH  16  18
ATOM     18  C   UNL     1      -0.594  10.688  18.557  0.00  0.00    +0.000 A 
ATOM     19  C   UNL     1      -1.289   9.985  17.565  0.00  0.00    +0.000 A 
ATOM     20  C   UNL     1      -2.587  10.369  17.259  0.00  0.00    +0.000 A 
ATOM     21  F   UNL     1      -3.221   9.785  16.235  0.00  0.00    +0.000 F 
ATOM     22  C   UNL     1      -3.226  11.379  17.972  0.00  0.00    +0.000 A 
ATOM     23  C   UNL     1      -2.578  11.997  19.040  0.00  0.00    +0.000 A 
ATOM     24  C   UNL     1      -1.249  11.679  19.301  0.00  0.00    +0.000 A 
BRANCH  24  25
ATOM     25  O   UNL     1      -0.571  12.379  20.250  0.00  0.00    +0.000 OA
ATOM     26  H   UNL     1      -0.096  11.785  20.859  0.00  0.00    +0.000 HD
ENDBRANCH  24  25
ENDBRANCH  16  18
ENDBRANCH   6  16
TORSDOF 6
ENDMDL
