MODEL 1
REMARK VINA RESULT:      -7.7      0.000      0.000
REMARK  Name = 
REMARK  5 active torsions:
REMARK  status: ('A' for Active; 'I' for Inactive)
REMARK    1  A    between atoms: N_2  and  C_4
REMARK    2  A    between atoms: C_5  and  C_6
REMARK    3  A    between atoms: C_6  and  S_7
REMARK    4  A    between atoms: S_7  and  C_10
REMARK    5  A    between atoms: C_18  and  C_19
REMARK                            x       y       z     vdW  Elec       q    Type
REMARK                         _______ _______ _______ _____ _____    ______ ____
ROOT
ATOM      1  C   UNL     1       5.727   6.504  17.262  0.00  0.00    +0.000 C 
ATOM      2  C   UNL     1       5.624   5.267  16.680  0.00  0.00    +0.000 C 
ATOM      3  N   UNL     1       4.413   4.645  17.214  0.00  0.00    +0.000 N 
ATOM      4  C   UNL     1       3.489   5.749  17.454  0.00  0.00    +0.000 C 
ATOM      5  C   UNL     1       2.476   5.830  18.566  0.00  0.00    +0.000 C 
ATOM      6  C   UNL     1       1.934   7.074  18.712  0.00  0.00    +0.000 C 
ATOM      7  C   UNL     1       2.530   8.224  18.012  0.00  0.00    +0.000 C 
ATOM      8 CL   UNL     1       1.592   9.632  17.745  0.00  0.00    +0.000 Cl
ATOM      9  C   UNL     1       3.814   8.126  17.611  0.00  0.00    +0.000 C 
ATOM     10  N   UNL     1       4.424   6.880  17.663  0.00  0.00    +0.000 N 
ATOM     11  H   UNL     1       4.651   4.252  18.132  0.00  0.00    +0.000 HD
ENDROOT
BRANCH   5  12
ATOM     12  C   UNL     1       2.061   4.696  19.415  0.00  0.00    +0.000 A 
ATOM     13  C   UNL     1       1.379   3.587  18.912  0.00  0.00    +0.000 A 
ATOM     14  C   UNL     1       1.060   2.543  19.773  0.00  0.00    +0.000 A 
ATOM     15  N   UNL     1       1.366   2.526  21.088  0.00  0.00    +0.000 NA
ATOM     16  C   UNL     1       2.030   3.594  21.563  0.00  0.00    +0.000 A 
ATOM     17  C   UNL     1       2.397   4.676  20.780  0.00  0.00    +0.000 A 
ENDBRANCH   5  12
BRANCH   1  19
ATOM     18  O   UNL     1       7.793   7.308  17.984  0.00  0.00    +0.000 OA
ATOM     19  N   UNL     1       6.876   6.502  18.201  0.00  0.00    +0.000 N 
ATOM     20  O   UNL     1       6.823   5.708  19.149  0.00  0.00    +0.000 OA
ENDBRANCH   1  19
BRANCH   2  21
ATOM     21  C   UNL     1       5.625   5.452  15.151  0.00  0.00    +0.000 C 
BRANCH  21  22
ATOM     22  S   UNL     1       7.016   4.726  14.340  0.00  0.00    +0.000 S 
ATOM     23  O   UNL     1       7.774   5.805  13.730  0.00  0.00    +0.000 OA
ATOM     24  O   UNL     1       7.657   3.798  15.252  0.00  0.00    +0.000 OA
BRANCH  22  25
ATOM     25  C   UNL     1       6.285   3.805  13.015  0.00  0.00    +0.000 A 
ATOM     26  C   UNL     1       4.908   3.928  12.773  0.00  0.00    +0.000 A 
ATOM     27  C   UNL     1       4.324   3.132  11.794  0.00  0.00    +0.000 A 
ATOM     28  C   UNL     1       5.106   2.244  11.054  0.00  0.00    +0.000 A 
ATOM     29  C   UNL     1       6.483   2.155  11.282  0.00  0.00    +0.000 A 
ATOM     30  C   UNL     1       7.078   2.946  12.265  0.00  0.00    +0.000 A 
ENDBRANCH  22  25
ENDBRANCH  21  22
ENDBRANCH   2  21
TORSDOF 5
ENDMDL
MODEL 2
REMARK VINA RESULT:      -7.7      0.062      1.046
REMARK  Name = 
REMARK  5 active torsions:
REMARK  status: ('A' for Active; 'I' for Inactive)
REMARK    1  A    between atoms: N_2  and  C_4
REMARK    2  A    between atoms: C_5  and  C_6
REMARK    3  A    between atoms: C_6  and  S_7
REMARK    4  A    between atoms: S_7  and  C_10
REMARK    5  A    between atoms: C_18  and  C_19
REMARK                            x       y       z     vdW  Elec       q    Type
REMARK                         _______ _______ _______ _____ _____    ______ ____
ROOT
ATOM      1  C   UNL     1       5.737   6.530  17.224  0.00  0.00    +0.000 C 
ATOM      2  C   UNL     1       5.653   5.282  16.663  0.00  0.00    +0.000 C 
ATOM      3  N   UNL     1       4.465   4.642  17.224  0.00  0.00    +0.000 N 
ATOM      4  C   UNL     1       3.520   5.728  17.462  0.00  0.00    +0.000 C 
ATOM      5  C   UNL     1       2.521   5.802  18.587  0.00  0.00    +0.000 C 
ATOM      6  C   UNL     1       1.953   7.037  18.722  0.00  0.00    +0.000 C 
ATOM      7  C   UNL     1       2.512   8.189  17.997  0.00  0.00    +0.000 C 
ATOM      8 CL   UNL     1       1.539   9.571  17.723  0.00  0.00    +0.000 Cl
ATOM      9  C   UNL     1       3.793   8.114  17.578  0.00  0.00    +0.000 C 
ATOM     10  N   UNL     1       4.431   6.883  17.639  0.00  0.00    +0.000 N 
ATOM     11  H   UNL     1       4.725   4.267  18.144  0.00  0.00    +0.000 HD
ENDROOT
BRANCH   5  12
ATOM     12  C   UNL     1       2.145   4.672  19.459  0.00  0.00    +0.000 A 
ATOM     13  C   UNL     1       2.446   4.639  20.822  0.00  0.00    +0.000 A 
ATOM     14  C   UNL     1       2.021   3.554  21.580  0.00  0.00    +0.000 A 
ATOM     15  N   UNL     1       1.326   2.509  21.083  0.00  0.00    +0.000 NA
ATOM     16  C   UNL     1       1.034   2.552  19.772  0.00  0.00    +0.000 A 
ATOM     17  C   UNL     1       1.408   3.594  18.939  0.00  0.00    +0.000 A 
ENDBRANCH   5  12
BRANCH   1  19
ATOM     18  O   UNL     1       6.918   5.749  19.076  0.00  0.00    +0.000 OA
ATOM     19  N   UNL     1       6.899   6.569  18.146  0.00  0.00    +0.000 N 
ATOM     20  O   UNL     1       7.777   7.407  17.905  0.00  0.00    +0.000 OA
ENDBRANCH   1  19
BRANCH   2  21
ATOM     21  C   UNL     1       5.627   5.444  15.131  0.00  0.00    +0.000 C 
BRANCH  21  22
ATOM     22  S   UNL     1       7.011   4.717  14.308  0.00  0.00    +0.000 S 
ATOM     23  O   UNL     1       7.763   5.795  13.690  0.00  0.00    +0.000 OA
ATOM     24  O   UNL     1       7.660   3.790  15.214  0.00  0.00    +0.000 OA
BRANCH  22  25
ATOM     25  C   UNL     1       6.267   3.794  12.991  0.00  0.00    +0.000 A 
ATOM     26  C   UNL     1       4.899   3.960  12.726  0.00  0.00    +0.000 A 
ATOM     27  C   UNL     1       4.302   3.164  11.754  0.00  0.00    +0.000 A 
ATOM     28  C   UNL     1       5.063   2.236  11.044  0.00  0.00    +0.000 A 
ATOM     29  C   UNL     1       6.433   2.104  11.294  0.00  0.00    +0.000 A 
ATOM     30  C   UNL     1       7.041   2.894  12.270  0.00  0.00    +0.000 A 
ENDBRANCH  22  25
ENDBRANCH  21  22
ENDBRANCH   2  21
TORSDOF 5
ENDMDL
MODEL 3
REMARK VINA RESULT:      -7.7      0.102      1.256
REMARK  Name = 
REMARK  5 active torsions:
REMARK  status: ('A' for Active; 'I' for Inactive)
REMARK    1  A    between atoms: N_2  and  C_4
REMARK    2  A    between atoms: C_5  and  C_6
REMARK    3  A    between atoms: C_6  and  S_7
REMARK    4  A    between atoms: S_7  and  C_10
REMARK    5  A    between atoms: C_18  and  C_19
REMARK                            x       y       z     vdW  Elec       q    Type
REMARK                         _______ _______ _______ _____ _____    ______ ____
ROOT
ATOM      1  C   UNL     1       5.704   6.531  17.193  0.00  0.00    +0.000 C 
ATOM      2  C   UNL     1       5.603   5.285  16.630  0.00  0.00    +0.000 C 
ATOM      3  N   UNL     1       4.418   4.652  17.207  0.00  0.00    +0.000 N 
ATOM      4  C   UNL     1       3.484   5.745  17.461  0.00  0.00    +0.000 C 
ATOM      5  C   UNL     1       2.503   5.824  18.600  0.00  0.00    +0.000 C 
ATOM      6  C   UNL     1       1.946   7.062  18.747  0.00  0.00    +0.000 C 
ATOM      7  C   UNL     1       2.503   8.212  18.016  0.00  0.00    +0.000 C 
ATOM      8 CL   UNL     1       1.536   9.602  17.759  0.00  0.00    +0.000 Cl
ATOM      9  C   UNL     1       3.777   8.128  17.578  0.00  0.00    +0.000 C 
ATOM     10  N   UNL     1       4.407   6.893  17.628  0.00  0.00    +0.000 N 
ATOM     11  H   UNL     1       4.689   4.274  18.122  0.00  0.00    +0.000 HD
ENDROOT
BRANCH   5  12
ATOM     12  C   UNL     1       2.131   4.694  19.476  0.00  0.00    +0.000 A 
ATOM     13  C   UNL     1       2.471   4.645  20.829  0.00  0.00    +0.000 A 
ATOM     14  C   UNL     1       2.048   3.563  21.592  0.00  0.00    +0.000 A 
ATOM     15  N   UNL     1       1.319   2.535  21.108  0.00  0.00    +0.000 NA
ATOM     16  C   UNL     1       0.990   2.593  19.806  0.00  0.00    +0.000 A 
ATOM     17  C   UNL     1       1.359   3.634  18.970  0.00  0.00    +0.000 A 
ENDBRANCH   5  12
BRANCH   1  19
ATOM     18  O   UNL     1       7.766   7.392  17.857  0.00  0.00    +0.000 OA
ATOM     19  N   UNL     1       6.879   6.559  18.098  0.00  0.00    +0.000 N 
ATOM     20  O   UNL     1       6.878   5.759  19.042  0.00  0.00    +0.000 OA
ENDBRANCH   1  19
BRANCH   2  21
ATOM     21  C   UNL     1       5.556   5.451  15.099  0.00  0.00    +0.000 C 
BRANCH  21  22
ATOM     22  S   UNL     1       6.937   4.742  14.257  0.00  0.00    +0.000 S 
ATOM     23  O   UNL     1       7.617   5.818  13.557  0.00  0.00    +0.000 OA
ATOM     24  O   UNL     1       7.661   3.889  15.180  0.00  0.00    +0.000 OA
BRANCH  22  25
ATOM     25  C   UNL     1       6.185   3.724  13.017  0.00  0.00    +0.000 A 
ATOM     26  C   UNL     1       6.974   2.798  12.318  0.00  0.00    +0.000 A 
ATOM     27  C   UNL     1       6.398   2.071  11.283  0.00  0.00    +0.000 A 
ATOM     28  C   UNL     1       5.051   2.248  10.967  0.00  0.00    +0.000 A 
ATOM     29  C   UNL     1       4.266   3.149  11.693  0.00  0.00    +0.000 A 
ATOM     30  C   UNL     1       4.835   3.888  12.730  0.00  0.00    +0.000 A 
ENDBRANCH  22  25
ENDBRANCH  21  22
ENDBRANCH   2  21
TORSDOF 5
ENDMDL
MODEL 4
REMARK VINA RESULT:      -7.4      0.813      1.401
REMARK  Name = 
REMARK  5 active torsions:
REMARK  status: ('A' for Active; 'I' for Inactive)
REMARK    1  A    between atoms: N_2  and  C_4
REMARK    2  A    between atoms: C_5  and  C_6
REMARK    3  A    between atoms: C_6  and  S_7
REMARK    4  A    between atoms: S_7  and  C_10
REMARK    5  A    between atoms: C_18  and  C_19
REMARK                            x       y       z     vdW  Elec       q    Type
REMARK                         _______ _______ _______ _____ _____    ______ ____
ROOT
ATOM      1  C   UNL     1       5.831   6.689  16.917  0.00  0.00    +0.000 C 
ATOM      2  C   UNL     1       5.879   5.398  16.458  0.00  0.00    +0.000 C 
ATOM      3  N   UNL     1       4.901   4.634  17.230  0.00  0.00    +0.000 N 
ATOM      4  C   UNL     1       3.830   5.579  17.533  0.00  0.00    +0.000 C 
ATOM      5  C   UNL     1       2.996   5.598  18.787  0.00  0.00    +0.000 C 
ATOM      6  C   UNL     1       2.254   6.737  18.923  0.00  0.00    +0.000 C 
ATOM      7  C   UNL     1       2.511   7.893  18.048  0.00  0.00    +0.000 C 
ATOM      8 CL   UNL     1       1.294   9.078  17.831  0.00  0.00    +0.000 Cl
ATOM      9  C   UNL     1       3.718   7.979  17.450  0.00  0.00    +0.000 C 
ATOM     10  N   UNL     1       4.554   6.872  17.497  0.00  0.00    +0.000 N 
ATOM     11  H   UNL     1       5.343   4.389  18.125  0.00  0.00    +0.000 HD
ENDROOT
BRANCH   5  12
ATOM     12  C   UNL     1       2.934   4.506  19.779  0.00  0.00    +0.000 A 
ATOM     13  C   UNL     1       3.825   3.431  19.773  0.00  0.00    +0.000 A 
ATOM     14  C   UNL     1       3.722   2.465  20.767  0.00  0.00    +0.000 A 
ATOM     15  N   UNL     1       2.803   2.490  21.755  0.00  0.00    +0.000 NA
ATOM     16  C   UNL     1       1.953   3.532  21.758  0.00  0.00    +0.000 A 
ATOM     17  C   UNL     1       1.984   4.546  20.814  0.00  0.00    +0.000 A 
ENDBRANCH   5  12
BRANCH   1  19
ATOM     18  O   UNL     1       7.402   6.226  18.576  0.00  0.00    +0.000 OA
ATOM     19  N   UNL     1       7.085   6.989  17.651  0.00  0.00    +0.000 N 
ATOM     20  O   UNL     1       7.735   7.971  17.272  0.00  0.00    +0.000 OA
ENDBRANCH   1  19
BRANCH   2  21
ATOM     21  C   UNL     1       5.620   5.416  14.940  0.00  0.00    +0.000 C 
BRANCH  21  22
ATOM     22  S   UNL     1       6.943   4.753  13.976  0.00  0.00    +0.000 S 
ATOM     23  O   UNL     1       7.512   5.848  13.209  0.00  0.00    +0.000 OA
ATOM     24  O   UNL     1       7.782   3.938  14.832  0.00  0.00    +0.000 OA
BRANCH  22  25
ATOM     25  C   UNL     1       6.118   3.696  12.818  0.00  0.00    +0.000 A 
ATOM     26  C   UNL     1       6.837   2.659  12.204  0.00  0.00    +0.000 A 
ATOM     27  C   UNL     1       6.209   1.894  11.227  0.00  0.00    +0.000 A 
ATOM     28  C   UNL     1       4.879   2.144  10.888  0.00  0.00    +0.000 A 
ATOM     29  C   UNL     1       4.163   3.158  11.532  0.00  0.00    +0.000 A 
ATOM     30  C   UNL     1       4.785   3.935  12.509  0.00  0.00    +0.000 A 
ENDBRANCH  22  25
ENDBRANCH  21  22
ENDBRANCH   2  21
TORSDOF 5
ENDMDL
MODEL 5
REMARK VINA RESULT:      -7.4      0.831      1.026
REMARK  Name = 
REMARK  5 active torsions:
REMARK  status: ('A' for Active; 'I' for Inactive)
REMARK    1  A    between atoms: N_2  and  C_4
REMARK    2  A    between atoms: C_5  and  C_6
REMARK    3  A    between atoms: C_6  and  S_7
REMARK    4  A    between atoms: S_7  and  C_10
REMARK    5  A    between atoms: C_18  and  C_19
REMARK                            x       y       z     vdW  Elec       q    Type
REMARK                         _______ _______ _______ _____ _____    ______ ____
ROOT
ATOM      1  C   UNL     1       5.822   6.768  16.904  0.00  0.00    +0.000 C 
ATOM      2  C   UNL     1       5.906   5.467  16.483  0.00  0.00    +0.000 C 
ATOM      3  N   UNL     1       4.939   4.702  17.268  0.00  0.00    +0.000 N 
ATOM      4  C   UNL     1       3.843   5.629  17.535  0.00  0.00    +0.000 C 
ATOM      5  C   UNL     1       2.997   5.663  18.780  0.00  0.00    +0.000 C 
ATOM      6  C   UNL     1       2.227   6.787  18.877  0.00  0.00    +0.000 C 
ATOM      7  C   UNL     1       2.465   7.924  17.972  0.00  0.00    +0.000 C 
ATOM      8 CL   UNL     1       1.222   9.072  17.710  0.00  0.00    +0.000 Cl
ATOM      9  C   UNL     1       3.674   8.022  17.382  0.00  0.00    +0.000 C 
ATOM     10  N   UNL     1       4.536   6.937  17.468  0.00  0.00    +0.000 N 
ATOM     11  H   UNL     1       5.378   4.492  18.173  0.00  0.00    +0.000 HD
ENDROOT
BRANCH   5  12
ATOM     12  C   UNL     1       2.951   4.598  19.802  0.00  0.00    +0.000 A 
ATOM     13  C   UNL     1       2.062   4.622  20.877  0.00  0.00    +0.000 A 
ATOM     14  C   UNL     1       2.058   3.559  21.773  0.00  0.00    +0.000 A 
ATOM     15  N   UNL     1       2.870   2.486  21.677  0.00  0.00    +0.000 NA
ATOM     16  C   UNL     1       3.719   2.466  20.635  0.00  0.00    +0.000 A 
ATOM     17  C   UNL     1       3.790   3.475  19.688  0.00  0.00    +0.000 A 
ENDBRANCH   5  12
BRANCH   1  19
ATOM     18  O   UNL     1       7.635   8.172  17.326  0.00  0.00    +0.000 OA
ATOM     19  N   UNL     1       7.062   7.119  17.641  0.00  0.00    +0.000 N 
ATOM     20  O   UNL     1       7.422   6.342  18.534  0.00  0.00    +0.000 OA
ENDBRANCH   1  19
BRANCH   2  21
ATOM     21  C   UNL     1       5.660   5.436  14.963  0.00  0.00    +0.000 C 
BRANCH  21  22
ATOM     22  S   UNL     1       7.000   4.761  14.031  0.00  0.00    +0.000 S 
ATOM     23  O   UNL     1       7.638   5.861  13.330  0.00  0.00    +0.000 OA
ATOM     24  O   UNL     1       7.774   3.887  14.891  0.00  0.00    +0.000 OA
BRANCH  22  25
ATOM     25  C   UNL     1       6.191   3.775  12.802  0.00  0.00    +0.000 A 
ATOM     26  C   UNL     1       4.832   3.999  12.530  0.00  0.00    +0.000 A 
ATOM     27  C   UNL     1       4.180   3.159  11.633  0.00  0.00    +0.000 A 
ATOM     28  C   UNL     1       4.877   2.129  11.003  0.00  0.00    +0.000 A 
ATOM     29  C   UNL     1       6.239   1.937  11.258  0.00  0.00    +0.000 A 
ATOM     30  C   UNL     1       6.902   2.770  12.159  0.00  0.00    +0.000 A 
ENDBRANCH  22  25
ENDBRANCH  21  22
ENDBRANCH   2  21
TORSDOF 5
ENDMDL
MODEL 6
REMARK VINA RESULT:      -7.3      7.176     10.357
REMARK  Name = 
REMARK  5 active torsions:
REMARK  status: ('A' for Active; 'I' for Inactive)
REMARK    1  A    between atoms: N_2  and  C_4
REMARK    2  A    between atoms: C_5  and  C_6
REMARK    3  A    between atoms: C_6  and  S_7
REMARK    4  A    between atoms: S_7  and  C_10
REMARK    5  A    between atoms: C_18  and  C_19
REMARK                            x       y       z     vdW  Elec       q    Type
REMARK                         _______ _______ _______ _____ _____    ______ ____
ROOT
ATOM      1  C   UNL     1      -1.053  12.496  21.582  0.00  0.00    +0.000 C 
ATOM      2  C   UNL     1       0.262  12.875  21.636  0.00  0.00    +0.000 C 
ATOM      3  N   UNL     1       0.995  12.005  20.719  0.00  0.00    +0.000 N 
ATOM      4  C   UNL     1       0.055  11.703  19.643  0.00  0.00    +0.000 C 
ATOM      5  C   UNL     1      -0.027  10.410  18.876  0.00  0.00    +0.000 C 
ATOM      6  C   UNL     1      -1.158  10.304  18.117  0.00  0.00    +0.000 C 
ATOM      7  C   UNL     1      -2.260  11.262  18.300  0.00  0.00    +0.000 C 
ATOM      8 CL   UNL     1      -3.405  11.486  17.046  0.00  0.00    +0.000 Cl
ATOM      9  C   UNL     1      -2.332  11.930  19.471  0.00  0.00    +0.000 C 
ATOM     10  N   UNL     1      -1.248  11.859  20.333  0.00  0.00    +0.000 N 
ATOM     11  H   UNL     1       1.175  11.123  21.212  0.00  0.00    +0.000 HD
ENDROOT
BRANCH   5  12
ATOM     12  C   UNL     1       1.001   9.350  18.893  0.00  0.00    +0.000 A 
ATOM     13  C   UNL     1       1.191   8.501  19.984  0.00  0.00    +0.000 A 
ATOM     14  C   UNL     1       2.156   7.504  19.903  0.00  0.00    +0.000 A 
ATOM     15  N   UNL     1       2.939   7.294  18.823  0.00  0.00    +0.000 NA
ATOM     16  C   UNL     1       2.745   8.111  17.773  0.00  0.00    +0.000 A 
ATOM     17  C   UNL     1       1.802   9.127  17.760  0.00  0.00    +0.000 A 
ENDBRANCH   5  12
BRANCH   1  19
ATOM     18  O   UNL     1      -0.599  11.080  23.377  0.00  0.00    +0.000 OA
ATOM     19  N   UNL     1      -1.424  11.851  22.866  0.00  0.00    +0.000 N 
ATOM     20  O   UNL     1      -2.527  12.147  23.344  0.00  0.00    +0.000 OA
ENDBRANCH   1  19
BRANCH   2  21
ATOM     21  C   UNL     1       0.345  14.375  21.296  0.00  0.00    +0.000 C 
BRANCH  21  22
ATOM     22  S   UNL     1       1.956  15.071  21.500  0.00  0.00    +0.000 S 
ATOM     23  O   UNL     1       1.787  16.390  22.084  0.00  0.00    +0.000 OA
ATOM     24  O   UNL     1       2.813  14.088  22.133  0.00  0.00    +0.000 OA
BRANCH  22  25
ATOM     25  C   UNL     1       2.511  15.318  19.836  0.00  0.00    +0.000 A 
ATOM     26  C   UNL     1       3.478  14.453  19.300  0.00  0.00    +0.000 A 
ATOM     27  C   UNL     1       3.977  14.710  18.028  0.00  0.00    +0.000 A 
ATOM     28  C   UNL     1       3.503  15.797  17.295  0.00  0.00    +0.000 A 
ATOM     29  C   UNL     1       2.514  16.632  17.826  0.00  0.00    +0.000 A 
ATOM     30  C   UNL     1       2.010  16.387  19.103  0.00  0.00    +0.000 A 
ENDBRANCH  22  25
ENDBRANCH  21  22
ENDBRANCH   2  21
TORSDOF 5
ENDMDL
MODEL 7
REMARK VINA RESULT:      -7.2      6.916      9.865
REMARK  Name = 
REMARK  5 active torsions:
REMARK  status: ('A' for Active; 'I' for Inactive)
REMARK    1  A    between atoms: N_2  and  C_4
REMARK    2  A    between atoms: C_5  and  C_6
REMARK    3  A    between atoms: C_6  and  S_7
REMARK    4  A    between atoms: S_7  and  C_10
REMARK    5  A    between atoms: C_18  and  C_19
REMARK                            x       y       z     vdW  Elec       q    Type
REMARK                         _______ _______ _______ _____ _____    ______ ____
ROOT
ATOM      1  C   UNL     1      -0.017  12.259  19.418  0.00  0.00    +0.000 C 
ATOM      2  C   UNL     1      -0.558  11.741  18.271  0.00  0.00    +0.000 C 
ATOM      3  N   UNL     1      -0.074  10.366  18.155  0.00  0.00    +0.000 N 
ATOM      4  C   UNL     1       0.070   9.894  19.529  0.00  0.00    +0.000 C 
ATOM      5  C   UNL     1       1.116   8.932  20.029  0.00  0.00    +0.000 C 
ATOM      6  C   UNL     1       1.184   8.871  21.391  0.00  0.00    +0.000 C 
ATOM      7  C   UNL     1       0.480   9.870  22.210  0.00  0.00    +0.000 C 
ATOM      8 CL   UNL     1       0.106   9.516  23.843  0.00  0.00    +0.000 Cl
ATOM      9  C   UNL     1       0.159  11.049  21.636  0.00  0.00    +0.000 C 
ATOM     10  N   UNL     1       0.293  11.165  20.259  0.00  0.00    +0.000 N 
ATOM     11  H   UNL     1       0.870  10.407  17.754  0.00  0.00    +0.000 HD
ENDROOT
BRANCH   5  12
ATOM     12  C   UNL     1       1.981   8.101  19.167  0.00  0.00    +0.000 A 
ATOM     13  C   UNL     1       2.512   8.563  17.962  0.00  0.00    +0.000 A 
ATOM     14  C   UNL     1       3.350   7.729  17.231  0.00  0.00    +0.000 A 
ATOM     15  N   UNL     1       3.690   6.478  17.608  0.00  0.00    +0.000 NA
ATOM     16  C   UNL     1       3.181   6.043  18.774  0.00  0.00    +0.000 A 
ATOM     17  C   UNL     1       2.344   6.805  19.574  0.00  0.00    +0.000 A 
ENDBRANCH   5  12
BRANCH   1  19
ATOM     18  O   UNL     1       1.845  12.982  18.215  0.00  0.00    +0.000 OA
ATOM     19  N   UNL     1       0.988  13.289  19.057  0.00  0.00    +0.000 N 
ATOM     20  O   UNL     1       0.884  14.392  19.610  0.00  0.00    +0.000 OA
ENDBRANCH   1  19
BRANCH   2  21
ATOM     21  C   UNL     1      -2.090  11.873  18.358  0.00  0.00    +0.000 C 
BRANCH  21  22
ATOM     22  S   UNL     1      -2.969  10.744  17.322  0.00  0.00    +0.000 S 
ATOM     23  O   UNL     1      -2.614  11.049  15.947  0.00  0.00    +0.000 OA
ATOM     24  O   UNL     1      -2.803   9.402  17.847  0.00  0.00    +0.000 OA
BRANCH  22  25
ATOM     25  C   UNL     1      -4.661  11.227  17.531  0.00  0.00    +0.000 A 
ATOM     26  C   UNL     1      -5.143  12.349  16.839  0.00  0.00    +0.000 A 
ATOM     27  C   UNL     1      -6.444  12.778  17.079  0.00  0.00    +0.000 A 
ATOM     28  C   UNL     1      -7.256  12.086  17.978  0.00  0.00    +0.000 A 
ATOM     29  C   UNL     1      -6.774  10.950  18.636  0.00  0.00    +0.000 A 
ATOM     30  C   UNL     1      -5.469  10.513  18.405  0.00  0.00    +0.000 A 
ENDBRANCH  22  25
ENDBRANCH  21  22
ENDBRANCH   2  21
TORSDOF 5
ENDMDL
MODEL 8
REMARK VINA RESULT:      -7.1      6.853      9.794
REMARK  Name = 
REMARK  5 active torsions:
REMARK  status: ('A' for Active; 'I' for Inactive)
REMARK    1  A    between atoms: N_2  and  C_4
REMARK    2  A    between atoms: C_5  and  C_6
REMARK    3  A    between atoms: C_6  and  S_7
REMARK    4  A    between atoms: S_7  and  C_10
REMARK    5  A    between atoms: C_18  and  C_19
REMARK                            x       y       z     vdW  Elec       q    Type
REMARK                         _______ _______ _______ _____ _____    ______ ____
ROOT
ATOM      1  C   UNL     1       0.090  12.200  19.404  0.00  0.00    +0.000 C 
ATOM      2  C   UNL     1      -0.470  11.683  18.265  0.00  0.00    +0.000 C 
ATOM      3  N   UNL     1      -0.029  10.293  18.166  0.00  0.00    +0.000 N 
ATOM      4  C   UNL     1       0.106   9.835  19.545  0.00  0.00    +0.000 C 
ATOM      5  C   UNL     1       1.123   8.848  20.055  0.00  0.00    +0.000 C 
ATOM      6  C   UNL     1       1.193   8.802  21.418  0.00  0.00    +0.000 C 
ATOM      7  C   UNL     1       0.522   9.834  22.226  0.00  0.00    +0.000 C 
ATOM      8 CL   UNL     1       0.142   9.513  23.864  0.00  0.00    +0.000 Cl
ATOM      9  C   UNL     1       0.235  11.013  21.636  0.00  0.00    +0.000 C 
ATOM     10  N   UNL     1       0.369  11.107  20.258  0.00  0.00    +0.000 N 
ATOM     11  H   UNL     1       0.915  10.300  17.762  0.00  0.00    +0.000 HD
ENDROOT
BRANCH   5  12
ATOM     12  C   UNL     1       1.959   7.980  19.203  0.00  0.00    +0.000 A 
ATOM     13  C   UNL     1       2.569   8.433  18.032  0.00  0.00    +0.000 A 
ATOM     14  C   UNL     1       3.373   7.561  17.308  0.00  0.00    +0.000 A 
ATOM     15  N   UNL     1       3.609   6.280  17.662  0.00  0.00    +0.000 NA
ATOM     16  C   UNL     1       3.025   5.852  18.794  0.00  0.00    +0.000 A 
ATOM     17  C   UNL     1       2.214   6.651  19.585  0.00  0.00    +0.000 A 
ENDBRANCH   5  12
BRANCH   1  19
ATOM     18  O   UNL     1       0.994  14.348  19.461  0.00  0.00    +0.000 OA
ATOM     19  N   UNL     1       1.124  13.194  19.026  0.00  0.00    +0.000 N 
ATOM     20  O   UNL     1       2.057  12.791  18.319  0.00  0.00    +0.000 OA
ENDBRANCH   1  19
BRANCH   2  21
ATOM     21  C   UNL     1      -1.997  11.862  18.354  0.00  0.00    +0.000 C 
BRANCH  21  22
ATOM     22  S   UNL     1      -2.911  10.802  17.276  0.00  0.00    +0.000 S 
ATOM     23  O   UNL     1      -2.627  11.220  15.914  0.00  0.00    +0.000 OA
ATOM     24  O   UNL     1      -2.700   9.427  17.685  0.00  0.00    +0.000 OA
BRANCH  22  25
ATOM     25  C   UNL     1      -4.596  11.238  17.602  0.00  0.00    +0.000 A 
ATOM     26  C   UNL     1      -5.345  10.459  18.497  0.00  0.00    +0.000 A 
ATOM     27  C   UNL     1      -6.693  10.750  18.676  0.00  0.00    +0.000 A 
ATOM     28  C   UNL     1      -7.277  11.816  17.991  0.00  0.00    +0.000 A 
ATOM     29  C   UNL     1      -6.512  12.606  17.128  0.00  0.00    +0.000 A 
ATOM     30  C   UNL     1      -5.160  12.320  16.937  0.00  0.00    +0.000 A 
ENDBRANCH  22  25
ENDBRANCH  21  22
ENDBRANCH   2  21
TORSDOF 5
ENDMDL
MODEL 9
REMARK VINA RESULT:      -7.1      6.852      9.788
REMARK  Name = 
REMARK  5 active torsions:
REMARK  status: ('A' for Active; 'I' for Inactive)
REMARK    1  A    between atoms: N_2  and  C_4
REMARK    2  A    between atoms: C_5  and  C_6
REMARK    3  A    between atoms: C_6  and  S_7
REMARK    4  A    between atoms: S_7  and  C_10
REMARK    5  A    between atoms: C_18  and  C_19
REMARK                            x       y       z     vdW  Elec       q    Type
REMARK                         _______ _______ _______ _____ _____    ______ ____
ROOT
ATOM      1  C   UNL     1       0.033  12.220  19.352  0.00  0.00    +0.000 C 
ATOM      2  C   UNL     1      -0.492  11.683  18.206  0.00  0.00    +0.000 C 
ATOM      3  N   UNL     1      -0.027  10.300  18.131  0.00  0.00    +0.000 N 
ATOM      4  C   UNL     1       0.084   9.857  19.518  0.00  0.00    +0.000 C 
ATOM      5  C   UNL     1       1.105   8.892  20.060  0.00  0.00    +0.000 C 
ATOM      6  C   UNL     1       1.145   8.860  21.425  0.00  0.00    +0.000 C 
ATOM      7  C   UNL     1       0.439   9.888  22.207  0.00  0.00    +0.000 C 
ATOM      8 CL   UNL     1       0.027   9.577  23.839  0.00  0.00    +0.000 Cl
ATOM      9  C   UNL     1       0.147  11.057  21.599  0.00  0.00    +0.000 C 
ATOM     10  N   UNL     1       0.310  11.140  20.224  0.00  0.00    +0.000 N 
ATOM     11  H   UNL     1       0.926  10.318  17.748  0.00  0.00    +0.000 HD
ENDROOT
BRANCH   5  12
ATOM     12  C   UNL     1       1.975   8.029  19.236  0.00  0.00    +0.000 A 
ATOM     13  C   UNL     1       2.255   6.703  19.569  0.00  0.00    +0.000 A 
ATOM     14  C   UNL     1       3.052   5.947  18.717  0.00  0.00    +0.000 A 
ATOM     15  N   UNL     1       3.586   6.413  17.569  0.00  0.00    +0.000 NA
ATOM     16  C   UNL     1       3.305   7.689  17.250  0.00  0.00    +0.000 A 
ATOM     17  C   UNL     1       2.515   8.516  18.033  0.00  0.00    +0.000 A 
ENDBRANCH   5  12
BRANCH   1  19
ATOM     18  O   UNL     1       0.846  14.404  19.313  0.00  0.00    +0.000 OA
ATOM     19  N   UNL     1       1.060  13.227  18.989  0.00  0.00    +0.000 N 
ATOM     20  O   UNL     1       2.069  12.812  18.404  0.00  0.00    +0.000 OA
ENDBRANCH   1  19
BRANCH   2  21
ATOM     21  C   UNL     1      -2.024  11.839  18.259  0.00  0.00    +0.000 C 
BRANCH  21  22
ATOM     22  S   UNL     1      -2.894  10.765  17.159  0.00  0.00    +0.000 S 
ATOM     23  O   UNL     1      -2.602  11.201  15.805  0.00  0.00    +0.000 OA
ATOM     24  O   UNL     1      -2.655   9.392  17.560  0.00  0.00    +0.000 OA
BRANCH  22  25
ATOM     25  C   UNL     1      -4.595  11.156  17.464  0.00  0.00    +0.000 A 
ATOM     26  C   UNL     1      -5.166  12.270  16.831  0.00  0.00    +0.000 A 
ATOM     27  C   UNL     1      -6.473  12.626  17.147  0.00  0.00    +0.000 A 
ATOM     28  C   UNL     1      -7.203  11.868  18.063  0.00  0.00    +0.000 A 
ATOM     29  C   UNL     1      -6.634  10.740  18.662  0.00  0.00    +0.000 A 
ATOM     30  C   UNL     1      -5.322  10.377  18.355  0.00  0.00    +0.000 A 
ENDBRANCH  22  25
ENDBRANCH  21  22
ENDBRANCH   2  21
TORSDOF 5
ENDMDL
