MODEL 1
REMARK VINA RESULT:      -8.4      0.000      0.000
REMARK  Name = 
REMARK  9 active torsions:
REMARK  status: ('A' for Active; 'I' for Inactive)
REMARK    1  A    between atoms: C_1  and  C_2
REMARK    2  A    between atoms: C_2  and  C_3
REMARK    3  A    between atoms: C_2  and  N_4
REMARK    4  A    between atoms: C_6  and  C_7
REMARK    5  A    between atoms: C_7  and  C_9
REMARK    6  A    between atoms: C_13  and  N_14
REMARK    7  A    between atoms: C_15  and  C_17
REMARK    8  A    between atoms: C_17  and  N_18
REMARK    9  A    between atoms: C_21  and  C_22
REMARK                            x       y       z     vdW  Elec       q    Type
REMARK                         _______ _______ _______ _____ _____    ______ ____
ROOT
ATOM      1  C   UNL     1       1.559   8.703  19.170  0.00  0.00    +0.000 A 
ATOM      2  C   UNL     1       1.144   8.466  20.473  0.00  0.00    +0.000 A 
ATOM      3  N   UNL     1       1.359   7.308  21.130  0.00  0.00    +0.000 NA
ATOM      4  C   UNL     1       1.999   6.328  20.444  0.00  0.00    +0.000 A 
ATOM      5  C   UNL     1       2.433   6.436  19.121  0.00  0.00    +0.000 A 
ATOM      6  C   UNL     1       2.186   7.654  18.474  0.00  0.00    +0.000 A 
ENDROOT
BRANCH   5   7
ATOM      7  N   UNL     1       3.077   5.392  18.414  0.00  0.00    +0.000 N 
ATOM      8  C   UNL     1       2.434   4.380  17.712  0.00  0.00    +0.000 C 
ATOM      9  O   UNL     1       1.217   4.202  17.689  0.00  0.00    +0.000 OA
ATOM     10  H   UNL     1       4.093   5.385  18.437  0.00  0.00    +0.000 HD
BRANCH   8  11
ATOM     11  C   UNL     1       3.348   3.431  16.975  0.00  0.00    +0.000 C 
BRANCH  11  12
ATOM     12  N   UNL     1       4.665   4.007  16.807  0.00  0.00    +0.000 N 
ATOM     13  C   UNL     1       5.307   4.244  15.623  0.00  0.00    +0.000 A 
ATOM     14  C   UNL     1       6.554   4.713  15.954  0.00  0.00    +0.000 A 
ATOM     15  C   UNL     1       6.574   4.715  17.363  0.00  0.00    +0.000 A 
ATOM     16  N   UNL     1       5.421   4.282  17.890  0.00  0.00    +0.000 NA
BRANCH  15  17
ATOM     17  C   UNL     1       7.792   5.153  18.160  0.00  0.00    +0.000 C 
ATOM     18  C   UNL     1       7.978   6.617  18.494  0.00  0.00    +0.000 C 
ATOM     19  C   UNL     1       7.595   5.663  19.573  0.00  0.00    +0.000 C 
ENDBRANCH  15  17
ENDBRANCH  11  12
ENDBRANCH   8  11
ENDBRANCH   5   7
BRANCH   1  20
ATOM     20  C   UNL     1       1.301  10.010  18.516  0.00  0.00    +0.000 C 
ATOM     21  O   UNL     1       2.225  10.555  17.917  0.00  0.00    +0.000 OA
BRANCH  20  24
ATOM     22  N   UNL     1      -2.167  11.159  18.101  0.00  0.00    +0.000 N 
ATOM     23  C   UNL     1      -1.088  10.404  17.706  0.00  0.00    +0.000 A 
ATOM     24  C   UNL     1      -0.036  10.612  18.585  0.00  0.00    +0.000 A 
ATOM     25  C   UNL     1      -0.528  11.510  19.591  0.00  0.00    +0.000 A 
ATOM     26  C   UNL     1       0.048  12.101  20.730  0.00  0.00    +0.000 A 
ATOM     27  N   UNL     1      -0.671  12.942  21.519  0.00  0.00    +0.000 NA
ATOM     28  C   UNL     1      -1.957  13.197  21.194  0.00  0.00    +0.000 A 
ATOM     29  C   UNL     1      -2.604  12.671  20.091  0.00  0.00    +0.000 A 
ATOM     30  F   UNL     1      -3.881  12.978  19.836  0.00  0.00    +0.000 F 
ATOM     31  C   UNL     1      -1.858  11.817  19.275  0.00  0.00    +0.000 A 
BRANCH  22  33
ATOM     32  C   UNL     1      -3.197  11.020  15.867  0.00  0.00    +0.000 C 
ATOM     33  C   UNL     1      -3.423  11.303  17.354  0.00  0.00    +0.000 C 
ATOM     34  C   UNL     1      -4.568  10.440  17.894  0.00  0.00    +0.000 C 
ENDBRANCH  22  33
ENDBRANCH  20  24
ENDBRANCH   1  20
TORSDOF 7
ENDMDL
MODEL 2
REMARK VINA RESULT:      -8.2      0.922      2.514
REMARK  Name = 
REMARK  9 active torsions:
REMARK  status: ('A' for Active; 'I' for Inactive)
REMARK    1  A    between atoms: C_1  and  C_2
REMARK    2  A    between atoms: C_2  and  C_3
REMARK    3  A    between atoms: C_2  and  N_4
REMARK    4  A    between atoms: C_6  and  C_7
REMARK    5  A    between atoms: C_7  and  C_9
REMARK    6  A    between atoms: C_13  and  N_14
REMARK    7  A    between atoms: C_15  and  C_17
REMARK    8  A    between atoms: C_17  and  N_18
REMARK    9  A    between atoms: C_21  and  C_22
REMARK                            x       y       z     vdW  Elec       q    Type
REMARK                         _______ _______ _______ _____ _____    ______ ____
ROOT
ATOM      1  C   UNL     1       1.523   9.015  19.253  0.00  0.00    +0.000 A 
ATOM      2  C   UNL     1       1.087   8.750  20.544  0.00  0.00    +0.000 A 
ATOM      3  N   UNL     1       1.315   7.588  21.190  0.00  0.00    +0.000 NA
ATOM      4  C   UNL     1       1.991   6.632  20.504  0.00  0.00    +0.000 A 
ATOM      5  C   UNL     1       2.447   6.769  19.190  0.00  0.00    +0.000 A 
ATOM      6  C   UNL     1       2.185   7.989  18.555  0.00  0.00    +0.000 A 
ENDROOT
BRANCH   5   7
ATOM      7  N   UNL     1       3.128   5.748  18.482  0.00  0.00    +0.000 N 
ATOM      8  C   UNL     1       2.530   4.642  17.894  0.00  0.00    +0.000 C 
ATOM      9  O   UNL     1       1.338   4.350  17.989  0.00  0.00    +0.000 OA
ATOM     10  H   UNL     1       4.138   5.837  18.414  0.00  0.00    +0.000 HD
BRANCH   8  11
ATOM     11  C   UNL     1       3.466   3.740  17.126  0.00  0.00    +0.000 C 
BRANCH  11  12
ATOM     12  N   UNL     1       4.601   4.482  16.621  0.00  0.00    +0.000 N 
ATOM     13  C   UNL     1       4.939   4.664  15.309  0.00  0.00    +0.000 A 
ATOM     14  C   UNL     1       6.127   5.353  15.314  0.00  0.00    +0.000 A 
ATOM     15  C   UNL     1       6.430   5.534  16.678  0.00  0.00    +0.000 A 
ATOM     16  N   UNL     1       5.502   5.001  17.482  0.00  0.00    +0.000 NA
BRANCH  15  17
ATOM     17  C   UNL     1       7.690   6.246  17.145  0.00  0.00    +0.000 C 
ATOM     18  C   UNL     1       7.608   7.690  17.590  0.00  0.00    +0.000 C 
ATOM     19  C   UNL     1       7.817   6.621  18.607  0.00  0.00    +0.000 C 
ENDBRANCH  15  17
ENDBRANCH  11  12
ENDBRANCH   8  11
ENDBRANCH   5   7
BRANCH   1  20
ATOM     20  C   UNL     1       1.247  10.325  18.612  0.00  0.00    +0.000 C 
ATOM     21  O   UNL     1       2.116  10.816  17.894  0.00  0.00    +0.000 OA
BRANCH  20  24
ATOM     22  N   UNL     1      -1.629  12.372  19.640  0.00  0.00    +0.000 N 
ATOM     23  C   UNL     1      -0.297  12.033  19.711  0.00  0.00    +0.000 A 
ATOM     24  C   UNL     1      -0.041  10.992  18.832  0.00  0.00    +0.000 A 
ATOM     25  C   UNL     1      -1.281  10.721  18.162  0.00  0.00    +0.000 A 
ATOM     26  C   UNL     1      -1.670   9.789  17.183  0.00  0.00    +0.000 A 
ATOM     27  N   UNL     1      -2.950   9.753  16.724  0.00  0.00    +0.000 NA
ATOM     28  C   UNL     1      -3.844  10.635  17.222  0.00  0.00    +0.000 A 
ATOM     29  C   UNL     1      -3.555  11.579  18.191  0.00  0.00    +0.000 A 
ATOM     30  F   UNL     1      -4.500  12.415  18.635  0.00  0.00    +0.000 F 
ATOM     31  C   UNL     1      -2.243  11.605  18.669  0.00  0.00    +0.000 A 
BRANCH  22  33
ATOM     32  C   UNL     1      -2.714  12.686  21.829  0.00  0.00    +0.000 C 
ATOM     33  C   UNL     1      -2.307  13.342  20.508  0.00  0.00    +0.000 C 
ATOM     34  C   UNL     1      -1.493  14.613  20.771  0.00  0.00    +0.000 C 
ENDBRANCH  22  33
ENDBRANCH  20  24
ENDBRANCH   1  20
TORSDOF 7
ENDMDL
MODEL 3
REMARK VINA RESULT:      -8.1      1.511      2.448
REMARK  Name = 
REMARK  9 active torsions:
REMARK  status: ('A' for Active; 'I' for Inactive)
REMARK    1  A    between atoms: C_1  and  C_2
REMARK    2  A    between atoms: C_2  and  C_3
REMARK    3  A    between atoms: C_2  and  N_4
REMARK    4  A    between atoms: C_6  and  C_7
REMARK    5  A    between atoms: C_7  and  C_9
REMARK    6  A    between atoms: C_13  and  N_14
REMARK    7  A    between atoms: C_15  and  C_17
REMARK    8  A    between atoms: C_17  and  N_18
REMARK    9  A    between atoms: C_21  and  C_22
REMARK                            x       y       z     vdW  Elec       q    Type
REMARK                         _______ _______ _______ _____ _____    ______ ____
ROOT
ATOM      1  C   UNL     1       1.757   8.426  19.015  0.00  0.00    +0.000 A 
ATOM      2  C   UNL     1       1.264   8.214  20.295  0.00  0.00    +0.000 A 
ATOM      3  N   UNL     1       1.462   7.080  20.998  0.00  0.00    +0.000 NA
ATOM      4  C   UNL     1       2.166   6.096  20.383  0.00  0.00    +0.000 A 
ATOM      5  C   UNL     1       2.681   6.179  19.087  0.00  0.00    +0.000 A 
ATOM      6  C   UNL     1       2.450   7.372  18.391  0.00  0.00    +0.000 A 
ENDROOT
BRANCH   5   7
ATOM      7  N   UNL     1       3.392   5.131  18.453  0.00  0.00    +0.000 N 
ATOM      8  C   UNL     1       4.721   4.804  18.687  0.00  0.00    +0.000 C 
ATOM      9  O   UNL     1       5.488   5.442  19.409  0.00  0.00    +0.000 OA
ATOM     10  H   UNL     1       2.881   4.586  17.764  0.00  0.00    +0.000 HD
BRANCH   8  11
ATOM     11  C   UNL     1       5.224   3.591  17.943  0.00  0.00    +0.000 C 
BRANCH  11  12
ATOM     12  N   UNL     1       5.832   3.971  16.685  0.00  0.00    +0.000 N 
ATOM     13  C   UNL     1       6.985   4.687  16.520  0.00  0.00    +0.000 A 
ATOM     14  C   UNL     1       7.122   4.880  15.167  0.00  0.00    +0.000 A 
ATOM     15  C   UNL     1       5.997   4.250  14.600  0.00  0.00    +0.000 A 
ATOM     16  N   UNL     1       5.202   3.695  15.524  0.00  0.00    +0.000 NA
BRANCH  15  17
ATOM     17  C   UNL     1       5.739   4.238  13.101  0.00  0.00    +0.000 C 
ATOM     18  C   UNL     1       6.908   4.136  12.145  0.00  0.00    +0.000 C 
ATOM     19  C   UNL     1       6.005   2.965  12.325  0.00  0.00    +0.000 C 
ENDBRANCH  15  17
ENDBRANCH  11  12
ENDBRANCH   8  11
ENDBRANCH   5   7
BRANCH   1  20
ATOM     20  C   UNL     1       1.513   9.707  18.309  0.00  0.00    +0.000 C 
ATOM     21  O   UNL     1       2.418  10.176  17.623  0.00  0.00    +0.000 OA
BRANCH  20  24
ATOM     22  N   UNL     1      -1.911  11.019  18.037  0.00  0.00    +0.000 N 
ATOM     23  C   UNL     1      -0.888  10.208  17.604  0.00  0.00    +0.000 A 
ATOM     24  C   UNL     1       0.211  10.374  18.431  0.00  0.00    +0.000 A 
ATOM     25  C   UNL     1      -0.190  11.306  19.446  0.00  0.00    +0.000 A 
ATOM     26  C   UNL     1       0.465  11.880  20.550  0.00  0.00    +0.000 A 
ATOM     27  N   UNL     1      -0.176  12.764  21.360  0.00  0.00    +0.000 NA
ATOM     28  C   UNL     1      -1.462  13.078  21.090  0.00  0.00    +0.000 A 
ATOM     29  C   UNL     1      -2.184  12.572  20.025  0.00  0.00    +0.000 A 
ATOM     30  F   UNL     1      -3.454  12.938  19.824  0.00  0.00    +0.000 F 
ATOM     31  C   UNL     1      -1.518  11.674  19.187  0.00  0.00    +0.000 A 
BRANCH  22  33
ATOM     32  C   UNL     1      -3.029  10.988  15.841  0.00  0.00    +0.000 C 
ATOM     33  C   UNL     1      -3.192  11.216  17.345  0.00  0.00    +0.000 C 
ATOM     34  C   UNL     1      -4.332  10.354  17.896  0.00  0.00    +0.000 C 
ENDBRANCH  22  33
ENDBRANCH  20  24
ENDBRANCH   1  20
TORSDOF 7
ENDMDL
MODEL 4
REMARK VINA RESULT:      -8.1      3.051      9.389
REMARK  Name = 
REMARK  9 active torsions:
REMARK  status: ('A' for Active; 'I' for Inactive)
REMARK    1  A    between atoms: C_1  and  C_2
REMARK    2  A    between atoms: C_2  and  C_3
REMARK    3  A    between atoms: C_2  and  N_4
REMARK    4  A    between atoms: C_6  and  C_7
REMARK    5  A    between atoms: C_7  and  C_9
REMARK    6  A    between atoms: C_13  and  N_14
REMARK    7  A    between atoms: C_15  and  C_17
REMARK    8  A    between atoms: C_17  and  N_18
REMARK    9  A    between atoms: C_21  and  C_22
REMARK                            x       y       z     vdW  Elec       q    Type
REMARK                         _______ _______ _______ _____ _____    ______ ____
ROOT
ATOM      1  C   UNL     1       1.509   8.627  19.474  0.00  0.00    +0.000 A 
ATOM      2  C   UNL     1       1.858   8.075  20.699  0.00  0.00    +0.000 A 
ATOM      3  N   UNL     1       1.274   8.409  21.867  0.00  0.00    +0.000 NA
ATOM      4  C   UNL     1       0.309   9.362  21.815  0.00  0.00    +0.000 A 
ATOM      5  C   UNL     1      -0.103  10.014  20.650  0.00  0.00    +0.000 A 
ATOM      6  C   UNL     1       0.533   9.640  19.460  0.00  0.00    +0.000 A 
ENDROOT
BRANCH   5   7
ATOM      7  N   UNL     1      -1.094  11.025  20.621  0.00  0.00    +0.000 N 
ATOM      8  C   UNL     1      -0.849  12.392  20.614  0.00  0.00    +0.000 C 
ATOM      9  O   UNL     1       0.262  12.910  20.728  0.00  0.00    +0.000 OA
ATOM     10  H   UNL     1      -2.062  10.714  20.615  0.00  0.00    +0.000 HD
BRANCH   8  11
ATOM     11  C   UNL     1      -2.077  13.263  20.499  0.00  0.00    +0.000 C 
BRANCH  11  12
ATOM     12  N   UNL     1      -3.060  12.658  19.626  0.00  0.00    +0.000 N 
ATOM     13  C   UNL     1      -4.388  12.477  19.894  0.00  0.00    +0.000 A 
ATOM     14  C   UNL     1      -4.903  11.791  18.821  0.00  0.00    +0.000 A 
ATOM     15  C   UNL     1      -3.805  11.597  17.960  0.00  0.00    +0.000 A 
ATOM     16  N   UNL     1      -2.674  12.123  18.448  0.00  0.00    +0.000 NA
BRANCH  15  17
ATOM     17  C   UNL     1      -3.927  10.854  16.639  0.00  0.00    +0.000 C 
ATOM     18  C   UNL     1      -2.794  10.922  15.638  0.00  0.00    +0.000 C 
ATOM     19  C   UNL     1      -3.032   9.658  16.390  0.00  0.00    +0.000 C 
ENDBRANCH  15  17
ENDBRANCH  11  12
ENDBRANCH   8  11
ENDBRANCH   5   7
BRANCH   1  20
ATOM     20  C   UNL     1       2.186   8.198  18.226  0.00  0.00    +0.000 C 
ATOM     21  O   UNL     1       2.293   9.012  17.311  0.00  0.00    +0.000 OA
BRANCH  20  24
ATOM     22  N   UNL     1       2.992   4.613  18.366  0.00  0.00    +0.000 N 
ATOM     23  C   UNL     1       2.200   5.689  18.695  0.00  0.00    +0.000 A 
ATOM     24  C   UNL     1       2.719   6.835  18.112  0.00  0.00    +0.000 A 
ATOM     25  C   UNL     1       3.863   6.415  17.353  0.00  0.00    +0.000 A 
ATOM     26  C   UNL     1       4.804   7.095  16.560  0.00  0.00    +0.000 A 
ATOM     27  N   UNL     1       5.816   6.424  15.949  0.00  0.00    +0.000 NA
ATOM     28  C   UNL     1       5.899   5.085  16.111  0.00  0.00    +0.000 A 
ATOM     29  C   UNL     1       5.027   4.334  16.877  0.00  0.00    +0.000 A 
ATOM     30  F   UNL     1       5.181   3.010  16.990  0.00  0.00    +0.000 F 
ATOM     31  C   UNL     1       3.996   5.029  17.514  0.00  0.00    +0.000 A 
BRANCH  22  33
ATOM     32  C   UNL     1       2.141   3.283  20.258  0.00  0.00    +0.000 C 
ATOM     33  C   UNL     1       2.839   3.252  18.896  0.00  0.00    +0.000 C 
ATOM     34  C   UNL     1       2.113   2.295  17.945  0.00  0.00    +0.000 C 
ENDBRANCH  22  33
ENDBRANCH  20  24
ENDBRANCH   1  20
TORSDOF 7
ENDMDL
MODEL 5
REMARK VINA RESULT:      -8.0      2.314      4.132
REMARK  Name = 
REMARK  9 active torsions:
REMARK  status: ('A' for Active; 'I' for Inactive)
REMARK    1  A    between atoms: C_1  and  C_2
REMARK    2  A    between atoms: C_2  and  C_3
REMARK    3  A    between atoms: C_2  and  N_4
REMARK    4  A    between atoms: C_6  and  C_7
REMARK    5  A    between atoms: C_7  and  C_9
REMARK    6  A    between atoms: C_13  and  N_14
REMARK    7  A    between atoms: C_15  and  C_17
REMARK    8  A    between atoms: C_17  and  N_18
REMARK    9  A    between atoms: C_21  and  C_22
REMARK                            x       y       z     vdW  Elec       q    Type
REMARK                         _______ _______ _______ _____ _____    ______ ____
ROOT
ATOM      1  C   UNL     1       0.160  10.736  20.475  0.00  0.00    +0.000 A 
ATOM      2  C   UNL     1       0.071  10.451  21.831  0.00  0.00    +0.000 A 
ATOM      3  N   UNL     1       0.609   9.356  22.405  0.00  0.00    +0.000 NA
ATOM      4  C   UNL     1       1.249   8.487  21.581  0.00  0.00    +0.000 A 
ATOM      5  C   UNL     1       1.373   8.649  20.199  0.00  0.00    +0.000 A 
ATOM      6  C   UNL     1       0.795   9.797  19.643  0.00  0.00    +0.000 A 
ENDROOT
BRANCH   5   7
ATOM      7  N   UNL     1       2.022   7.717  19.352  0.00  0.00    +0.000 N 
ATOM      8  C   UNL     1       2.544   8.000  18.096  0.00  0.00    +0.000 C 
ATOM      9  O   UNL     1       2.428   9.076  17.510  0.00  0.00    +0.000 OA
ATOM     10  H   UNL     1       2.098   6.764  19.697  0.00  0.00    +0.000 HD
BRANCH   8  11
ATOM     11  C   UNL     1       3.260   6.852  17.427  0.00  0.00    +0.000 C 
BRANCH  11  12
ATOM     12  N   UNL     1       3.463   5.758  18.353  0.00  0.00    +0.000 N 
ATOM     13  C   UNL     1       4.642   5.399  18.945  0.00  0.00    +0.000 A 
ATOM     14  C   UNL     1       4.373   4.262  19.668  0.00  0.00    +0.000 A 
ATOM     15  C   UNL     1       3.005   4.010  19.443  0.00  0.00    +0.000 A 
ATOM     16  N   UNL     1       2.444   4.920  18.637  0.00  0.00    +0.000 NA
BRANCH  15  17
ATOM     17  C   UNL     1       2.286   2.816  20.051  0.00  0.00    +0.000 C 
ATOM     18  C   UNL     1       2.082   2.754  21.549  0.00  0.00    +0.000 C 
ATOM     19  C   UNL     1       0.916   3.024  20.662  0.00  0.00    +0.000 C 
ENDBRANCH  15  17
ENDBRANCH  11  12
ENDBRANCH   8  11
ENDBRANCH   5   7
BRANCH   1  20
ATOM     20  C   UNL     1      -0.445  11.970  19.917  0.00  0.00    +0.000 C 
ATOM     21  O   UNL     1       0.260  12.972  19.821  0.00  0.00    +0.000 OA
BRANCH  20  24
ATOM     22  N   UNL     1      -4.083  12.248  19.465  0.00  0.00    +0.000 N 
ATOM     23  C   UNL     1      -2.937  12.442  20.200  0.00  0.00    +0.000 A 
ATOM     24  C   UNL     1      -1.848  11.968  19.486  0.00  0.00    +0.000 A 
ATOM     25  C   UNL     1      -2.365  11.504  18.230  0.00  0.00    +0.000 A 
ATOM     26  C   UNL     1      -1.777  10.913  17.097  0.00  0.00    +0.000 A 
ATOM     27  N   UNL     1      -2.532  10.558  16.024  0.00  0.00    +0.000 NA
ATOM     28  C   UNL     1      -3.862  10.790  16.060  0.00  0.00    +0.000 A 
ATOM     29  C   UNL     1      -4.529  11.356  17.131  0.00  0.00    +0.000 A 
ATOM     30  F   UNL     1      -5.852  11.549  17.090  0.00  0.00    +0.000 F 
ATOM     31  C   UNL     1      -3.752  11.708  18.238  0.00  0.00    +0.000 A 
BRANCH  22  33
ATOM     32  C   UNL     1      -5.497  12.509  21.466  0.00  0.00    +0.000 C 
ATOM     33  C   UNL     1      -5.450  12.505  19.936  0.00  0.00    +0.000 C 
ATOM     34  C   UNL     1      -6.066  13.792  19.379  0.00  0.00    +0.000 C 
ENDBRANCH  22  33
ENDBRANCH  20  24
ENDBRANCH   1  20
TORSDOF 7
ENDMDL
MODEL 6
REMARK VINA RESULT:      -7.9      3.004     10.023
REMARK  Name = 
REMARK  9 active torsions:
REMARK  status: ('A' for Active; 'I' for Inactive)
REMARK    1  A    between atoms: C_1  and  C_2
REMARK    2  A    between atoms: C_2  and  C_3
REMARK    3  A    between atoms: C_2  and  N_4
REMARK    4  A    between atoms: C_6  and  C_7
REMARK    5  A    between atoms: C_7  and  C_9
REMARK    6  A    between atoms: C_13  and  N_14
REMARK    7  A    between atoms: C_15  and  C_17
REMARK    8  A    between atoms: C_17  and  N_18
REMARK    9  A    between atoms: C_21  and  C_22
REMARK                            x       y       z     vdW  Elec       q    Type
REMARK                         _______ _______ _______ _____ _____    ______ ____
ROOT
ATOM      1  C   UNL     1       1.822   8.438  19.154  0.00  0.00    +0.000 A 
ATOM      2  C   UNL     1       1.830   7.653  20.299  0.00  0.00    +0.000 A 
ATOM      3  N   UNL     1       1.115   7.933  21.407  0.00  0.00    +0.000 NA
ATOM      4  C   UNL     1       0.373   9.069  21.382  0.00  0.00    +0.000 A 
ATOM      5  C   UNL     1       0.312   9.955  20.304  0.00  0.00    +0.000 A 
ATOM      6  C   UNL     1       1.073   9.629  19.175  0.00  0.00    +0.000 A 
ENDROOT
BRANCH   5   7
ATOM      7  N   UNL     1      -0.450  11.149  20.308  0.00  0.00    +0.000 N 
ATOM      8  C   UNL     1      -0.748  11.909  21.431  0.00  0.00    +0.000 C 
ATOM      9  O   UNL     1      -0.471  11.596  22.588  0.00  0.00    +0.000 OA
ATOM     10  H   UNL     1      -0.811  11.462  19.411  0.00  0.00    +0.000 HD
BRANCH   8  11
ATOM     11  C   UNL     1      -1.508  13.185  21.159  0.00  0.00    +0.000 C 
BRANCH  11  12
ATOM     12  N   UNL     1      -2.834  12.899  20.652  0.00  0.00    +0.000 N 
ATOM     13  C   UNL     1      -4.019  13.124  21.296  0.00  0.00    +0.000 A 
ATOM     14  C   UNL     1      -4.999  12.620  20.476  0.00  0.00    +0.000 A 
ATOM     15  C   UNL     1      -4.304  12.104  19.364  0.00  0.00    +0.000 A 
ATOM     16  N   UNL     1      -2.980  12.269  19.467  0.00  0.00    +0.000 NA
BRANCH  15  17
ATOM     17  C   UNL     1      -5.015  11.427  18.203  0.00  0.00    +0.000 C 
ATOM     18  C   UNL     1      -6.527  11.397  18.170  0.00  0.00    +0.000 C 
ATOM     19  C   UNL     1      -5.793  12.283  17.224  0.00  0.00    +0.000 C 
ENDBRANCH  15  17
ENDBRANCH  11  12
ENDBRANCH   8  11
ENDBRANCH   5   7
BRANCH   1  20
ATOM     20  C   UNL     1       2.624   8.058  17.965  0.00  0.00    +0.000 C 
ATOM     21  O   UNL     1       2.667   8.838  17.017  0.00  0.00    +0.000 OA
BRANCH  20  24
ATOM     22  N   UNL     1       5.015   5.264  17.963  0.00  0.00    +0.000 N 
ATOM     23  C   UNL     1       4.723   6.607  18.026  0.00  0.00    +0.000 A 
ATOM     24  C   UNL     1       3.351   6.782  17.949  0.00  0.00    +0.000 A 
ATOM     25  C   UNL     1       2.783   5.466  17.881  0.00  0.00    +0.000 A 
ATOM     26  C   UNL     1       1.467   4.981  17.778  0.00  0.00    +0.000 A 
ATOM     27  N   UNL     1       1.217   3.646  17.723  0.00  0.00    +0.000 NA
ATOM     28  C   UNL     1       2.259   2.787  17.775  0.00  0.00    +0.000 A 
ATOM     29  C   UNL     1       3.585   3.171  17.867  0.00  0.00    +0.000 A 
ATOM     30  F   UNL     1       4.560   2.257  17.909  0.00  0.00    +0.000 F 
ATOM     31  C   UNL     1       3.838   4.544  17.911  0.00  0.00    +0.000 A 
BRANCH  22  33
ATOM     32  C   UNL     1       6.739   4.391  16.434  0.00  0.00    +0.000 C 
ATOM     33  C   UNL     1       6.364   4.690  17.887  0.00  0.00    +0.000 C 
ATOM     34  C   UNL     1       7.443   5.553  18.550  0.00  0.00    +0.000 C 
ENDBRANCH  22  33
ENDBRANCH  20  24
ENDBRANCH   1  20
TORSDOF 7
ENDMDL
MODEL 7
REMARK VINA RESULT:      -7.9      3.183     10.225
REMARK  Name = 
REMARK  9 active torsions:
REMARK  status: ('A' for Active; 'I' for Inactive)
REMARK    1  A    between atoms: C_1  and  C_2
REMARK    2  A    between atoms: C_2  and  C_3
REMARK    3  A    between atoms: C_2  and  N_4
REMARK    4  A    between atoms: C_6  and  C_7
REMARK    5  A    between atoms: C_7  and  C_9
REMARK    6  A    between atoms: C_13  and  N_14
REMARK    7  A    between atoms: C_15  and  C_17
REMARK    8  A    between atoms: C_17  and  N_18
REMARK    9  A    between atoms: C_21  and  C_22
REMARK                            x       y       z     vdW  Elec       q    Type
REMARK                         _______ _______ _______ _____ _____    ______ ____
ROOT
ATOM      1  C   UNL     1       1.794   8.405  19.144  0.00  0.00    +0.000 A 
ATOM      2  C   UNL     1       1.835   7.656  20.312  0.00  0.00    +0.000 A 
ATOM      3  N   UNL     1       1.139   7.963  21.426  0.00  0.00    +0.000 NA
ATOM      4  C   UNL     1       0.384   9.090  21.381  0.00  0.00    +0.000 A 
ATOM      5  C   UNL     1       0.291   9.941  20.277  0.00  0.00    +0.000 A 
ATOM      6  C   UNL     1       1.033   9.587  19.143  0.00  0.00    +0.000 A 
ENDROOT
BRANCH   5   7
ATOM      7  N   UNL     1      -0.483  11.127  20.260  0.00  0.00    +0.000 N 
ATOM      8  C   UNL     1      -0.124  12.331  20.852  0.00  0.00    +0.000 C 
ATOM      9  O   UNL     1       0.873  12.502  21.552  0.00  0.00    +0.000 OA
ATOM     10  H   UNL     1      -1.378  11.079  19.781  0.00  0.00    +0.000 HD
BRANCH   8  11
ATOM     11  C   UNL     1      -1.086  13.471  20.621  0.00  0.00    +0.000 C 
BRANCH  11  12
ATOM     12  N   UNL     1      -2.350  13.223  21.283  0.00  0.00    +0.000 N 
ATOM     13  C   UNL     1      -2.525  12.748  22.553  0.00  0.00    +0.000 A 
ATOM     14  C   UNL     1      -3.880  12.593  22.717  0.00  0.00    +0.000 A 
ATOM     15  C   UNL     1      -4.438  12.993  21.486  0.00  0.00    +0.000 A 
ATOM     16  N   UNL     1      -3.506  13.377  20.604  0.00  0.00    +0.000 NA
BRANCH  15  17
ATOM     17  C   UNL     1      -5.934  12.962  21.222  0.00  0.00    +0.000 C 
ATOM     18  C   UNL     1      -6.438  12.888  19.797  0.00  0.00    +0.000 C 
ATOM     19  C   UNL     1      -6.552  11.691  20.676  0.00  0.00    +0.000 C 
ENDBRANCH  15  17
ENDBRANCH  11  12
ENDBRANCH   8  11
ENDBRANCH   5   7
BRANCH   1  20
ATOM     20  C   UNL     1       2.576   7.995  17.951  0.00  0.00    +0.000 C 
ATOM     21  O   UNL     1       2.591   8.746  16.978  0.00  0.00    +0.000 OA
BRANCH  20  24
ATOM     22  N   UNL     1       4.994   5.226  18.002  0.00  0.00    +0.000 N 
ATOM     23  C   UNL     1       4.689   6.566  18.041  0.00  0.00    +0.000 A 
ATOM     24  C   UNL     1       3.315   6.727  17.959  0.00  0.00    +0.000 A 
ATOM     25  C   UNL     1       2.759   5.404  17.913  0.00  0.00    +0.000 A 
ATOM     26  C   UNL     1       1.448   4.904  17.818  0.00  0.00    +0.000 A 
ATOM     27  N   UNL     1       1.212   3.566  17.787  0.00  0.00    +0.000 NA
ATOM     28  C   UNL     1       2.262   2.719  17.856  0.00  0.00    +0.000 A 
ATOM     29  C   UNL     1       3.584   3.117  17.942  0.00  0.00    +0.000 A 
ATOM     30  F   UNL     1       4.568   2.213  18.003  0.00  0.00    +0.000 F 
ATOM     31  C   UNL     1       3.824   4.493  17.962  0.00  0.00    +0.000 A 
BRANCH  22  33
ATOM     32  C   UNL     1       6.768   4.439  16.484  0.00  0.00    +0.000 C 
ATOM     33  C   UNL     1       6.348   4.664  17.938  0.00  0.00    +0.000 C 
ATOM     34  C   UNL     1       7.401   5.498  18.675  0.00  0.00    +0.000 C 
ENDBRANCH  22  33
ENDBRANCH  20  24
ENDBRANCH   1  20
TORSDOF 7
ENDMDL
MODEL 8
REMARK VINA RESULT:      -7.9      2.022      3.741
REMARK  Name = 
REMARK  9 active torsions:
REMARK  status: ('A' for Active; 'I' for Inactive)
REMARK    1  A    between atoms: C_1  and  C_2
REMARK    2  A    between atoms: C_2  and  C_3
REMARK    3  A    between atoms: C_2  and  N_4
REMARK    4  A    between atoms: C_6  and  C_7
REMARK    5  A    between atoms: C_7  and  C_9
REMARK    6  A    between atoms: C_13  and  N_14
REMARK    7  A    between atoms: C_15  and  C_17
REMARK    8  A    between atoms: C_17  and  N_18
REMARK    9  A    between atoms: C_21  and  C_22
REMARK                            x       y       z     vdW  Elec       q    Type
REMARK                         _______ _______ _______ _____ _____    ______ ____
ROOT
ATOM      1  C   UNL     1       1.186   9.754  19.482  0.00  0.00    +0.000 A 
ATOM      2  C   UNL     1       1.005   9.480  20.832  0.00  0.00    +0.000 A 
ATOM      3  N   UNL     1       1.351   8.314  21.414  0.00  0.00    +0.000 NA
ATOM      4  C   UNL     1       1.883   7.363  20.606  0.00  0.00    +0.000 A 
ATOM      5  C   UNL     1       2.080   7.509  19.230  0.00  0.00    +0.000 A 
ATOM      6  C   UNL     1       1.703   8.733  18.665  0.00  0.00    +0.000 A 
ENDROOT
BRANCH   5   7
ATOM      7  N   UNL     1       2.613   6.494  18.399  0.00  0.00    +0.000 N 
ATOM      8  C   UNL     1       3.883   6.498  17.837  0.00  0.00    +0.000 C 
ATOM      9  O   UNL     1       4.683   7.431  17.910  0.00  0.00    +0.000 OA
ATOM     10  H   UNL     1       2.004   5.706  18.194  0.00  0.00    +0.000 HD
BRANCH   8  11
ATOM     11  C   UNL     1       4.243   5.259  17.054  0.00  0.00    +0.000 C 
BRANCH  11  12
ATOM     12  N   UNL     1       3.530   4.104  17.559  0.00  0.00    +0.000 N 
ATOM     13  C   UNL     1       2.908   3.140  16.815  0.00  0.00    +0.000 A 
ATOM     14  C   UNL     1       2.298   2.300  17.714  0.00  0.00    +0.000 A 
ATOM     15  C   UNL     1       2.605   2.845  18.977  0.00  0.00    +0.000 A 
ATOM     16  N   UNL     1       3.356   3.949  18.888  0.00  0.00    +0.000 NA
BRANCH  15  17
ATOM     17  C   UNL     1       2.105   2.226  20.273  0.00  0.00    +0.000 C 
ATOM     18  C   UNL     1       2.606   2.763  21.596  0.00  0.00    +0.000 C 
ATOM     19  C   UNL     1       1.206   3.048  21.174  0.00  0.00    +0.000 C 
ENDBRANCH  15  17
ENDBRANCH  11  12
ENDBRANCH   8  11
ENDBRANCH   5   7
BRANCH   1  20
ATOM     20  C   UNL     1       0.794  11.067  18.914  0.00  0.00    +0.000 C 
ATOM     21  O   UNL     1       1.653  11.735  18.344  0.00  0.00    +0.000 OA
BRANCH  20  24
ATOM     22  N   UNL     1      -2.434  12.633  19.722  0.00  0.00    +0.000 N 
ATOM     23  C   UNL     1      -1.079  12.488  19.909  0.00  0.00    +0.000 A 
ATOM     24  C   UNL     1      -0.594  11.532  19.031  0.00  0.00    +0.000 A 
ATOM     25  C   UNL     1      -1.715  11.110  18.240  0.00  0.00    +0.000 A 
ATOM     26  C   UNL     1      -1.874  10.172  17.204  0.00  0.00    +0.000 A 
ATOM     27  N   UNL     1      -3.088   9.969  16.627  0.00  0.00    +0.000 NA
ATOM     28  C   UNL     1      -4.143  10.691  17.062  0.00  0.00    +0.000 A 
ATOM     29  C   UNL     1      -4.085  11.627  18.078  0.00  0.00    +0.000 A 
ATOM     30  F   UNL     1      -5.179  12.298  18.454  0.00  0.00    +0.000 F 
ATOM     31  C   UNL     1      -2.839  11.824  18.678  0.00  0.00    +0.000 A 
BRANCH  22  33
ATOM     32  C   UNL     1      -3.809  12.670  21.766  0.00  0.00    +0.000 C 
ATOM     33  C   UNL     1      -3.323  13.459  20.548  0.00  0.00    +0.000 C 
ATOM     34  C   UNL     1      -2.703  14.790  20.986  0.00  0.00    +0.000 C 
ENDBRANCH  22  33
ENDBRANCH  20  24
ENDBRANCH   1  20
TORSDOF 7
ENDMDL
MODEL 9
REMARK VINA RESULT:      -7.8      3.200     10.087
REMARK  Name = 
REMARK  9 active torsions:
REMARK  status: ('A' for Active; 'I' for Inactive)
REMARK    1  A    between atoms: C_1  and  C_2
REMARK    2  A    between atoms: C_2  and  C_3
REMARK    3  A    between atoms: C_2  and  N_4
REMARK    4  A    between atoms: C_6  and  C_7
REMARK    5  A    between atoms: C_7  and  C_9
REMARK    6  A    between atoms: C_13  and  N_14
REMARK    7  A    between atoms: C_15  and  C_17
REMARK    8  A    between atoms: C_17  and  N_18
REMARK    9  A    between atoms: C_21  and  C_22
REMARK                            x       y       z     vdW  Elec       q    Type
REMARK                         _______ _______ _______ _____ _____    ______ ____
ROOT
ATOM      1  C   UNL     1       1.292   8.841  19.562  0.00  0.00    +0.000 A 
ATOM      2  C   UNL     1       1.472   8.384  20.860  0.00  0.00    +0.000 A 
ATOM      3  N   UNL     1       0.782   8.848  21.922  0.00  0.00    +0.000 NA
ATOM      4  C   UNL     1      -0.116   9.837  21.681  0.00  0.00    +0.000 A 
ATOM      5  C   UNL     1      -0.359  10.401  20.426  0.00  0.00    +0.000 A 
ATOM      6  C   UNL     1       0.382   9.893  19.352  0.00  0.00    +0.000 A 
ENDROOT
BRANCH   5   7
ATOM      7  N   UNL     1      -1.282  11.451  20.200  0.00  0.00    +0.000 N 
ATOM      8  C   UNL     1      -1.299  12.666  20.872  0.00  0.00    +0.000 C 
ATOM      9  O   UNL     1      -0.572  12.957  21.821  0.00  0.00    +0.000 OA
ATOM     10  H   UNL     1      -1.993  11.287  19.493  0.00  0.00    +0.000 HD
BRANCH   8  11
ATOM     11  C   UNL     1      -2.336  13.651  20.389  0.00  0.00    +0.000 C 
BRANCH  11  12
ATOM     12  N   UNL     1      -3.673  13.181  20.683  0.00  0.00    +0.000 N 
ATOM     13  C   UNL     1      -4.240  13.059  21.921  0.00  0.00    +0.000 A 
ATOM     14  C   UNL     1      -5.477  12.497  21.719  0.00  0.00    +0.000 A 
ATOM     15  C   UNL     1      -5.561  12.310  20.325  0.00  0.00    +0.000 A 
ATOM     16  N   UNL     1      -4.460  12.724  19.686  0.00  0.00    +0.000 NA
BRANCH  15  17
ATOM     17  C   UNL     1      -6.778  11.687  19.659  0.00  0.00    +0.000 C 
ATOM     18  C   UNL     1      -6.682  11.212  18.226  0.00  0.00    +0.000 C 
ATOM     19  C   UNL     1      -6.752  10.210  19.326  0.00  0.00    +0.000 C 
ENDBRANCH  15  17
ENDBRANCH  11  12
ENDBRANCH   8  11
ENDBRANCH   5   7
BRANCH   1  20
ATOM     20  C   UNL     1       2.077   8.271  18.439  0.00  0.00    +0.000 C 
ATOM     21  O   UNL     1       2.425   9.022  17.531  0.00  0.00    +0.000 OA
BRANCH  20  24
ATOM     22  N   UNL     1       2.402   4.633  18.861  0.00  0.00    +0.000 N 
ATOM     23  C   UNL     1       1.752   5.824  19.087  0.00  0.00    +0.000 A 
ATOM     24  C   UNL     1       2.429   6.846  18.441  0.00  0.00    +0.000 A 
ATOM     25  C   UNL     1       3.524   6.226  17.750  0.00  0.00    +0.000 A 
ATOM     26  C   UNL     1       4.564   6.718  16.940  0.00  0.00    +0.000 A 
ATOM     27  N   UNL     1       5.492   5.878  16.410  0.00  0.00    +0.000 NA
ATOM     28  C   UNL     1       5.395   4.556  16.670  0.00  0.00    +0.000 A 
ATOM     29  C   UNL     1       4.416   3.983  17.460  0.00  0.00    +0.000 A 
ATOM     30  F   UNL     1       4.393   2.663  17.672  0.00  0.00    +0.000 F 
ATOM     31  C   UNL     1       3.471   4.851  18.014  0.00  0.00    +0.000 A 
BRANCH  22  33
ATOM     32  C   UNL     1       1.434   3.566  20.860  0.00  0.00    +0.000 C 
ATOM     33  C   UNL     1       2.061   3.347  19.481  0.00  0.00    +0.000 C 
ATOM     34  C   UNL     1       1.156   2.463  18.617  0.00  0.00    +0.000 C 
ENDBRANCH  22  33
ENDBRANCH  20  24
ENDBRANCH   1  20
TORSDOF 7
ENDMDL
