MODEL 1
REMARK VINA RESULT:      -7.4      0.000      0.000
REMARK  Name = 
REMARK  6 active torsions:
REMARK  status: ('A' for Active; 'I' for Inactive)
REMARK    1  A    between atoms: C_1  and  O_2
REMARK    2  A    between atoms: O_2  and  C_3
REMARK    3  A    between atoms: C_9  and  C_10
REMARK    4  A    between atoms: C_10  and  N_12
REMARK    5  A    between atoms: N_12  and  C_13
REMARK    6  A    between atoms: C_17  and  C_18
REMARK                            x       y       z     vdW  Elec       q    Type
REMARK                         _______ _______ _______ _____ _____    ______ ____
ROOT
ATOM      1  N   UNL     1       3.705   5.161  19.689  0.00  0.00    +0.000 N 
ATOM      2  H   UNL     1       4.219   5.114  20.567  0.00  0.00    +0.000 HD
ENDROOT
BRANCH   1   3
ATOM      3  C   UNL     1       2.992   6.354  19.437  0.00  0.00    +0.000 A 
ATOM      4  C   UNL     1       3.163   7.015  18.223  0.00  0.00    +0.000 A 
ATOM      5  C   UNL     1       2.449   8.189  17.955  0.00  0.00    +0.000 A 
ATOM      6  C   UNL     1       1.601   8.733  18.922  0.00  0.00    +0.000 A 
ATOM      7  C   UNL     1       1.463   8.112  20.169  0.00  0.00    +0.000 A 
ATOM      8  C   UNL     1       2.166   6.924  20.413  0.00  0.00    +0.000 A 
BRANCH   7   9
ATOM      9  C   UNL     1       0.597   8.692  21.258  0.00  0.00    +0.000 C 
ATOM     10  F   UNL     1      -0.532   7.961  21.502  0.00  0.00    +0.000 F 
ATOM     11  F   UNL     1       1.245   8.786  22.453  0.00  0.00    +0.000 F 
ATOM     12  F   UNL     1       0.170   9.951  20.966  0.00  0.00    +0.000 F 
ENDBRANCH   7   9
ENDBRANCH   1   3
BRANCH   1  13
ATOM     13  C   UNL     1       3.880   4.084  18.822  0.00  0.00    +0.000 C 
ATOM     14  S   UNL     1       2.986   2.643  18.947  0.00  0.00    +0.000 S 
BRANCH  13  21
ATOM     15  C   UNL     1       6.195   4.710  17.869  0.00  0.00    +0.000 A 
ATOM     16  C   UNL     1       7.028   4.879  16.748  0.00  0.00    +0.000 A 
ATOM     17  C   UNL     1       6.536   4.676  15.457  0.00  0.00    +0.000 A 
ATOM     18 CL   UNL     1       7.568   4.908  14.101  0.00  0.00    +0.000 Cl
ATOM     19  C   UNL     1       5.222   4.279  15.261  0.00  0.00    +0.000 A 
ATOM     20  C   UNL     1       4.394   4.084  16.366  0.00  0.00    +0.000 A 
ATOM     21  C   UNL     1       4.855   4.306  17.683  0.00  0.00    +0.000 A 
BRANCH  15  23
ATOM     22  C   UNL     1       7.798   5.716  19.317  0.00  0.00    +0.000 C 
ATOM     23  O   UNL     1       6.642   4.895  19.156  0.00  0.00    +0.000 OA
ENDBRANCH  15  23
ENDBRANCH  13  21
ENDBRANCH   1  13
TORSDOF 5
ENDMDL
MODEL 2
REMARK VINA RESULT:      -7.4      0.734      1.149
REMARK  Name = 
REMARK  6 active torsions:
REMARK  status: ('A' for Active; 'I' for Inactive)
REMARK    1  A    between atoms: C_1  and  O_2
REMARK    2  A    between atoms: O_2  and  C_3
REMARK    3  A    between atoms: C_9  and  C_10
REMARK    4  A    between atoms: C_10  and  N_12
REMARK    5  A    between atoms: N_12  and  C_13
REMARK    6  A    between atoms: C_17  and  C_18
REMARK                            x       y       z     vdW  Elec       q    Type
REMARK                         _______ _______ _______ _____ _____    ______ ____
ROOT
ATOM      1  N   UNL     1       3.435   5.718  20.019  0.00  0.00    +0.000 N 
ATOM      2  H   UNL     1       3.920   5.816  20.910  0.00  0.00    +0.000 HD
ENDROOT
BRANCH   1   3
ATOM      3  C   UNL     1       2.751   6.859  19.544  0.00  0.00    +0.000 A 
ATOM      4  C   UNL     1       3.017   7.337  18.263  0.00  0.00    +0.000 A 
ATOM      5  C   UNL     1       2.333   8.456  17.775  0.00  0.00    +0.000 A 
ATOM      6  C   UNL     1       1.418   9.132  18.587  0.00  0.00    +0.000 A 
ATOM      7  C   UNL     1       1.183   8.699  19.896  0.00  0.00    +0.000 A 
ATOM      8  C   UNL     1       1.858   7.561  20.362  0.00  0.00    +0.000 A 
BRANCH   7   9
ATOM      9  C   UNL     1       0.243   9.426  20.822  0.00  0.00    +0.000 C 
ATOM     10  F   UNL     1       0.838  10.446  21.510  0.00  0.00    +0.000 F 
ATOM     11  F   UNL     1      -0.814   9.984  20.169  0.00  0.00    +0.000 F 
ATOM     12  F   UNL     1      -0.294   8.605  21.766  0.00  0.00    +0.000 F 
ENDBRANCH   7   9
ENDBRANCH   1   3
BRANCH   1  13
ATOM     13  C   UNL     1       3.619   4.508  19.354  0.00  0.00    +0.000 C 
ATOM     14  S   UNL     1       2.741   3.102  19.734  0.00  0.00    +0.000 S 
BRANCH  13  21
ATOM     15  C   UNL     1       5.957   4.867  18.319  0.00  0.00    +0.000 A 
ATOM     16  C   UNL     1       6.782   4.854  17.180  0.00  0.00    +0.000 A 
ATOM     17  C   UNL     1       6.257   4.542  15.924  0.00  0.00    +0.000 A 
ATOM     18 CL   UNL     1       7.283   4.553  14.542  0.00  0.00    +0.000 Cl
ATOM     19  C   UNL     1       4.918   4.215  15.784  0.00  0.00    +0.000 A 
ATOM     20  C   UNL     1       4.096   4.200  16.910  0.00  0.00    +0.000 A 
ATOM     21  C   UNL     1       4.590   4.535  18.190  0.00  0.00    +0.000 A 
BRANCH  15  23
ATOM     22  C   UNL     1       7.754   5.701  19.643  0.00  0.00    +0.000 C 
ATOM     23  O   UNL     1       6.434   5.164  19.574  0.00  0.00    +0.000 OA
ENDBRANCH  15  23
ENDBRANCH  13  21
ENDBRANCH   1  13
TORSDOF 5
ENDMDL
MODEL 3
REMARK VINA RESULT:      -7.3      5.201      7.222
REMARK  Name = 
REMARK  6 active torsions:
REMARK  status: ('A' for Active; 'I' for Inactive)
REMARK    1  A    between atoms: C_1  and  O_2
REMARK    2  A    between atoms: O_2  and  C_3
REMARK    3  A    between atoms: C_9  and  C_10
REMARK    4  A    between atoms: C_10  and  N_12
REMARK    5  A    between atoms: N_12  and  C_13
REMARK    6  A    between atoms: C_17  and  C_18
REMARK                            x       y       z     vdW  Elec       q    Type
REMARK                         _______ _______ _______ _____ _____    ______ ____
ROOT
ATOM      1  N   UNL     1       5.053   3.484  17.748  0.00  0.00    +0.000 N 
ATOM      2  H   UNL     1       5.604   2.963  18.428  0.00  0.00    +0.000 HD
ENDROOT
BRANCH   1   3
ATOM      3  C   UNL     1       5.753   4.027  16.649  0.00  0.00    +0.000 A 
ATOM      4  C   UNL     1       6.649   5.074  16.853  0.00  0.00    +0.000 A 
ATOM      5  C   UNL     1       7.362   5.609  15.774  0.00  0.00    +0.000 A 
ATOM      6  C   UNL     1       7.141   5.133  14.479  0.00  0.00    +0.000 A 
ATOM      7  C   UNL     1       6.201   4.123  14.250  0.00  0.00    +0.000 A 
ATOM      8  C   UNL     1       5.513   3.580  15.345  0.00  0.00    +0.000 A 
BRANCH   7   9
ATOM      9  C   UNL     1       5.896   3.615  12.864  0.00  0.00    +0.000 C 
ATOM     10  F   UNL     1       4.598   3.817  12.485  0.00  0.00    +0.000 F 
ATOM     11  F   UNL     1       6.661   4.206  11.905  0.00  0.00    +0.000 F 
ATOM     12  F   UNL     1       6.115   2.276  12.743  0.00  0.00    +0.000 F 
ENDBRANCH   7   9
ENDBRANCH   1   3
BRANCH   1  13
ATOM     13  C   UNL     1       3.674   3.478  17.951  0.00  0.00    +0.000 C 
ATOM     14  S   UNL     1       2.680   2.173  17.504  0.00  0.00    +0.000 S 
BRANCH  13  21
ATOM     15  C   UNL     1       2.636   4.620  20.020  0.00  0.00    +0.000 A 
ATOM     16  C   UNL     1       2.140   5.788  20.625  0.00  0.00    +0.000 A 
ATOM     17  C   UNL     1       2.089   6.991  19.918  0.00  0.00    +0.000 A 
ATOM     18 CL   UNL     1       1.460   8.403  20.674  0.00  0.00    +0.000 Cl
ATOM     19  C   UNL     1       2.552   7.059  18.613  0.00  0.00    +0.000 A 
ATOM     20  C   UNL     1       3.069   5.913  18.011  0.00  0.00    +0.000 A 
ATOM     21  C   UNL     1       3.110   4.675  18.690  0.00  0.00    +0.000 A 
BRANCH  15  23
ATOM     22  C   UNL     1       1.521   2.984  21.346  0.00  0.00    +0.000 C 
ATOM     23  O   UNL     1       2.708   3.417  20.682  0.00  0.00    +0.000 OA
ENDBRANCH  15  23
ENDBRANCH  13  21
ENDBRANCH   1  13
TORSDOF 5
ENDMDL
MODEL 4
REMARK VINA RESULT:      -7.2      5.527      7.649
REMARK  Name = 
REMARK  6 active torsions:
REMARK  status: ('A' for Active; 'I' for Inactive)
REMARK    1  A    between atoms: C_1  and  O_2
REMARK    2  A    between atoms: O_2  and  C_3
REMARK    3  A    between atoms: C_9  and  C_10
REMARK    4  A    between atoms: C_10  and  N_12
REMARK    5  A    between atoms: N_12  and  C_13
REMARK    6  A    between atoms: C_17  and  C_18
REMARK                            x       y       z     vdW  Elec       q    Type
REMARK                         _______ _______ _______ _____ _____    ______ ____
ROOT
ATOM      1  N   UNL     1       5.623   5.490  15.737  0.00  0.00    +0.000 N 
ATOM      2  H   UNL     1       5.332   6.466  15.762  0.00  0.00    +0.000 HD
ENDROOT
BRANCH   1   3
ATOM      3  C   UNL     1       6.040   4.986  14.486  0.00  0.00    +0.000 A 
ATOM      4  C   UNL     1       7.339   5.229  14.044  0.00  0.00    +0.000 A 
ATOM      5  C   UNL     1       7.768   4.719  12.813  0.00  0.00    +0.000 A 
ATOM      6  C   UNL     1       6.884   4.010  11.997  0.00  0.00    +0.000 A 
ATOM      7  C   UNL     1       5.559   3.808  12.401  0.00  0.00    +0.000 A 
ATOM      8  C   UNL     1       5.151   4.304  13.647  0.00  0.00    +0.000 A 
BRANCH   7   9
ATOM      9  C   UNL     1       4.559   3.092  11.530  0.00  0.00    +0.000 C 
ATOM     10  F   UNL     1       4.213   3.793  10.409  0.00  0.00    +0.000 F 
ATOM     11  F   UNL     1       5.011   1.885  11.090  0.00  0.00    +0.000 F 
ATOM     12  F   UNL     1       3.392   2.837  12.185  0.00  0.00    +0.000 F 
ENDBRANCH   7   9
ENDBRANCH   1   3
BRANCH   1  13
ATOM     13  C   UNL     1       5.674   4.839  16.968  0.00  0.00    +0.000 C 
ATOM     14  S   UNL     1       7.100   4.708  17.885  0.00  0.00    +0.000 S 
BRANCH  13  21
ATOM     15  C   UNL     1       3.403   5.149  18.154  0.00  0.00    +0.000 A 
ATOM     16  C   UNL     1       2.196   4.585  18.605  0.00  0.00    +0.000 A 
ATOM     17  C   UNL     1       1.938   3.224  18.436  0.00  0.00    +0.000 A 
ATOM     18 CL   UNL     1       0.462   2.554  19.014  0.00  0.00    +0.000 Cl
ATOM     19  C   UNL     1       2.859   2.409  17.796  0.00  0.00    +0.000 A 
ATOM     20  C   UNL     1       4.048   2.961  17.323  0.00  0.00    +0.000 A 
ATOM     21  C   UNL     1       4.350   4.329  17.501  0.00  0.00    +0.000 A 
BRANCH  15  23
ATOM     22  C   UNL     1       2.613   7.396  18.099  0.00  0.00    +0.000 C 
ATOM     23  O   UNL     1       3.694   6.485  18.296  0.00  0.00    +0.000 OA
ENDBRANCH  15  23
ENDBRANCH  13  21
ENDBRANCH   1  13
TORSDOF 5
ENDMDL
MODEL 5
REMARK VINA RESULT:      -7.1      5.539      7.542
REMARK  Name = 
REMARK  6 active torsions:
REMARK  status: ('A' for Active; 'I' for Inactive)
REMARK    1  A    between atoms: C_1  and  O_2
REMARK    2  A    between atoms: O_2  and  C_3
REMARK    3  A    between atoms: C_9  and  C_10
REMARK    4  A    between atoms: C_10  and  N_12
REMARK    5  A    between atoms: N_12  and  C_13
REMARK    6  A    between atoms: C_17  and  C_18
REMARK                            x       y       z     vdW  Elec       q    Type
REMARK                         _______ _______ _______ _____ _____    ______ ____
ROOT
ATOM      1  N   UNL     1       6.235   4.661  16.000  0.00  0.00    +0.000 N 
ATOM      2  H   UNL     1       6.828   4.100  16.610  0.00  0.00    +0.000 HD
ENDROOT
BRANCH   1   3
ATOM      3  C   UNL     1       6.449   4.524  14.611  0.00  0.00    +0.000 A 
ATOM      4  C   UNL     1       7.591   5.075  14.033  0.00  0.00    +0.000 A 
ATOM      5  C   UNL     1       7.822   4.931  12.660  0.00  0.00    +0.000 A 
ATOM      6  C   UNL     1       6.885   4.281  11.852  0.00  0.00    +0.000 A 
ATOM      7  C   UNL     1       5.706   3.774  12.408  0.00  0.00    +0.000 A 
ATOM      8  C   UNL     1       5.500   3.904  13.790  0.00  0.00    +0.000 A 
BRANCH   7   9
ATOM      9  C   UNL     1       4.647   3.110  11.567  0.00  0.00    +0.000 C 
ATOM     10  F   UNL     1       5.014   1.878  11.102  0.00  0.00    +0.000 F 
ATOM     11  F   UNL     1       3.478   2.921  12.241  0.00  0.00    +0.000 F 
ATOM     12  F   UNL     1       4.326   3.843  10.464  0.00  0.00    +0.000 F 
ENDBRANCH   7   9
ENDBRANCH   1   3
BRANCH   1  13
ATOM     13  C   UNL     1       5.227   5.387  16.631  0.00  0.00    +0.000 C 
ATOM     14  S   UNL     1       4.850   6.993  16.219  0.00  0.00    +0.000 S 
BRANCH  13  21
ATOM     15  C   UNL     1       4.955   4.024  18.806  0.00  0.00    +0.000 A 
ATOM     16  C   UNL     1       4.108   3.348  19.703  0.00  0.00    +0.000 A 
ATOM     17  C   UNL     1       2.739   3.246  19.451  0.00  0.00    +0.000 A 
ATOM     18 CL   UNL     1       1.727   2.396  20.553  0.00  0.00    +0.000 Cl
ATOM     19  C   UNL     1       2.187   3.833  18.323  0.00  0.00    +0.000 A 
ATOM     20  C   UNL     1       3.013   4.527  17.440  0.00  0.00    +0.000 A 
ATOM     21  C   UNL     1       4.406   4.626  17.653  0.00  0.00    +0.000 A 
BRANCH  15  23
ATOM     22  C   UNL     1       6.753   5.396  19.555  0.00  0.00    +0.000 C 
ATOM     23  O   UNL     1       6.308   4.151  19.019  0.00  0.00    +0.000 OA
ENDBRANCH  15  23
ENDBRANCH  13  21
ENDBRANCH   1  13
TORSDOF 5
ENDMDL
MODEL 6
REMARK VINA RESULT:      -7.1      1.105      1.337
REMARK  Name = 
REMARK  6 active torsions:
REMARK  status: ('A' for Active; 'I' for Inactive)
REMARK    1  A    between atoms: C_1  and  O_2
REMARK    2  A    between atoms: O_2  and  C_3
REMARK    3  A    between atoms: C_9  and  C_10
REMARK    4  A    between atoms: C_10  and  N_12
REMARK    5  A    between atoms: N_12  and  C_13
REMARK    6  A    between atoms: C_17  and  C_18
REMARK                            x       y       z     vdW  Elec       q    Type
REMARK                         _______ _______ _______ _____ _____    ______ ____
ROOT
ATOM      1  N   UNL     1       3.119   6.034  20.249  0.00  0.00    +0.000 N 
ATOM      2  H   UNL     1       3.652   6.223  21.096  0.00  0.00    +0.000 HD
ENDROOT
BRANCH   1   3
ATOM      3  C   UNL     1       2.492   7.142  19.637  0.00  0.00    +0.000 A 
ATOM      4  C   UNL     1       2.847   7.502  18.339  0.00  0.00    +0.000 A 
ATOM      5  C   UNL     1       2.220   8.588  17.715  0.00  0.00    +0.000 A 
ATOM      6  C   UNL     1       1.274   9.347  18.408  0.00  0.00    +0.000 A 
ATOM      7  C   UNL     1       0.950   9.033  19.732  0.00  0.00    +0.000 A 
ATOM      8  C   UNL     1       1.568   7.928  20.334  0.00  0.00    +0.000 A 
BRANCH   7   9
ATOM      9  C   UNL     1      -0.028   9.855  20.532  0.00  0.00    +0.000 C 
ATOM     10  F   UNL     1      -0.539   9.192  21.613  0.00  0.00    +0.000 F 
ATOM     11  F   UNL     1       0.522  11.000  21.023  0.00  0.00    +0.000 F 
ATOM     12  F   UNL     1      -1.103  10.246  19.793  0.00  0.00    +0.000 F 
ENDBRANCH   7   9
ENDBRANCH   1   3
BRANCH   1  13
ATOM     13  C   UNL     1       3.189   4.730  19.763  0.00  0.00    +0.000 C 
ATOM     14  S   UNL     1       2.284   3.449  20.422  0.00  0.00    +0.000 S 
BRANCH  13  21
ATOM     15  C   UNL     1       5.429   4.840  18.486  0.00  0.00    +0.000 A 
ATOM     16  C   UNL     1       6.150   4.607  17.301  0.00  0.00    +0.000 A 
ATOM     17  C   UNL     1       5.513   4.096  16.168  0.00  0.00    +0.000 A 
ATOM     18 CL   UNL     1       6.412   3.839  14.724  0.00  0.00    +0.000 Cl
ATOM     19  C   UNL     1       4.163   3.786  16.202  0.00  0.00    +0.000 A 
ATOM     20  C   UNL     1       3.443   3.988  17.379  0.00  0.00    +0.000 A 
ATOM     21  C   UNL     1       4.052   4.528  18.534  0.00  0.00    +0.000 A 
BRANCH  15  23
ATOM     22  C   UNL     1       7.421   5.593  19.555  0.00  0.00    +0.000 C 
ATOM     23  O   UNL     1       6.019   5.337  19.624  0.00  0.00    +0.000 OA
ENDBRANCH  15  23
ENDBRANCH  13  21
ENDBRANCH   1  13
TORSDOF 5
ENDMDL
MODEL 7
REMARK VINA RESULT:      -7.0      4.078      6.105
REMARK  Name = 
REMARK  6 active torsions:
REMARK  status: ('A' for Active; 'I' for Inactive)
REMARK    1  A    between atoms: C_1  and  O_2
REMARK    2  A    between atoms: O_2  and  C_3
REMARK    3  A    between atoms: C_9  and  C_10
REMARK    4  A    between atoms: C_10  and  N_12
REMARK    5  A    between atoms: N_12  and  C_13
REMARK    6  A    between atoms: C_17  and  C_18
REMARK                            x       y       z     vdW  Elec       q    Type
REMARK                         _______ _______ _______ _____ _____    ______ ____
ROOT
ATOM      1  N   UNL     1       4.796   3.336  18.101  0.00  0.00    +0.000 N 
ATOM      2  H   UNL     1       5.265   2.555  18.557  0.00  0.00    +0.000 HD
ENDROOT
BRANCH   1   3
ATOM      3  C   UNL     1       5.599   4.166  17.288  0.00  0.00    +0.000 A 
ATOM      4  C   UNL     1       5.872   3.788  15.976  0.00  0.00    +0.000 A 
ATOM      5  C   UNL     1       6.652   4.611  15.155  0.00  0.00    +0.000 A 
ATOM      6  C   UNL     1       7.203   5.790  15.661  0.00  0.00    +0.000 A 
ATOM      7  C   UNL     1       6.986   6.155  16.994  0.00  0.00    +0.000 A 
ATOM      8  C   UNL     1       6.183   5.332  17.797  0.00  0.00    +0.000 A 
BRANCH   7   9
ATOM      9  C   UNL     1       7.602   7.392  17.595  0.00  0.00    +0.000 C 
ATOM     10  F   UNL     1       6.690   8.367  17.886  0.00  0.00    +0.000 F 
ATOM     11  F   UNL     1       8.264   7.141  18.759  0.00  0.00    +0.000 F 
ATOM     12  F   UNL     1       8.514   7.972  16.766  0.00  0.00    +0.000 F 
ENDBRANCH   7   9
ENDBRANCH   1   3
BRANCH   1  13
ATOM     13  C   UNL     1       3.413   3.393  18.259  0.00  0.00    +0.000 C 
ATOM     14  S   UNL     1       2.380   2.117  17.816  0.00  0.00    +0.000 S 
BRANCH  13  21
ATOM     15  C   UNL     1       2.478   4.664  20.301  0.00  0.00    +0.000 A 
ATOM     16  C   UNL     1       2.003   5.867  20.854  0.00  0.00    +0.000 A 
ATOM     17  C   UNL     1       1.901   7.019  20.072  0.00  0.00    +0.000 A 
ATOM     18 CL   UNL     1       1.298   8.474  20.767  0.00  0.00    +0.000 Cl
ATOM     19  C   UNL     1       2.291   7.002  18.743  0.00  0.00    +0.000 A 
ATOM     20  C   UNL     1       2.786   5.822  18.190  0.00  0.00    +0.000 A 
ATOM     21  C   UNL     1       2.878   4.633  18.947  0.00  0.00    +0.000 A 
BRANCH  15  23
ATOM     22  C   UNL     1       1.381   2.880  21.438  0.00  0.00    +0.000 C 
ATOM     23  O   UNL     1       2.598   3.509  21.038  0.00  0.00    +0.000 OA
ENDBRANCH  15  23
ENDBRANCH  13  21
ENDBRANCH   1  13
TORSDOF 5
ENDMDL
MODEL 8
REMARK VINA RESULT:      -6.9      5.514      7.683
REMARK  Name = 
REMARK  6 active torsions:
REMARK  status: ('A' for Active; 'I' for Inactive)
REMARK    1  A    between atoms: C_1  and  O_2
REMARK    2  A    between atoms: O_2  and  C_3
REMARK    3  A    between atoms: C_9  and  C_10
REMARK    4  A    between atoms: C_10  and  N_12
REMARK    5  A    between atoms: N_12  and  C_13
REMARK    6  A    between atoms: C_17  and  C_18
REMARK                            x       y       z     vdW  Elec       q    Type
REMARK                         _______ _______ _______ _____ _____    ______ ____
ROOT
ATOM      1  N   UNL     1       5.567   5.509  15.808  0.00  0.00    +0.000 N 
ATOM      2  H   UNL     1       5.111   6.419  15.785  0.00  0.00    +0.000 HD
ENDROOT
BRANCH   1   3
ATOM      3  C   UNL     1       6.003   4.990  14.569  0.00  0.00    +0.000 A 
ATOM      4  C   UNL     1       7.319   5.194  14.162  0.00  0.00    +0.000 A 
ATOM      5  C   UNL     1       7.767   4.669  12.944  0.00  0.00    +0.000 A 
ATOM      6  C   UNL     1       6.885   3.983  12.106  0.00  0.00    +0.000 A 
ATOM      7  C   UNL     1       5.545   3.820  12.474  0.00  0.00    +0.000 A 
ATOM      8  C   UNL     1       5.118   4.330  13.708  0.00  0.00    +0.000 A 
BRANCH   7   9
ATOM      9  C   UNL     1       4.549   3.130  11.578  0.00  0.00    +0.000 C 
ATOM     10  F   UNL     1       3.354   2.873  12.191  0.00  0.00    +0.000 F 
ATOM     11  F   UNL     1       4.249   3.855  10.465  0.00  0.00    +0.000 F 
ATOM     12  F   UNL     1       5.002   1.927  11.128  0.00  0.00    +0.000 F 
ENDBRANCH   7   9
ENDBRANCH   1   3
BRANCH   1  13
ATOM     13  C   UNL     1       5.792   4.971  17.073  0.00  0.00    +0.000 C 
ATOM     14  S   UNL     1       7.351   4.713  17.703  0.00  0.00    +0.000 S 
BRANCH  13  21
ATOM     15  C   UNL     1       3.508   5.649  18.066  0.00  0.00    +0.000 A 
ATOM     16  C   UNL     1       2.395   5.315  18.858  0.00  0.00    +0.000 A 
ATOM     17  C   UNL     1       2.329   4.082  19.510  0.00  0.00    +0.000 A 
ATOM     18 CL   UNL     1       0.965   3.704  20.489  0.00  0.00    +0.000 Cl
ATOM     19  C   UNL     1       3.350   3.157  19.367  0.00  0.00    +0.000 A 
ATOM     20  C   UNL     1       4.447   3.466  18.565  0.00  0.00    +0.000 A 
ATOM     21  C   UNL     1       4.556   4.715  17.912  0.00  0.00    +0.000 A 
BRANCH  15  23
ATOM     22  C   UNL     1       2.854   7.937  17.935  0.00  0.00    +0.000 C 
ATOM     23  O   UNL     1       3.610   6.850  17.403  0.00  0.00    +0.000 OA
ENDBRANCH  15  23
ENDBRANCH  13  21
ENDBRANCH   1  13
TORSDOF 5
ENDMDL
MODEL 9
REMARK VINA RESULT:      -6.9      5.455      7.599
REMARK  Name = 
REMARK  6 active torsions:
REMARK  status: ('A' for Active; 'I' for Inactive)
REMARK    1  A    between atoms: C_1  and  O_2
REMARK    2  A    between atoms: O_2  and  C_3
REMARK    3  A    between atoms: C_9  and  C_10
REMARK    4  A    between atoms: C_10  and  N_12
REMARK    5  A    between atoms: N_12  and  C_13
REMARK    6  A    between atoms: C_17  and  C_18
REMARK                            x       y       z     vdW  Elec       q    Type
REMARK                         _______ _______ _______ _____ _____    ______ ____
ROOT
ATOM      1  N   UNL     1       5.847   3.736  16.271  0.00  0.00    +0.000 N 
ATOM      2  H   UNL     1       5.429   2.841  16.519  0.00  0.00    +0.000 HD
ENDROOT
BRANCH   1   3
ATOM      3  C   UNL     1       6.131   3.942  14.903  0.00  0.00    +0.000 A 
ATOM      4  C   UNL     1       7.244   4.696  14.538  0.00  0.00    +0.000 A 
ATOM      5  C   UNL     1       7.546   4.893  13.185  0.00  0.00    +0.000 A 
ATOM      6  C   UNL     1       6.705   4.380  12.194  0.00  0.00    +0.000 A 
ATOM      7  C   UNL     1       5.552   3.670  12.546  0.00  0.00    +0.000 A 
ATOM      8  C   UNL     1       5.277   3.461  13.905  0.00  0.00    +0.000 A 
BRANCH   7   9
ATOM      9  C   UNL     1       4.592   3.143  11.511  0.00  0.00    +0.000 C 
ATOM     10  F   UNL     1       4.993   1.963  10.948  0.00  0.00    +0.000 F 
ATOM     11  F   UNL     1       3.348   2.911  12.014  0.00  0.00    +0.000 F 
ATOM     12  F   UNL     1       4.419   4.009  10.475  0.00  0.00    +0.000 F 
ENDBRANCH   7   9
ENDBRANCH   1   3
BRANCH   1  13
ATOM     13  C   UNL     1       5.965   4.661  17.306  0.00  0.00    +0.000 C 
ATOM     14  S   UNL     1       7.383   4.839  18.228  0.00  0.00    +0.000 S 
BRANCH  13  21
ATOM     15  C   UNL     1       3.515   5.142  17.957  0.00  0.00    +0.000 A 
ATOM     16  C   UNL     1       2.476   6.077  18.123  0.00  0.00    +0.000 A 
ATOM     17  C   UNL     1       2.677   7.426  17.823  0.00  0.00    +0.000 A 
ATOM     18 CL   UNL     1       1.385   8.546  18.015  0.00  0.00    +0.000 Cl
ATOM     19  C   UNL     1       3.912   7.870  17.380  0.00  0.00    +0.000 A 
ATOM     20  C   UNL     1       4.956   6.958  17.236  0.00  0.00    +0.000 A 
ATOM     21  C   UNL     1       4.779   5.583  17.506  0.00  0.00    +0.000 A 
BRANCH  15  23
ATOM     22  C   UNL     1       2.020   3.335  18.377  0.00  0.00    +0.000 C 
ATOM     23  O   UNL     1       3.360   3.807  18.246  0.00  0.00    +0.000 OA
ENDBRANCH  15  23
ENDBRANCH  13  21
ENDBRANCH   1  13
TORSDOF 5
ENDMDL
