MODEL 1
REMARK VINA RESULT:      -8.1      0.000      0.000
REMARK  Name = 
REMARK  7 active torsions:
REMARK  status: ('A' for Active; 'I' for Inactive)
REMARK    1  A    between atoms: C_1  and  C_2
REMARK    2  A    between atoms: C_2  and  C_3
REMARK    3  A    between atoms: C_4  and  C_5
REMARK    4  A    between atoms: C_9  and  C_10
REMARK    5  A    between atoms: N_13  and  C_14
REMARK    6  A    between atoms: C_14  and  C_15
REMARK    7  A    between atoms: C_20  and  C_21
REMARK                            x       y       z     vdW  Elec       q    Type
REMARK                         _______ _______ _______ _____ _____    ______ ____
ROOT
ATOM      1  C   UNL     1      -0.272  10.843  20.475  0.00  0.00    +0.000 A 
ATOM      2  C   UNL     1      -0.328  11.324  19.206  0.00  0.00    +0.000 A 
ATOM      3  C   UNL     1      -1.200  12.487  18.801  0.00  0.00    +0.000 C 
ATOM      4  N   UNL     1       0.417  10.756  18.174  0.00  0.00    +0.000 N 
ATOM      5  C   UNL     1       1.130   9.624  18.359  0.00  0.00    +0.000 A 
ATOM      6  C   UNL     1       1.802   8.764  17.529  0.00  0.00    +0.000 A 
ATOM      7  C   UNL     1       2.217   7.699  18.374  0.00  0.00    +0.000 A 
ATOM      8  N   UNL     1       1.935   7.954  19.661  0.00  0.00    +0.000 NA
ATOM      9  N   UNL     1       1.233   9.113  19.633  0.00  0.00    +0.000 N 
ATOM     10  C   UNL     1       0.627   9.670  20.767  0.00  0.00    +0.000 A 
ATOM     11  O   UNL     1       0.803   9.199  21.886  0.00  0.00    +0.000 OA
ATOM     12  H   UNL     1       0.272  11.143  17.243  0.00  0.00    +0.000 HD
ENDROOT
BRANCH   7  13
ATOM     13  C   UNL     1       2.901   6.399  18.053  0.00  0.00    +0.000 C 
ATOM     14  C   UNL     1       2.288   5.227  18.819  0.00  0.00    +0.000 C 
ATOM     15  C   UNL     1       3.341   4.921  19.871  0.00  0.00    +0.000 C 
ATOM     16  N   UNL     1       4.633   5.108  19.182  0.00  0.00    +0.000 NA
ATOM     17  C   UNL     1       4.407   6.329  18.372  0.00  0.00    +0.000 C 
BRANCH  16  18
ATOM     18  C   UNL     1       4.937   3.928  18.347  0.00  0.00    +0.000 C 
BRANCH  18  19
ATOM     19  C   UNL     1       5.649   4.239  17.044  0.00  0.00    +0.000 A 
ATOM     20  C   UNL     1       4.928   4.159  15.844  0.00  0.00    +0.000 A 
ATOM     21  C   UNL     1       5.527   4.568  14.664  0.00  0.00    +0.000 A 
ATOM     22  N   UNL     1       6.781   5.055  14.592  0.00  0.00    +0.000 NA
ATOM     23  C   UNL     1       7.470   5.113  15.752  0.00  0.00    +0.000 A 
ATOM     24  C   UNL     1       6.977   4.705  16.993  0.00  0.00    +0.000 A 
ATOM     25  C   UNL     1       7.856   4.844  18.200  0.00  0.00    +0.000 C 
ENDBRANCH  18  19
ENDBRANCH  16  18
ENDBRANCH   7  13
BRANCH   1  27
ATOM     26  C   UNL     1      -0.564  12.587  22.267  0.00  0.00    +0.000 C 
ATOM     27  C   UNL     1      -1.094  11.302  21.653  0.00  0.00    +0.000 C 
ENDBRANCH   1  27
TORSDOF 4
ENDMDL
MODEL 2
REMARK VINA RESULT:      -7.7      0.867      1.636
REMARK  Name = 
REMARK  7 active torsions:
REMARK  status: ('A' for Active; 'I' for Inactive)
REMARK    1  A    between atoms: C_1  and  C_2
REMARK    2  A    between atoms: C_2  and  C_3
REMARK    3  A    between atoms: C_4  and  C_5
REMARK    4  A    between atoms: C_9  and  C_10
REMARK    5  A    between atoms: N_13  and  C_14
REMARK    6  A    between atoms: C_14  and  C_15
REMARK    7  A    between atoms: C_20  and  C_21
REMARK                            x       y       z     vdW  Elec       q    Type
REMARK                         _______ _______ _______ _____ _____    ______ ____
ROOT
ATOM      1  C   UNL     1      -0.440  10.968  20.508  0.00  0.00    +0.000 A 
ATOM      2  C   UNL     1      -0.524  11.367  19.214  0.00  0.00    +0.000 A 
ATOM      3  C   UNL     1      -1.448  12.466  18.747  0.00  0.00    +0.000 C 
ATOM      4  N   UNL     1       0.237  10.768  18.211  0.00  0.00    +0.000 N 
ATOM      5  C   UNL     1       0.999   9.681  18.458  0.00  0.00    +0.000 A 
ATOM      6  C   UNL     1       1.701   8.801  17.675  0.00  0.00    +0.000 A 
ATOM      7  C   UNL     1       2.166   7.808  18.581  0.00  0.00    +0.000 A 
ATOM      8  N   UNL     1       1.883   8.130  19.852  0.00  0.00    +0.000 NA
ATOM      9  N   UNL     1       1.132   9.255  19.760  0.00  0.00    +0.000 N 
ATOM     10  C   UNL     1       0.511   9.854  20.864  0.00  0.00    +0.000 A 
ATOM     11  O   UNL     1       0.714   9.460  22.007  0.00  0.00    +0.000 OA
ATOM     12  H   UNL     1       0.068  11.091  17.260  0.00  0.00    +0.000 HD
ENDROOT
BRANCH   7  13
ATOM     13  C   UNL     1       2.903   6.521  18.333  0.00  0.00    +0.000 C 
ATOM     14  C   UNL     1       1.948   5.366  18.034  0.00  0.00    +0.000 C 
ATOM     15  C   UNL     1       1.999   4.544  19.310  0.00  0.00    +0.000 C 
ATOM     16  N   UNL     1       3.411   4.598  19.741  0.00  0.00    +0.000 NA
ATOM     17  C   UNL     1       3.784   6.010  19.490  0.00  0.00    +0.000 C 
BRANCH  16  18
ATOM     18  C   UNL     1       4.220   3.653  18.945  0.00  0.00    +0.000 C 
BRANCH  18  19
ATOM     19  C   UNL     1       5.415   4.272  18.246  0.00  0.00    +0.000 A 
ATOM     20  C   UNL     1       6.481   4.749  19.022  0.00  0.00    +0.000 A 
ATOM     21  C   UNL     1       7.632   5.194  18.394  0.00  0.00    +0.000 A 
ATOM     22  N   UNL     1       7.803   5.191  17.058  0.00  0.00    +0.000 NA
ATOM     23  C   UNL     1       6.764   4.743  16.321  0.00  0.00    +0.000 A 
ATOM     24  C   UNL     1       5.550   4.296  16.844  0.00  0.00    +0.000 A 
ATOM     25  C   UNL     1       4.491   3.812  15.899  0.00  0.00    +0.000 C 
ENDBRANCH  18  19
ENDBRANCH  16  18
ENDBRANCH   7  13
BRANCH   1  27
ATOM     26  C   UNL     1      -0.658  12.675  22.346  0.00  0.00    +0.000 C 
ATOM     27  C   UNL     1      -1.272  11.464  21.664  0.00  0.00    +0.000 C 
ENDBRANCH   1  27
TORSDOF 4
ENDMDL
MODEL 3
REMARK VINA RESULT:      -7.7      2.548      8.939
REMARK  Name = 
REMARK  7 active torsions:
REMARK  status: ('A' for Active; 'I' for Inactive)
REMARK    1  A    between atoms: C_1  and  C_2
REMARK    2  A    between atoms: C_2  and  C_3
REMARK    3  A    between atoms: C_4  and  C_5
REMARK    4  A    between atoms: C_9  and  C_10
REMARK    5  A    between atoms: N_13  and  C_14
REMARK    6  A    between atoms: C_14  and  C_15
REMARK    7  A    between atoms: C_20  and  C_21
REMARK                            x       y       z     vdW  Elec       q    Type
REMARK                         _______ _______ _______ _____ _____    ______ ____
ROOT
ATOM      1  C   UNL     1       4.887   5.114  17.514  0.00  0.00    +0.000 A 
ATOM      2  C   UNL     1       4.305   4.730  18.679  0.00  0.00    +0.000 A 
ATOM      3  C   UNL     1       4.526   3.375  19.306  0.00  0.00    +0.000 C 
ATOM      4  N   UNL     1       3.437   5.570  19.376  0.00  0.00    +0.000 N 
ATOM      5  C   UNL     1       3.036   6.753  18.863  0.00  0.00    +0.000 A 
ATOM      6  C   UNL     1       2.096   7.686  19.217  0.00  0.00    +0.000 A 
ATOM      7  C   UNL     1       2.108   8.630  18.154  0.00  0.00    +0.000 A 
ATOM      8  N   UNL     1       3.085   8.366  17.273  0.00  0.00    +0.000 NA
ATOM      9  N   UNL     1       3.616   7.192  17.694  0.00  0.00    +0.000 N 
ATOM     10  C   UNL     1       4.588   6.488  16.972  0.00  0.00    +0.000 A 
ATOM     11  O   UNL     1       5.108   6.960  15.966  0.00  0.00    +0.000 OA
ATOM     12  H   UNL     1       3.001   5.181  20.210  0.00  0.00    +0.000 HD
ENDROOT
BRANCH   7  13
ATOM     13  C   UNL     1       1.237   9.827  17.894  0.00  0.00    +0.000 C 
ATOM     14  C   UNL     1       1.935  11.133  18.271  0.00  0.00    +0.000 C 
ATOM     15  C   UNL     1       1.223  11.544  19.549  0.00  0.00    +0.000 C 
ATOM     16  N   UNL     1      -0.192  11.186  19.327  0.00  0.00    +0.000 NA
ATOM     17  C   UNL     1      -0.104   9.868  18.655  0.00  0.00    +0.000 C 
BRANCH  16  18
ATOM     18  C   UNL     1      -0.846  12.206  18.482  0.00  0.00    +0.000 C 
BRANCH  18  19
ATOM     19  C   UNL     1      -2.268  11.873  18.071  0.00  0.00    +0.000 A 
ATOM     20  C   UNL     1      -2.488  11.273  16.823  0.00  0.00    +0.000 A 
ATOM     21  C   UNL     1      -3.762  10.844  16.492  0.00  0.00    +0.000 A 
ATOM     22  N   UNL     1      -4.826  10.960  17.310  0.00  0.00    +0.000 NA
ATOM     23  C   UNL     1      -4.604  11.552  18.503  0.00  0.00    +0.000 A 
ATOM     24  C   UNL     1      -3.370  12.045  18.931  0.00  0.00    +0.000 A 
ATOM     25  C   UNL     1      -3.272  12.666  20.292  0.00  0.00    +0.000 C 
ENDBRANCH  18  19
ENDBRANCH  16  18
ENDBRANCH   7  13
BRANCH   1  27
ATOM     26  C   UNL     1       7.242   4.480  16.889  0.00  0.00    +0.000 C 
ATOM     27  C   UNL     1       5.761   4.272  16.619  0.00  0.00    +0.000 C 
ENDBRANCH   1  27
TORSDOF 4
ENDMDL
MODEL 4
REMARK VINA RESULT:      -7.6      2.554      9.058
REMARK  Name = 
REMARK  7 active torsions:
REMARK  status: ('A' for Active; 'I' for Inactive)
REMARK    1  A    between atoms: C_1  and  C_2
REMARK    2  A    between atoms: C_2  and  C_3
REMARK    3  A    between atoms: C_4  and  C_5
REMARK    4  A    between atoms: C_9  and  C_10
REMARK    5  A    between atoms: N_13  and  C_14
REMARK    6  A    between atoms: C_14  and  C_15
REMARK    7  A    between atoms: C_20  and  C_21
REMARK                            x       y       z     vdW  Elec       q    Type
REMARK                         _______ _______ _______ _____ _____    ______ ____
ROOT
ATOM      1  C   UNL     1       5.146   5.136  17.647  0.00  0.00    +0.000 A 
ATOM      2  C   UNL     1       4.484   4.654  18.730  0.00  0.00    +0.000 A 
ATOM      3  C   UNL     1       4.726   3.277  19.300  0.00  0.00    +0.000 C 
ATOM      4  N   UNL     1       3.510   5.404  19.387  0.00  0.00    +0.000 N 
ATOM      5  C   UNL     1       3.089   6.593  18.905  0.00  0.00    +0.000 A 
ATOM      6  C   UNL     1       2.069   7.452  19.220  0.00  0.00    +0.000 A 
ATOM      7  C   UNL     1       2.123   8.458  18.216  0.00  0.00    +0.000 A 
ATOM      8  N   UNL     1       3.190   8.299  17.418  0.00  0.00    +0.000 NA
ATOM      9  N   UNL     1       3.747   7.131  17.822  0.00  0.00    +0.000 N 
ATOM     10  C   UNL     1       4.819   6.522  17.156  0.00  0.00    +0.000 A 
ATOM     11  O   UNL     1       5.400   7.080  16.231  0.00  0.00    +0.000 OA
ATOM     12  H   UNL     1       3.024   4.943  20.155  0.00  0.00    +0.000 HD
ENDROOT
BRANCH   7  13
ATOM     13  C   UNL     1       1.211   9.621  17.942  0.00  0.00    +0.000 C 
ATOM     14  C   UNL     1       1.940  10.959  18.066  0.00  0.00    +0.000 C 
ATOM     15  C   UNL     1       1.405  11.517  19.374  0.00  0.00    +0.000 C 
ATOM     16  N   UNL     1      -0.023  11.144  19.390  0.00  0.00    +0.000 NA
ATOM     17  C   UNL     1      -0.013   9.757  18.868  0.00  0.00    +0.000 C 
BRANCH  16  18
ATOM     18  C   UNL     1      -0.798  12.062  18.531  0.00  0.00    +0.000 C 
BRANCH  18  19
ATOM     19  C   UNL     1      -2.302  11.883  18.603  0.00  0.00    +0.000 A 
ATOM     20  C   UNL     1      -2.993  12.409  19.704  0.00  0.00    +0.000 A 
ATOM     21  C   UNL     1      -4.377  12.371  19.718  0.00  0.00    +0.000 A 
ATOM     22  N   UNL     1      -5.121  11.858  18.719  0.00  0.00    +0.000 NA
ATOM     23  C   UNL     1      -4.443  11.342  17.671  0.00  0.00    +0.000 A 
ATOM     24  C   UNL     1      -3.053  11.303  17.562  0.00  0.00    +0.000 A 
ATOM     25  C   UNL     1      -2.441  10.711  16.328  0.00  0.00    +0.000 C 
ENDBRANCH  18  19
ENDBRANCH  16  18
ENDBRANCH   7  13
BRANCH   1  27
ATOM     26  C   UNL     1       5.507   3.762  15.569  0.00  0.00    +0.000 C 
ATOM     27  C   UNL     1       6.145   4.396  16.794  0.00  0.00    +0.000 C 
ENDBRANCH   1  27
TORSDOF 4
ENDMDL
MODEL 5
REMARK VINA RESULT:      -7.5      3.095     10.094
REMARK  Name = 
REMARK  7 active torsions:
REMARK  status: ('A' for Active; 'I' for Inactive)
REMARK    1  A    between atoms: C_1  and  C_2
REMARK    2  A    between atoms: C_2  and  C_3
REMARK    3  A    between atoms: C_4  and  C_5
REMARK    4  A    between atoms: C_9  and  C_10
REMARK    5  A    between atoms: N_13  and  C_14
REMARK    6  A    between atoms: C_14  and  C_15
REMARK    7  A    between atoms: C_20  and  C_21
REMARK                            x       y       z     vdW  Elec       q    Type
REMARK                         _______ _______ _______ _____ _____    ______ ____
ROOT
ATOM      1  C   UNL     1       2.613   7.014  18.682  0.00  0.00    +0.000 A 
ATOM      2  C   UNL     1       2.452   6.417  19.891  0.00  0.00    +0.000 A 
ATOM      3  C   UNL     1       2.904   5.006  20.182  0.00  0.00    +0.000 C 
ATOM      4  N   UNL     1       1.835   7.072  20.955  0.00  0.00    +0.000 N 
ATOM      5  C   UNL     1       1.255   8.282  20.799  0.00  0.00    +0.000 A 
ATOM      6  C   UNL     1       0.456   9.073  21.582  0.00  0.00    +0.000 A 
ATOM      7  C   UNL     1       0.095  10.162  20.742  0.00  0.00    +0.000 A 
ATOM      8  N   UNL     1       0.740  10.111  19.567  0.00  0.00    +0.000 NA
ATOM      9  N   UNL     1       1.412   8.934  19.597  0.00  0.00    +0.000 N 
ATOM     10  C   UNL     1       2.116   8.424  18.498  0.00  0.00    +0.000 A 
ATOM     11  O   UNL     1       2.267   9.080  17.473  0.00  0.00    +0.000 OA
ATOM     12  H   UNL     1       1.705   6.530  21.808  0.00  0.00    +0.000 HD
ENDROOT
BRANCH   7  13
ATOM     13  C   UNL     1      -0.847  11.311  20.974  0.00  0.00    +0.000 C 
ATOM     14  C   UNL     1      -0.251  12.640  20.510  0.00  0.00    +0.000 C 
ATOM     15  C   UNL     1       0.090  13.334  21.818  0.00  0.00    +0.000 C 
ATOM     16  N   UNL     1      -1.019  12.992  22.730  0.00  0.00    +0.000 NA
ATOM     17  C   UNL     1      -1.266  11.561  22.436  0.00  0.00    +0.000 C 
BRANCH  16  18
ATOM     18  C   UNL     1      -2.195  13.836  22.438  0.00  0.00    +0.000 C 
BRANCH  18  19
ATOM     19  C   UNL     1      -3.529  13.222  22.819  0.00  0.00    +0.000 A 
ATOM     20  C   UNL     1      -3.805  12.996  24.175  0.00  0.00    +0.000 A 
ATOM     21  C   UNL     1      -5.067  12.562  24.546  0.00  0.00    +0.000 A 
ATOM     22  N   UNL     1      -6.070  12.346  23.674  0.00  0.00    +0.000 NA
ATOM     23  C   UNL     1      -5.786  12.554  22.370  0.00  0.00    +0.000 A 
ATOM     24  C   UNL     1      -4.546  12.965  21.880  0.00  0.00    +0.000 A 
ATOM     25  C   UNL     1      -4.384  13.170  20.403  0.00  0.00    +0.000 C 
ENDBRANCH  18  19
ENDBRANCH  16  18
ENDBRANCH   7  13
BRANCH   1  27
ATOM     26  C   UNL     1       4.675   6.576  17.305  0.00  0.00    +0.000 C 
ATOM     27  C   UNL     1       3.172   6.387  17.430  0.00  0.00    +0.000 C 
ENDBRANCH   1  27
TORSDOF 4
ENDMDL
MODEL 6
REMARK VINA RESULT:      -7.5      1.927      3.305
REMARK  Name = 
REMARK  7 active torsions:
REMARK  status: ('A' for Active; 'I' for Inactive)
REMARK    1  A    between atoms: C_1  and  C_2
REMARK    2  A    between atoms: C_2  and  C_3
REMARK    3  A    between atoms: C_4  and  C_5
REMARK    4  A    between atoms: C_9  and  C_10
REMARK    5  A    between atoms: N_13  and  C_14
REMARK    6  A    between atoms: C_14  and  C_15
REMARK    7  A    between atoms: C_20  and  C_21
REMARK                            x       y       z     vdW  Elec       q    Type
REMARK                         _______ _______ _______ _____ _____    ______ ____
ROOT
ATOM      1  C   UNL     1       0.825   9.631  19.826  0.00  0.00    +0.000 A 
ATOM      2  C   UNL     1       0.737   8.795  20.892  0.00  0.00    +0.000 A 
ATOM      3  C   UNL     1      -0.010   9.144  22.156  0.00  0.00    +0.000 C 
ATOM      4  N   UNL     1       1.356   7.546  20.896  0.00  0.00    +0.000 N 
ATOM      5  C   UNL     1       2.174   7.160  19.894  0.00  0.00    +0.000 A 
ATOM      6  C   UNL     1       3.027   6.104  19.701  0.00  0.00    +0.000 A 
ATOM      7  C   UNL     1       3.680   6.390  18.471  0.00  0.00    +0.000 A 
ATOM      8  N   UNL     1       3.165   7.480  17.882  0.00  0.00    +0.000 NA
ATOM      9  N   UNL     1       2.276   7.966  18.782  0.00  0.00    +0.000 N 
ATOM     10  C   UNL     1       1.605   9.185  18.617  0.00  0.00    +0.000 A 
ATOM     11  O   UNL     1       1.694   9.830  17.577  0.00  0.00    +0.000 OA
ATOM     12  H   UNL     1       1.287   7.008  21.759  0.00  0.00    +0.000 HD
ENDROOT
BRANCH   7  13
ATOM     13  C   UNL     1       4.799   5.677  17.765  0.00  0.00    +0.000 C 
ATOM     14  C   UNL     1       6.080   5.659  18.598  0.00  0.00    +0.000 C 
ATOM     15  C   UNL     1       6.966   6.664  17.882  0.00  0.00    +0.000 C 
ATOM     16  N   UNL     1       6.696   6.454  16.446  0.00  0.00    +0.000 NA
ATOM     17  C   UNL     1       5.227   6.264  16.405  0.00  0.00    +0.000 C 
BRANCH  16  18
ATOM     18  C   UNL     1       7.430   5.267  15.961  0.00  0.00    +0.000 C 
BRANCH  18  19
ATOM     19  C   UNL     1       7.102   4.855  14.538  0.00  0.00    +0.000 A 
ATOM     20  C   UNL     1       7.803   5.455  13.482  0.00  0.00    +0.000 A 
ATOM     21  C   UNL     1       7.610   4.994  12.191  0.00  0.00    +0.000 A 
ATOM     22  N   UNL     1       6.781   3.980  11.876  0.00  0.00    +0.000 NA
ATOM     23  C   UNL     1       6.101   3.420  12.899  0.00  0.00    +0.000 A 
ATOM     24  C   UNL     1       6.197   3.820  14.233  0.00  0.00    +0.000 A 
ATOM     25  C   UNL     1       5.390   3.092  15.266  0.00  0.00    +0.000 C 
ENDBRANCH  18  19
ENDBRANCH  16  18
ENDBRANCH   7  13
BRANCH   1  27
ATOM     26  C   UNL     1       1.317  12.081  20.131  0.00  0.00    +0.000 C 
ATOM     27  C   UNL     1       0.288  11.037  19.732  0.00  0.00    +0.000 C 
ENDBRANCH   1  27
TORSDOF 4
ENDMDL
MODEL 7
REMARK VINA RESULT:      -7.5      2.711      9.709
REMARK  Name = 
REMARK  7 active torsions:
REMARK  status: ('A' for Active; 'I' for Inactive)
REMARK    1  A    between atoms: C_1  and  C_2
REMARK    2  A    between atoms: C_2  and  C_3
REMARK    3  A    between atoms: C_4  and  C_5
REMARK    4  A    between atoms: C_9  and  C_10
REMARK    5  A    between atoms: N_13  and  C_14
REMARK    6  A    between atoms: C_14  and  C_15
REMARK    7  A    between atoms: C_20  and  C_21
REMARK                            x       y       z     vdW  Elec       q    Type
REMARK                         _______ _______ _______ _____ _____    ______ ____
ROOT
ATOM      1  C   UNL     1       2.925   5.988  18.745  0.00  0.00    +0.000 A 
ATOM      2  C   UNL     1       2.615   5.484  19.967  0.00  0.00    +0.000 A 
ATOM      3  C   UNL     1       2.887   4.053  20.363  0.00  0.00    +0.000 C 
ATOM      4  N   UNL     1       2.001   6.263  20.946  0.00  0.00    +0.000 N 
ATOM      5  C   UNL     1       1.571   7.516  20.685  0.00  0.00    +0.000 A 
ATOM      6  C   UNL     1       0.811   8.433  21.363  0.00  0.00    +0.000 A 
ATOM      7  C   UNL     1       0.632   9.502  20.443  0.00  0.00    +0.000 A 
ATOM      8  N   UNL     1       1.347   9.313  19.324  0.00  0.00    +0.000 NA
ATOM      9  N   UNL     1       1.882   8.076  19.466  0.00  0.00    +0.000 N 
ATOM     10  C   UNL     1       2.600   7.430  18.451  0.00  0.00    +0.000 A 
ATOM     11  O   UNL     1       2.894   8.004  17.408  0.00  0.00    +0.000 OA
ATOM     12  H   UNL     1       1.753   5.789  21.813  0.00  0.00    +0.000 HD
ENDROOT
BRANCH   7  13
ATOM     13  C   UNL     1      -0.192  10.756  20.543  0.00  0.00    +0.000 C 
ATOM     14  C   UNL     1       0.473  11.933  19.830  0.00  0.00    +0.000 C 
ATOM     15  C   UNL     1       0.971  12.790  20.981  0.00  0.00    +0.000 C 
ATOM     16  N   UNL     1      -0.087  12.702  22.007  0.00  0.00    +0.000 NA
ATOM     17  C   UNL     1      -0.472  11.272  21.969  0.00  0.00    +0.000 C 
BRANCH  16  18
ATOM     18  C   UNL     1      -1.209  13.596  21.656  0.00  0.00    +0.000 C 
BRANCH  18  19
ATOM     19  C   UNL     1      -2.553  13.180  22.223  0.00  0.00    +0.000 A 
ATOM     20  C   UNL     1      -2.764  13.279  23.606  0.00  0.00    +0.000 A 
ATOM     21  C   UNL     1      -4.026  13.031  24.120  0.00  0.00    +0.000 A 
ATOM     22  N   UNL     1      -5.089  12.702  23.362  0.00  0.00    +0.000 NA
ATOM     23  C   UNL     1      -4.871  12.596  22.034  0.00  0.00    +0.000 A 
ATOM     24  C   UNL     1      -3.638  12.798  21.411  0.00  0.00    +0.000 A 
ATOM     25  C   UNL     1      -3.551  12.660  19.920  0.00  0.00    +0.000 C 
ENDBRANCH  18  19
ENDBRANCH  16  18
ENDBRANCH   7  13
BRANCH   1  27
ATOM     26  C   UNL     1       5.013   5.320  17.507  0.00  0.00    +0.000 C 
ATOM     27  C   UNL     1       3.498   5.231  17.573  0.00  0.00    +0.000 C 
ENDBRANCH   1  27
TORSDOF 4
ENDMDL
MODEL 8
REMARK VINA RESULT:      -7.3      1.626      2.590
REMARK  Name = 
REMARK  7 active torsions:
REMARK  status: ('A' for Active; 'I' for Inactive)
REMARK    1  A    between atoms: C_1  and  C_2
REMARK    2  A    between atoms: C_2  and  C_3
REMARK    3  A    between atoms: C_4  and  C_5
REMARK    4  A    between atoms: C_9  and  C_10
REMARK    5  A    between atoms: N_13  and  C_14
REMARK    6  A    between atoms: C_14  and  C_15
REMARK    7  A    between atoms: C_20  and  C_21
REMARK                            x       y       z     vdW  Elec       q    Type
REMARK                         _______ _______ _______ _____ _____    ______ ____
ROOT
ATOM      1  C   UNL     1       0.019  11.129  20.819  0.00  0.00    +0.000 A 
ATOM      2  C   UNL     1      -0.290  10.346  21.884  0.00  0.00    +0.000 A 
ATOM      3  C   UNL     1      -0.973  10.870  23.124  0.00  0.00    +0.000 C 
ATOM      4  N   UNL     1       0.023   8.989  21.910  0.00  0.00    +0.000 N 
ATOM      5  C   UNL     1       0.760   8.415  20.934  0.00  0.00    +0.000 A 
ATOM      6  C   UNL     1       1.351   7.189  20.769  0.00  0.00    +0.000 A 
ATOM      7  C   UNL     1       2.088   7.305  19.559  0.00  0.00    +0.000 A 
ATOM      8  N   UNL     1       1.856   8.479  18.952  0.00  0.00    +0.000 NA
ATOM      9  N   UNL     1       1.077   9.165  19.824  0.00  0.00    +0.000 N 
ATOM     10  C   UNL     1       0.711  10.504  19.635  0.00  0.00    +0.000 A 
ATOM     11  O   UNL     1       0.976  11.102  18.597  0.00  0.00    +0.000 OA
ATOM     12  H   UNL     1      -0.193   8.489  22.771  0.00  0.00    +0.000 HD
ENDROOT
BRANCH   7  13
ATOM     13  C   UNL     1       3.033   6.347  18.889  0.00  0.00    +0.000 C 
ATOM     14  C   UNL     1       2.295   5.346  18.000  0.00  0.00    +0.000 C 
ATOM     15  C   UNL     1       2.377   4.056  18.798  0.00  0.00    +0.000 C 
ATOM     16  N   UNL     1       3.726   4.066  19.398  0.00  0.00    +0.000 NA
ATOM     17  C   UNL     1       3.893   5.475  19.826  0.00  0.00    +0.000 C 
BRANCH  16  18
ATOM     18  C   UNL     1       4.730   3.661  18.394  0.00  0.00    +0.000 C 
BRANCH  18  19
ATOM     19  C   UNL     1       5.768   4.720  18.070  0.00  0.00    +0.000 A 
ATOM     20  C   UNL     1       6.651   5.131  19.079  0.00  0.00    +0.000 A 
ATOM     21  C   UNL     1       7.685   5.996  18.763  0.00  0.00    +0.000 A 
ATOM     22  N   UNL     1       7.910   6.472  17.524  0.00  0.00    +0.000 NA
ATOM     23  C   UNL     1       7.044   6.079  16.564  0.00  0.00    +0.000 A 
ATOM     24  C   UNL     1       5.954   5.234  16.773  0.00  0.00    +0.000 A 
ATOM     25  C   UNL     1       5.086   4.872  15.604  0.00  0.00    +0.000 C 
ENDBRANCH  18  19
ENDBRANCH  16  18
ENDBRANCH   7  13
BRANCH   1  27
ATOM     26  C   UNL     1      -1.531  12.988  20.124  0.00  0.00    +0.000 C 
ATOM     27  C   UNL     1      -0.176  12.620  20.705  0.00  0.00    +0.000 C 
ENDBRANCH   1  27
TORSDOF 4
ENDMDL
MODEL 9
REMARK VINA RESULT:      -7.3      2.499      9.355
REMARK  Name = 
REMARK  7 active torsions:
REMARK  status: ('A' for Active; 'I' for Inactive)
REMARK    1  A    between atoms: C_1  and  C_2
REMARK    2  A    between atoms: C_2  and  C_3
REMARK    3  A    between atoms: C_4  and  C_5
REMARK    4  A    between atoms: C_9  and  C_10
REMARK    5  A    between atoms: N_13  and  C_14
REMARK    6  A    between atoms: C_14  and  C_15
REMARK    7  A    between atoms: C_20  and  C_21
REMARK                            x       y       z     vdW  Elec       q    Type
REMARK                         _______ _______ _______ _____ _____    ______ ____
ROOT
ATOM      1  C   UNL     1       3.564   4.014  18.823  0.00  0.00    +0.000 A 
ATOM      2  C   UNL     1       3.848   4.670  17.669  0.00  0.00    +0.000 A 
ATOM      3  C   UNL     1       4.675   4.068  16.559  0.00  0.00    +0.000 C 
ATOM      4  N   UNL     1       3.399   5.969  17.435  0.00  0.00    +0.000 N 
ATOM      5  C   UNL     1       2.771   6.682  18.394  0.00  0.00    +0.000 A 
ATOM      6  C   UNL     1       2.377   7.989  18.519  0.00  0.00    +0.000 A 
ATOM      7  C   UNL     1       1.890   8.093  19.851  0.00  0.00    +0.000 A 
ATOM      8  N   UNL     1       1.862   6.897  20.458  0.00  0.00    +0.000 NA
ATOM      9  N   UNL     1       2.443   6.051  19.573  0.00  0.00    +0.000 N 
ATOM     10  C   UNL     1       2.736   4.713  19.870  0.00  0.00    +0.000 A 
ATOM     11  O   UNL     1       2.366   4.193  20.918  0.00  0.00    +0.000 OA
ATOM     12  H   UNL     1       3.706   6.405  16.568  0.00  0.00    +0.000 HD
ENDROOT
BRANCH   7  13
ATOM     13  C   UNL     1       1.415   9.286  20.632  0.00  0.00    +0.000 C 
ATOM     14  C   UNL     1       1.154   8.941  22.098  0.00  0.00    +0.000 C 
ATOM     15  C   UNL     1      -0.363   8.935  22.181  0.00  0.00    +0.000 C 
ATOM     16  N   UNL     1      -0.795  10.052  21.318  0.00  0.00    +0.000 NA
ATOM     17  C   UNL     1       0.106   9.938  20.146  0.00  0.00    +0.000 C 
BRANCH  16  18
ATOM     18  C   UNL     1      -0.630  11.336  22.029  0.00  0.00    +0.000 C 
BRANCH  18  19
ATOM     19  C   UNL     1      -1.908  12.135  22.202  0.00  0.00    +0.000 A 
ATOM     20  C   UNL     1      -2.662  11.961  23.371  0.00  0.00    +0.000 A 
ATOM     21  C   UNL     1      -3.756  12.778  23.602  0.00  0.00    +0.000 A 
ATOM     22  N   UNL     1      -4.147  13.757  22.763  0.00  0.00    +0.000 NA
ATOM     23  C   UNL     1      -3.422  13.905  21.634  0.00  0.00    +0.000 A 
ATOM     24  C   UNL     1      -2.319  13.124  21.287  0.00  0.00    +0.000 A 
ATOM     25  C   UNL     1      -1.601  13.417  20.003  0.00  0.00    +0.000 C 
ENDBRANCH  18  19
ENDBRANCH  16  18
ENDBRANCH   7  13
BRANCH   1  27
ATOM     26  C   UNL     1       3.300   1.523  18.571  0.00  0.00    +0.000 C 
ATOM     27  C   UNL     1       4.065   2.654  19.238  0.00  0.00    +0.000 C 
ENDBRANCH   1  27
TORSDOF 4
ENDMDL
