MODEL 1
REMARK VINA RESULT:      -7.0      0.000      0.000
REMARK  Name = 
REMARK  8 active torsions:
REMARK  status: ('A' for Active; 'I' for Inactive)
REMARK    1  A    between atoms: C_1  and  O_2
REMARK    2  A    between atoms: O_2  and  C_3
REMARK    3  A    between atoms: C_7  and  C_8
REMARK    4  A    between atoms: N_13  and  C_14
REMARK    5  A    between atoms: C_14  and  C_15
REMARK    6  A    between atoms: C_15  and  N_16
REMARK    7  A    between atoms: C_15  and  C_17
REMARK    8  A    between atoms: C_25  and  C_26
REMARK                            x       y       z     vdW  Elec       q    Type
REMARK                         _______ _______ _______ _____ _____    ______ ____
ROOT
ATOM      1  C   UNL     1      -0.611  10.910  20.104  0.00  0.00    +0.000 A 
ATOM      2  C   UNL     1      -1.665  11.012  19.290  0.00  0.00    +0.000 A 
ATOM      3  N   UNL     1      -2.545  12.043  19.360  0.00  0.00    +0.000 N 
ATOM      4  C   UNL     1      -2.369  13.154  20.147  0.00  0.00    +0.000 A 
ATOM      5  O   UNL     1      -3.100  14.142  20.077  0.00  0.00    +0.000 OA
ATOM      6  N   UNL     1      -1.298  13.076  21.036  0.00  0.00    +0.000 N 
ATOM      7  C   UNL     1      -0.441  11.984  21.124  0.00  0.00    +0.000 A 
ATOM      8  O   UNL     1       0.421  11.879  21.995  0.00  0.00    +0.000 OA
ATOM      9  C   UNL     1      -3.588  11.873  18.364  0.00  0.00    +0.000 C 
ATOM     10  C   UNL     1      -3.314  10.451  17.871  0.00  0.00    +0.000 C 
ATOM     11  O   UNL     1      -1.972  10.113  18.284  0.00  0.00    +0.000 OA
ENDROOT
BRANCH   1  16
ATOM     12  C   UNL     1       1.956   8.537  18.706  0.00  0.00    +0.000 A 
ATOM     13  C   UNL     1       2.038   7.600  19.739  0.00  0.00    +0.000 A 
ATOM     14  C   UNL     1       1.276   7.749  20.899  0.00  0.00    +0.000 A 
ATOM     15  C   UNL     1       0.418   8.840  21.031  0.00  0.00    +0.000 A 
ATOM     16  C   UNL     1       0.325   9.784  20.002  0.00  0.00    +0.000 A 
ATOM     17  C   UNL     1       1.099   9.630  18.841  0.00  0.00    +0.000 A 
BRANCH  12  19
ATOM     18  C   UNL     1       3.613   7.148  17.724  0.00  0.00    +0.000 C 
ATOM     19  O   UNL     1       2.747   8.272  17.622  0.00  0.00    +0.000 OA
ENDBRANCH  12  19
ENDBRANCH   1  16
BRANCH   9  20
ATOM     20  C   UNL     1      -4.980  12.052  18.932  0.00  0.00    +0.000 A 
ATOM     21  C   UNL     1      -5.985  12.634  18.146  0.00  0.00    +0.000 A 
ATOM     22  C   UNL     1      -7.243  12.900  18.689  0.00  0.00    +0.000 A 
ATOM     23  C   UNL     1      -7.512  12.583  20.019  0.00  0.00    +0.000 A 
ATOM     24  C   UNL     1      -6.529  11.990  20.806  0.00  0.00    +0.000 A 
ATOM     25  C   UNL     1      -5.271  11.726  20.269  0.00  0.00    +0.000 A 
ENDBRANCH   9  20
BRANCH   6  26
ATOM     26  C   UNL     1      -1.106  14.188  21.970  0.00  0.00    +0.000 C 
BRANCH  26  27
ATOM     27  C   UNL     1      -1.499  13.840  23.435  0.00  0.00    +0.000 C 
BRANCH  27  28
ATOM     28  C   UNL     1      -3.015  13.782  23.558  0.00  0.00    +0.000 A 
ATOM     29  C   UNL     1      -3.774  14.936  23.306  0.00  0.00    +0.000 A 
ATOM     30  C   UNL     1      -5.164  14.928  23.459  0.00  0.00    +0.000 A 
ATOM     31  C   UNL     1      -5.815  13.766  23.869  0.00  0.00    +0.000 A 
ATOM     32  C   UNL     1      -5.079  12.611  24.119  0.00  0.00    +0.000 A 
ATOM     33  C   UNL     1      -3.690  12.619  23.969  0.00  0.00    +0.000 A 
ENDBRANCH  27  28
BRANCH  27  34
ATOM     34  N   UNL     1      -0.919  14.757  24.432  0.00  0.00    +0.000 NA
ATOM     35  H   UNL     1       0.099  14.759  24.317  0.00  0.00    +0.000 HD
ATOM     36  H   UNL     1      -1.046  14.357  25.360  0.00  0.00    +0.000 HD
ENDBRANCH  27  34
ENDBRANCH  26  27
ENDBRANCH   6  26
TORSDOF 7
ENDMDL
MODEL 2
REMARK VINA RESULT:      -7.0      3.104      6.973
REMARK  Name = 
REMARK  8 active torsions:
REMARK  status: ('A' for Active; 'I' for Inactive)
REMARK    1  A    between atoms: C_1  and  O_2
REMARK    2  A    between atoms: O_2  and  C_3
REMARK    3  A    between atoms: C_7  and  C_8
REMARK    4  A    between atoms: N_13  and  C_14
REMARK    5  A    between atoms: C_14  and  C_15
REMARK    6  A    between atoms: C_15  and  N_16
REMARK    7  A    between atoms: C_15  and  C_17
REMARK    8  A    between atoms: C_25  and  C_26
REMARK                            x       y       z     vdW  Elec       q    Type
REMARK                         _______ _______ _______ _____ _____    ______ ____
ROOT
ATOM      1  C   UNL     1       1.209  13.753  20.882  0.00  0.00    +0.000 A 
ATOM      2  C   UNL     1       0.398  13.999  21.915  0.00  0.00    +0.000 A 
ATOM      3  N   UNL     1      -0.553  13.120  22.323  0.00  0.00    +0.000 N 
ATOM      4  C   UNL     1      -0.681  11.842  21.836  0.00  0.00    +0.000 A 
ATOM      5  O   UNL     1      -1.448  11.016  22.330  0.00  0.00    +0.000 OA
ATOM      6  N   UNL     1       0.126  11.554  20.737  0.00  0.00    +0.000 N 
ATOM      7  C   UNL     1       1.019  12.458  20.170  0.00  0.00    +0.000 A 
ATOM      8  O   UNL     1       1.630  12.229  19.127  0.00  0.00    +0.000 OA
ATOM      9  C   UNL     1      -1.284  13.669  23.451  0.00  0.00    +0.000 C 
ATOM     10  C   UNL     1      -0.774  15.111  23.476  0.00  0.00    +0.000 C 
ATOM     11  O   UNL     1       0.438  15.143  22.692  0.00  0.00    +0.000 OA
ENDROOT
BRANCH   1  16
ATOM     12  C   UNL     1       2.871  16.616  19.090  0.00  0.00    +0.000 A 
ATOM     13  C   UNL     1       4.173  16.517  19.588  0.00  0.00    +0.000 A 
ATOM     14  C   UNL     1       4.507  15.534  20.521  0.00  0.00    +0.000 A 
ATOM     15  C   UNL     1       3.536  14.636  20.961  0.00  0.00    +0.000 A 
ATOM     16  C   UNL     1       2.229  14.722  20.467  0.00  0.00    +0.000 A 
ATOM     17  C   UNL     1       1.901  15.717  19.534  0.00  0.00    +0.000 A 
BRANCH  12  19
ATOM     18  C   UNL     1       1.364  17.748  17.646  0.00  0.00    +0.000 C 
ATOM     19  O   UNL     1       2.677  17.615  18.176  0.00  0.00    +0.000 OA
ENDBRANCH  12  19
ENDBRANCH   1  16
BRANCH   9  20
ATOM     20  C   UNL     1      -2.786  13.567  23.286  0.00  0.00    +0.000 A 
ATOM     21  C   UNL     1      -3.422  14.265  22.248  0.00  0.00    +0.000 A 
ATOM     22  C   UNL     1      -4.813  14.265  22.145  0.00  0.00    +0.000 A 
ATOM     23  C   UNL     1      -5.584  13.564  23.070  0.00  0.00    +0.000 A 
ATOM     24  C   UNL     1      -4.965  12.853  24.095  0.00  0.00    +0.000 A 
ATOM     25  C   UNL     1      -3.576  12.854  24.204  0.00  0.00    +0.000 A 
ENDBRANCH   9  20
BRANCH   6  26
ATOM     26  C   UNL     1      -0.024  10.238  20.109  0.00  0.00    +0.000 C 
BRANCH  26  27
ATOM     27  C   UNL     1       0.689   9.096  20.890  0.00  0.00    +0.000 C 
BRANCH  27  28
ATOM     28  C   UNL     1       1.560   8.290  19.938  0.00  0.00    +0.000 A 
ATOM     29  C   UNL     1       1.846   8.800  18.661  0.00  0.00    +0.000 A 
ATOM     30  C   UNL     1       2.602   8.062  17.747  0.00  0.00    +0.000 A 
ATOM     31  C   UNL     1       3.081   6.801  18.093  0.00  0.00    +0.000 A 
ATOM     32  C   UNL     1       2.811   6.280  19.356  0.00  0.00    +0.000 A 
ATOM     33  C   UNL     1       2.053   7.016  20.270  0.00  0.00    +0.000 A 
ENDBRANCH  27  28
BRANCH  27  34
ATOM     34  N   UNL     1      -0.240   8.224  21.631  0.00  0.00    +0.000 NA
ATOM     35  H   UNL     1       0.278   7.403  21.959  0.00  0.00    +0.000 HD
ATOM     36  H   UNL     1      -0.912   7.827  20.977  0.00  0.00    +0.000 HD
ENDBRANCH  27  34
ENDBRANCH  26  27
ENDBRANCH   6  26
TORSDOF 7
ENDMDL
MODEL 3
REMARK VINA RESULT:      -7.0      2.976      6.822
REMARK  Name = 
REMARK  8 active torsions:
REMARK  status: ('A' for Active; 'I' for Inactive)
REMARK    1  A    between atoms: C_1  and  O_2
REMARK    2  A    between atoms: O_2  and  C_3
REMARK    3  A    between atoms: C_7  and  C_8
REMARK    4  A    between atoms: N_13  and  C_14
REMARK    5  A    between atoms: C_14  and  C_15
REMARK    6  A    between atoms: C_15  and  N_16
REMARK    7  A    between atoms: C_15  and  C_17
REMARK    8  A    between atoms: C_25  and  C_26
REMARK                            x       y       z     vdW  Elec       q    Type
REMARK                         _______ _______ _______ _____ _____    ______ ____
ROOT
ATOM      1  C   UNL     1      -0.278  14.399  20.114  0.00  0.00    +0.000 A 
ATOM      2  C   UNL     1      -0.948  14.619  21.249  0.00  0.00    +0.000 A 
ATOM      3  N   UNL     1      -1.502  13.616  21.976  0.00  0.00    +0.000 N 
ATOM      4  C   UNL     1      -1.306  12.281  21.723  0.00  0.00    +0.000 A 
ATOM      5  O   UNL     1      -1.691  11.396  22.487  0.00  0.00    +0.000 OA
ATOM      6  N   UNL     1      -0.638  12.006  20.532  0.00  0.00    +0.000 N 
ATOM      7  C   UNL     1      -0.171  12.984  19.659  0.00  0.00    +0.000 A 
ATOM      8  O   UNL     1       0.305  12.723  18.556  0.00  0.00    +0.000 OA
ATOM      9  C   UNL     1      -2.176  14.163  23.142  0.00  0.00    +0.000 C 
ATOM     10  C   UNL     1      -2.139  15.663  22.843  0.00  0.00    +0.000 C 
ATOM     11  O   UNL     1      -1.139  15.865  21.821  0.00  0.00    +0.000 OA
ENDROOT
BRANCH   1  16
ATOM     12  C   UNL     1       2.246  16.870  18.813  0.00  0.00    +0.000 A 
ATOM     13  C   UNL     1       1.440  17.660  17.989  0.00  0.00    +0.000 A 
ATOM     14  C   UNL     1       0.081  17.378  17.840  0.00  0.00    +0.000 A 
ATOM     15  C   UNL     1      -0.484  16.301  18.521  0.00  0.00    +0.000 A 
ATOM     16  C   UNL     1       0.312  15.505  19.352  0.00  0.00    +0.000 A 
ATOM     17  C   UNL     1       1.679  15.792  19.492  0.00  0.00    +0.000 A 
BRANCH  12  19
ATOM     18  C   UNL     1       4.490  16.273  19.310  0.00  0.00    +0.000 C 
ATOM     19  O   UNL     1       3.557  17.257  18.880  0.00  0.00    +0.000 OA
ENDBRANCH  12  19
ENDBRANCH   1  16
BRANCH   9  20
ATOM     20  C   UNL     1      -3.579  13.621  23.319  0.00  0.00    +0.000 A 
ATOM     21  C   UNL     1      -4.568  13.922  22.370  0.00  0.00    +0.000 A 
ATOM     22  C   UNL     1      -5.888  13.518  22.572  0.00  0.00    +0.000 A 
ATOM     23  C   UNL     1      -6.234  12.805  23.717  0.00  0.00    +0.000 A 
ATOM     24  C   UNL     1      -5.260  12.484  24.659  0.00  0.00    +0.000 A 
ATOM     25  C   UNL     1      -3.941  12.889  24.463  0.00  0.00    +0.000 A 
ENDBRANCH   9  20
BRANCH   6  26
ATOM     26  C   UNL     1      -0.473  10.600  20.153  0.00  0.00    +0.000 C 
BRANCH  26  27
ATOM     27  C   UNL     1       0.704   9.896  20.889  0.00  0.00    +0.000 C 
BRANCH  27  28
ATOM     28  C   UNL     1       1.414   8.948  19.932  0.00  0.00    +0.000 A 
ATOM     29  C   UNL     1       1.601   9.328  18.594  0.00  0.00    +0.000 A 
ATOM     30  C   UNL     1       2.205   8.460  17.679  0.00  0.00    +0.000 A 
ATOM     31  C   UNL     1       2.627   7.198  18.089  0.00  0.00    +0.000 A 
ATOM     32  C   UNL     1       2.454   6.805  19.414  0.00  0.00    +0.000 A 
ATOM     33  C   UNL     1       1.848   7.671  20.328  0.00  0.00    +0.000 A 
ENDBRANCH  27  28
BRANCH  27  34
ATOM     34  N   UNL     1       0.293   9.200  22.121  0.00  0.00    +0.000 NA
ATOM     35  H   UNL     1       1.072   8.615  22.438  0.00  0.00    +0.000 HD
ATOM     36  H   UNL     1      -0.429   8.520  21.890  0.00  0.00    +0.000 HD
ENDBRANCH  27  34
ENDBRANCH  26  27
ENDBRANCH   6  26
TORSDOF 7
ENDMDL
MODEL 4
REMARK VINA RESULT:      -6.9      7.505     11.771
REMARK  Name = 
REMARK  8 active torsions:
REMARK  status: ('A' for Active; 'I' for Inactive)
REMARK    1  A    between atoms: C_1  and  O_2
REMARK    2  A    between atoms: O_2  and  C_3
REMARK    3  A    between atoms: C_7  and  C_8
REMARK    4  A    between atoms: N_13  and  C_14
REMARK    5  A    between atoms: C_14  and  C_15
REMARK    6  A    between atoms: C_15  and  N_16
REMARK    7  A    between atoms: C_15  and  C_17
REMARK    8  A    between atoms: C_25  and  C_26
REMARK                            x       y       z     vdW  Elec       q    Type
REMARK                         _______ _______ _______ _____ _____    ______ ____
ROOT
ATOM      1  C   UNL     1       4.432  15.244  19.863  0.00  0.00    +0.000 A 
ATOM      2  C   UNL     1       4.761  15.337  21.154  0.00  0.00    +0.000 A 
ATOM      3  N   UNL     1       6.027  15.139  21.601  0.00  0.00    +0.000 N 
ATOM      4  C   UNL     1       7.118  14.984  20.782  0.00  0.00    +0.000 A 
ATOM      5  O   UNL     1       8.272  14.962  21.208  0.00  0.00    +0.000 OA
ATOM      6  N   UNL     1       6.816  14.851  19.428  0.00  0.00    +0.000 N 
ATOM      7  C   UNL     1       5.525  14.894  18.912  0.00  0.00    +0.000 A 
ATOM      8  O   UNL     1       5.267  14.651  17.734  0.00  0.00    +0.000 OA
ATOM      9  C   UNL     1       6.073  15.290  23.045  0.00  0.00    +0.000 C 
ATOM     10  C   UNL     1       4.584  15.360  23.394  0.00  0.00    +0.000 C 
ATOM     11  O   UNL     1       3.878  15.658  22.170  0.00  0.00    +0.000 OA
ENDROOT
BRANCH   1  16
ATOM     12  C   UNL     1       1.345  16.983  18.591  0.00  0.00    +0.000 A 
ATOM     13  C   UNL     1       0.417  15.940  18.638  0.00  0.00    +0.000 A 
ATOM     14  C   UNL     1       0.798  14.666  19.063  0.00  0.00    +0.000 A 
ATOM     15  C   UNL     1       2.115  14.428  19.450  0.00  0.00    +0.000 A 
ATOM     16  C   UNL     1       3.053  15.466  19.410  0.00  0.00    +0.000 A 
ATOM     17  C   UNL     1       2.663  16.742  18.976  0.00  0.00    +0.000 A 
BRANCH  12  19
ATOM     18  C   UNL     1       1.030  18.499  16.790  0.00  0.00    +0.000 C 
ATOM     19  O   UNL     1       0.843  18.183  18.164  0.00  0.00    +0.000 OA
ENDBRANCH  12  19
ENDBRANCH   1  16
BRANCH   9  20
ATOM     20  C   UNL     1       6.797  14.152  23.733  0.00  0.00    +0.000 A 
ATOM     21  C   UNL     1       6.376  12.830  23.526  0.00  0.00    +0.000 A 
ATOM     22  C   UNL     1       6.965  11.781  24.232  0.00  0.00    +0.000 A 
ATOM     23  C   UNL     1       7.984  12.038  25.147  0.00  0.00    +0.000 A 
ATOM     24  C   UNL     1       8.423  13.343  25.350  0.00  0.00    +0.000 A 
ATOM     25  C   UNL     1       7.835  14.394  24.651  0.00  0.00    +0.000 A 
ENDBRANCH   9  20
BRANCH   6  26
ATOM     26  C   UNL     1       7.925  14.592  18.505  0.00  0.00    +0.000 C 
BRANCH  26  27
ATOM     27  C   UNL     1       8.090  13.087  18.145  0.00  0.00    +0.000 C 
BRANCH  27  28
ATOM     28  C   UNL     1       9.498  12.627  18.496  0.00  0.00    +0.000 A 
ATOM     29  C   UNL     1       9.803  12.284  19.823  0.00  0.00    +0.000 A 
ATOM     30  C   UNL     1      11.098  11.905  20.187  0.00  0.00    +0.000 A 
ATOM     31  C   UNL     1      12.109  11.866  19.229  0.00  0.00    +0.000 A 
ATOM     32  C   UNL     1      11.824  12.198  17.907  0.00  0.00    +0.000 A 
ATOM     33  C   UNL     1      10.530  12.580  17.544  0.00  0.00    +0.000 A 
ENDBRANCH  27  28
BRANCH  27  34
ATOM     34  N   UNL     1       7.764  12.780  16.741  0.00  0.00    +0.000 NA
ATOM     35  H   UNL     1       7.084  12.015  16.726  0.00  0.00    +0.000 HD
ATOM     36  H   UNL     1       8.583  12.372  16.294  0.00  0.00    +0.000 HD
ENDBRANCH  27  34
ENDBRANCH  26  27
ENDBRANCH   6  26
TORSDOF 7
ENDMDL
MODEL 5
REMARK VINA RESULT:      -6.9      3.538      7.001
REMARK  Name = 
REMARK  8 active torsions:
REMARK  status: ('A' for Active; 'I' for Inactive)
REMARK    1  A    between atoms: C_1  and  O_2
REMARK    2  A    between atoms: O_2  and  C_3
REMARK    3  A    between atoms: C_7  and  C_8
REMARK    4  A    between atoms: N_13  and  C_14
REMARK    5  A    between atoms: C_14  and  C_15
REMARK    6  A    between atoms: C_15  and  N_16
REMARK    7  A    between atoms: C_15  and  C_17
REMARK    8  A    between atoms: C_25  and  C_26
REMARK                            x       y       z     vdW  Elec       q    Type
REMARK                         _______ _______ _______ _____ _____    ______ ____
ROOT
ATOM      1  C   UNL     1       1.532  13.328  20.053  0.00  0.00    +0.000 A 
ATOM      2  C   UNL     1       0.727  13.689  21.056  0.00  0.00    +0.000 A 
ATOM      3  N   UNL     1      -0.121  12.818  21.661  0.00  0.00    +0.000 N 
ATOM      4  C   UNL     1      -0.134  11.465  21.425  0.00  0.00    +0.000 A 
ATOM      5  O   UNL     1      -0.803  10.680  22.096  0.00  0.00    +0.000 OA
ATOM      6  N   UNL     1       0.670  11.050  20.365  0.00  0.00    +0.000 N 
ATOM      7  C   UNL     1       1.454  11.910  19.602  0.00  0.00    +0.000 A 
ATOM      8  O   UNL     1       2.059  11.546  18.595  0.00  0.00    +0.000 OA
ATOM      9  C   UNL     1      -0.875  13.500  22.698  0.00  0.00    +0.000 C 
ATOM     10  C   UNL     1      -0.511  14.962  22.433  0.00  0.00    +0.000 C 
ATOM     11  O   UNL     1       0.672  14.957  21.605  0.00  0.00    +0.000 OA
ENDROOT
BRANCH   1  16
ATOM     12  C   UNL     1       4.630  15.337  19.316  0.00  0.00    +0.000 A 
ATOM     13  C   UNL     1       4.161  16.183  18.308  0.00  0.00    +0.000 A 
ATOM     14  C   UNL     1       2.844  16.088  17.853  0.00  0.00    +0.000 A 
ATOM     15  C   UNL     1       1.983  15.144  18.410  0.00  0.00    +0.000 A 
ATOM     16  C   UNL     1       2.441  14.292  19.422  0.00  0.00    +0.000 A 
ATOM     17  C   UNL     1       3.767  14.391  19.869  0.00  0.00    +0.000 A 
BRANCH  12  19
ATOM     18  C   UNL     1       6.804  16.041  18.669  0.00  0.00    +0.000 C 
ATOM     19  O   UNL     1       5.934  15.537  19.676  0.00  0.00    +0.000 OA
ENDBRANCH  12  19
ENDBRANCH   1  16
BRANCH   9  20
ATOM     20  C   UNL     1      -2.363  13.229  22.619  0.00  0.00    +0.000 A 
ATOM     21  C   UNL     1      -3.052  13.466  21.420  0.00  0.00    +0.000 A 
ATOM     22  C   UNL     1      -4.439  13.321  21.361  0.00  0.00    +0.000 A 
ATOM     23  C   UNL     1      -5.151  12.933  22.494  0.00  0.00    +0.000 A 
ATOM     24  C   UNL     1      -4.478  12.678  23.686  0.00  0.00    +0.000 A 
ATOM     25  C   UNL     1      -3.094  12.826  23.751  0.00  0.00    +0.000 A 
ENDBRANCH   9  20
BRANCH   6  26
ATOM     26  C   UNL     1       0.636   9.631  19.999  0.00  0.00    +0.000 C 
BRANCH  26  27
ATOM     27  C   UNL     1       1.737   8.786  20.702  0.00  0.00    +0.000 C 
BRANCH  27  28
ATOM     28  C   UNL     1       1.938   7.478  19.950  0.00  0.00    +0.000 A 
ATOM     29  C   UNL     1       1.676   6.260  20.598  0.00  0.00    +0.000 A 
ATOM     30  C   UNL     1       1.898   5.041  19.952  0.00  0.00    +0.000 A 
ATOM     31  C   UNL     1       2.388   5.022  18.648  0.00  0.00    +0.000 A 
ATOM     32  C   UNL     1       2.650   6.220  17.987  0.00  0.00    +0.000 A 
ATOM     33  C   UNL     1       2.431   7.438  18.635  0.00  0.00    +0.000 A 
ENDBRANCH  27  28
BRANCH  27  34
ATOM     34  N   UNL     1       1.467   8.542  22.131  0.00  0.00    +0.000 NA
ATOM     35  H   UNL     1       1.418   9.446  22.610  0.00  0.00    +0.000 HD
ATOM     36  H   UNL     1       2.283   8.101  22.550  0.00  0.00    +0.000 HD
ENDBRANCH  27  34
ENDBRANCH  26  27
ENDBRANCH   6  26
TORSDOF 7
ENDMDL
MODEL 6
REMARK VINA RESULT:      -6.9      3.377      7.069
REMARK  Name = 
REMARK  8 active torsions:
REMARK  status: ('A' for Active; 'I' for Inactive)
REMARK    1  A    between atoms: C_1  and  O_2
REMARK    2  A    between atoms: O_2  and  C_3
REMARK    3  A    between atoms: C_7  and  C_8
REMARK    4  A    between atoms: N_13  and  C_14
REMARK    5  A    between atoms: C_14  and  C_15
REMARK    6  A    between atoms: C_15  and  N_16
REMARK    7  A    between atoms: C_15  and  C_17
REMARK    8  A    between atoms: C_25  and  C_26
REMARK                            x       y       z     vdW  Elec       q    Type
REMARK                         _______ _______ _______ _____ _____    ______ ____
ROOT
ATOM      1  C   UNL     1       1.477  13.714  20.188  0.00  0.00    +0.000 A 
ATOM      2  C   UNL     1       0.691  14.070  21.208  0.00  0.00    +0.000 A 
ATOM      3  N   UNL     1      -0.175  13.208  21.799  0.00  0.00    +0.000 N 
ATOM      4  C   UNL     1      -0.227  11.863  21.530  0.00  0.00    +0.000 A 
ATOM      5  O   UNL     1      -0.911  11.079  22.188  0.00  0.00    +0.000 OA
ATOM      6  N   UNL     1       0.555  11.453  20.452  0.00  0.00    +0.000 N 
ATOM      7  C   UNL     1       1.355  12.310  19.703  0.00  0.00    +0.000 A 
ATOM      8  O   UNL     1       1.940  11.955  18.681  0.00  0.00    +0.000 OA
ATOM      9  C   UNL     1      -0.900  13.884  22.861  0.00  0.00    +0.000 C 
ATOM     10  C   UNL     1      -0.498  15.342  22.629  0.00  0.00    +0.000 C 
ATOM     11  O   UNL     1       0.676  15.326  21.789  0.00  0.00    +0.000 OA
ENDROOT
BRANCH   1  16
ATOM     12  C   UNL     1       2.784  16.541  18.074  0.00  0.00    +0.000 A 
ATOM     13  C   UNL     1       4.156  16.435  18.311  0.00  0.00    +0.000 A 
ATOM     14  C   UNL     1       4.656  15.458  19.174  0.00  0.00    +0.000 A 
ATOM     15  C   UNL     1       3.782  14.574  19.805  0.00  0.00    +0.000 A 
ATOM     16  C   UNL     1       2.405  14.669  19.572  0.00  0.00    +0.000 A 
ATOM     17  C   UNL     1       1.910  15.657  18.708  0.00  0.00    +0.000 A 
BRANCH  12  19
ATOM     18  C   UNL     1       1.076  17.984  17.271  0.00  0.00    +0.000 C 
ATOM     19  O   UNL     1       2.424  17.533  17.203  0.00  0.00    +0.000 OA
ENDBRANCH  12  19
ENDBRANCH   1  16
BRANCH   9  20
ATOM     20  C   UNL     1      -2.395  13.656  22.791  0.00  0.00    +0.000 A 
ATOM     21  C   UNL     1      -3.075  13.136  23.902  0.00  0.00    +0.000 A 
ATOM     22  C   UNL     1      -4.433  12.824  23.819  0.00  0.00    +0.000 A 
ATOM     23  C   UNL     1      -5.127  13.034  22.629  0.00  0.00    +0.000 A 
ATOM     24  C   UNL     1      -4.469  13.565  21.523  0.00  0.00    +0.000 A 
ATOM     25  C   UNL     1      -3.113  13.874  21.601  0.00  0.00    +0.000 A 
ENDBRANCH   9  20
BRANCH   6  26
ATOM     26  C   UNL     1       0.478  10.045  20.051  0.00  0.00    +0.000 C 
BRANCH  26  27
ATOM     27  C   UNL     1       1.398   9.113  20.892  0.00  0.00    +0.000 C 
BRANCH  27  28
ATOM     28  C   UNL     1       1.823   7.918  20.051  0.00  0.00    +0.000 A 
ATOM     29  C   UNL     1       2.161   8.107  18.701  0.00  0.00    +0.000 A 
ATOM     30  C   UNL     1       2.507   7.022  17.890  0.00  0.00    +0.000 A 
ATOM     31  C   UNL     1       2.518   5.732  18.416  0.00  0.00    +0.000 A 
ATOM     32  C   UNL     1       2.191   5.526  19.754  0.00  0.00    +0.000 A 
ATOM     33  C   UNL     1       1.842   6.609  20.564  0.00  0.00    +0.000 A 
ENDBRANCH  27  28
BRANCH  27  34
ATOM     34  N   UNL     1       0.791   8.681  22.163  0.00  0.00    +0.000 NA
ATOM     35  H   UNL     1       1.460   8.858  22.919  0.00  0.00    +0.000 HD
ATOM     36  H   UNL     1       0.706   7.667  22.160  0.00  0.00    +0.000 HD
ENDBRANCH  27  34
ENDBRANCH  26  27
ENDBRANCH   6  26
TORSDOF 7
ENDMDL
MODEL 7
REMARK VINA RESULT:      -6.8      7.415     11.649
REMARK  Name = 
REMARK  8 active torsions:
REMARK  status: ('A' for Active; 'I' for Inactive)
REMARK    1  A    between atoms: C_1  and  O_2
REMARK    2  A    between atoms: O_2  and  C_3
REMARK    3  A    between atoms: C_7  and  C_8
REMARK    4  A    between atoms: N_13  and  C_14
REMARK    5  A    between atoms: C_14  and  C_15
REMARK    6  A    between atoms: C_15  and  N_16
REMARK    7  A    between atoms: C_15  and  C_17
REMARK    8  A    between atoms: C_25  and  C_26
REMARK                            x       y       z     vdW  Elec       q    Type
REMARK                         _______ _______ _______ _____ _____    ______ ____
ROOT
ATOM      1  C   UNL     1       4.499  15.454  19.950  0.00  0.00    +0.000 A 
ATOM      2  C   UNL     1       4.804  15.478  21.250  0.00  0.00    +0.000 A 
ATOM      3  N   UNL     1       6.050  15.202  21.713  0.00  0.00    +0.000 N 
ATOM      4  C   UNL     1       7.150  15.027  20.909  0.00  0.00    +0.000 A 
ATOM      5  O   UNL     1       8.293  14.932  21.356  0.00  0.00    +0.000 OA
ATOM      6  N   UNL     1       6.871  14.964  19.545  0.00  0.00    +0.000 N 
ATOM      7  C   UNL     1       5.594  15.090  19.007  0.00  0.00    +0.000 A 
ATOM      8  O   UNL     1       5.350  14.908  17.815  0.00  0.00    +0.000 OA
ATOM      9  C   UNL     1       6.072  15.292  23.162  0.00  0.00    +0.000 C 
ATOM     10  C   UNL     1       4.582  15.419  23.486  0.00  0.00    +0.000 C 
ATOM     11  O   UNL     1       3.917  15.800  22.262  0.00  0.00    +0.000 OA
ENDROOT
BRANCH   1  16
ATOM     12  C   UNL     1       0.924  14.991  18.866  0.00  0.00    +0.000 A 
ATOM     13  C   UNL     1       0.588  16.297  18.500  0.00  0.00    +0.000 A 
ATOM     14  C   UNL     1       1.517  17.332  18.624  0.00  0.00    +0.000 A 
ATOM     15  C   UNL     1       2.794  17.065  19.114  0.00  0.00    +0.000 A 
ATOM     16  C   UNL     1       3.142  15.760  19.481  0.00  0.00    +0.000 A 
ATOM     17  C   UNL     1       2.202  14.726  19.358  0.00  0.00    +0.000 A 
BRANCH  12  19
ATOM     18  C   UNL     1       0.318  12.701  18.697  0.00  0.00    +0.000 C 
ATOM     19  O   UNL     1      -0.071  14.069  18.687  0.00  0.00    +0.000 OA
ENDBRANCH  12  19
ENDBRANCH   1  16
BRANCH   9  20
ATOM     20  C   UNL     1       6.727  14.093  23.817  0.00  0.00    +0.000 A 
ATOM     21  C   UNL     1       7.776  14.282  24.728  0.00  0.00    +0.000 A 
ATOM     22  C   UNL     1       8.458  13.187  25.260  0.00  0.00    +0.000 A 
ATOM     23  C   UNL     1       8.095  11.893  24.894  0.00  0.00    +0.000 A 
ATOM     24  C   UNL     1       7.044  11.689  24.004  0.00  0.00    +0.000 A 
ATOM     25  C   UNL     1       6.364  12.780  23.467  0.00  0.00    +0.000 A 
ENDBRANCH   9  20
BRANCH   6  26
ATOM     26  C   UNL     1       7.985  14.689  18.634  0.00  0.00    +0.000 C 
BRANCH  26  27
ATOM     27  C   UNL     1       8.131  13.182  18.274  0.00  0.00    +0.000 C 
BRANCH  27  28
ATOM     28  C   UNL     1       9.534  12.704  18.624  0.00  0.00    +0.000 A 
ATOM     29  C   UNL     1      10.498  12.588  17.610  0.00  0.00    +0.000 A 
ATOM     30  C   UNL     1      11.779  12.106  17.891  0.00  0.00    +0.000 A 
ATOM     31  C   UNL     1      12.115  11.730  19.190  0.00  0.00    +0.000 A 
ATOM     32  C   UNL     1      11.173  11.843  20.209  0.00  0.00    +0.000 A 
ATOM     33  C   UNL     1       9.891  12.322  19.929  0.00  0.00    +0.000 A 
ENDBRANCH  27  28
BRANCH  27  34
ATOM     34  N   UNL     1       7.801  12.879  16.870  0.00  0.00    +0.000 NA
ATOM     35  H   UNL     1       7.122  13.572  16.540  0.00  0.00    +0.000 HD
ATOM     36  H   UNL     1       7.279  12.006  16.835  0.00  0.00    +0.000 HD
ENDBRANCH  27  34
ENDBRANCH  26  27
ENDBRANCH   6  26
TORSDOF 7
ENDMDL
MODEL 8
REMARK VINA RESULT:      -6.8      3.412      7.097
REMARK  Name = 
REMARK  8 active torsions:
REMARK  status: ('A' for Active; 'I' for Inactive)
REMARK    1  A    between atoms: C_1  and  O_2
REMARK    2  A    between atoms: O_2  and  C_3
REMARK    3  A    between atoms: C_7  and  C_8
REMARK    4  A    between atoms: N_13  and  C_14
REMARK    5  A    between atoms: C_14  and  C_15
REMARK    6  A    between atoms: C_15  and  N_16
REMARK    7  A    between atoms: C_15  and  C_17
REMARK    8  A    between atoms: C_25  and  C_26
REMARK                            x       y       z     vdW  Elec       q    Type
REMARK                         _______ _______ _______ _____ _____    ______ ____
ROOT
ATOM      1  C   UNL     1       1.483  13.574  20.162  0.00  0.00    +0.000 A 
ATOM      2  C   UNL     1       0.734  13.912  21.215  0.00  0.00    +0.000 A 
ATOM      3  N   UNL     1      -0.176  13.068  21.765  0.00  0.00    +0.000 N 
ATOM      4  C   UNL     1      -0.314  11.748  21.412  0.00  0.00    +0.000 A 
ATOM      5  O   UNL     1      -1.037  10.966  22.031  0.00  0.00    +0.000 OA
ATOM      6  N   UNL     1       0.426  11.362  20.297  0.00  0.00    +0.000 N 
ATOM      7  C   UNL     1       1.268  12.214  19.590  0.00  0.00    +0.000 A 
ATOM      8  O   UNL     1       1.817  11.891  18.538  0.00  0.00    +0.000 OA
ATOM      9  C   UNL     1      -0.844  13.716  22.880  0.00  0.00    +0.000 C 
ATOM     10  C   UNL     1      -0.355  15.159  22.734  0.00  0.00    +0.000 C 
ATOM     11  O   UNL     1       0.805  15.126  21.875  0.00  0.00    +0.000 OA
ENDROOT
BRANCH   1  16
ATOM     12  C   UNL     1       4.707  15.428  19.579  0.00  0.00    +0.000 A 
ATOM     13  C   UNL     1       4.314  16.338  18.596  0.00  0.00    +0.000 A 
ATOM     14  C   UNL     1       3.006  16.338  18.107  0.00  0.00    +0.000 A 
ATOM     15  C   UNL     1       2.079  15.424  18.604  0.00  0.00    +0.000 A 
ATOM     16  C   UNL     1       2.461  14.508  19.592  0.00  0.00    +0.000 A 
ATOM     17  C   UNL     1       3.778  14.512  20.074  0.00  0.00    +0.000 A 
BRANCH  12  19
ATOM     18  C   UNL     1       6.237  15.775  21.363  0.00  0.00    +0.000 C 
ATOM     19  O   UNL     1       6.011  15.538  19.979  0.00  0.00    +0.000 OA
ENDBRANCH  12  19
ENDBRANCH   1  16
BRANCH   9  20
ATOM     20  C   UNL     1      -2.351  13.585  22.820  0.00  0.00    +0.000 A 
ATOM     21  C   UNL     1      -3.043  12.996  23.889  0.00  0.00    +0.000 A 
ATOM     22  C   UNL     1      -4.418  12.774  23.805  0.00  0.00    +0.000 A 
ATOM     23  C   UNL     1      -5.118  13.144  22.658  0.00  0.00    +0.000 A 
ATOM     24  C   UNL     1      -4.447  13.745  21.597  0.00  0.00    +0.000 A 
ATOM     25  C   UNL     1      -3.073  13.965  21.675  0.00  0.00    +0.000 A 
ENDBRANCH   9  20
BRANCH   6  26
ATOM     26  C   UNL     1       0.258   9.990  19.809  0.00  0.00    +0.000 C 
BRANCH  26  27
ATOM     27  C   UNL     1       1.067   8.941  20.625  0.00  0.00    +0.000 C 
BRANCH  27  28
ATOM     28  C   UNL     1       1.846   8.042  19.675  0.00  0.00    +0.000 A 
ATOM     29  C   UNL     1       2.202   6.747  20.085  0.00  0.00    +0.000 A 
ATOM     30  C   UNL     1       2.960   5.915  19.255  0.00  0.00    +0.000 A 
ATOM     31  C   UNL     1       3.376   6.367  18.005  0.00  0.00    +0.000 A 
ATOM     32  C   UNL     1       3.028   7.648  17.580  0.00  0.00    +0.000 A 
ATOM     33  C   UNL     1       2.273   8.480  18.410  0.00  0.00    +0.000 A 
ENDBRANCH  27  28
BRANCH  27  34
ATOM     34  N   UNL     1       0.235   8.146  21.548  0.00  0.00    +0.000 NA
ATOM     35  H   UNL     1       0.606   7.192  21.577  0.00  0.00    +0.000 HD
ATOM     36  H   UNL     1      -0.688   8.025  21.137  0.00  0.00    +0.000 HD
ENDBRANCH  27  34
ENDBRANCH  26  27
ENDBRANCH   6  26
TORSDOF 7
ENDMDL
MODEL 9
REMARK VINA RESULT:      -6.8      3.311      6.909
REMARK  Name = 
REMARK  8 active torsions:
REMARK  status: ('A' for Active; 'I' for Inactive)
REMARK    1  A    between atoms: C_1  and  O_2
REMARK    2  A    between atoms: O_2  and  C_3
REMARK    3  A    between atoms: C_7  and  C_8
REMARK    4  A    between atoms: N_13  and  C_14
REMARK    5  A    between atoms: C_14  and  C_15
REMARK    6  A    between atoms: C_15  and  N_16
REMARK    7  A    between atoms: C_15  and  C_17
REMARK    8  A    between atoms: C_25  and  C_26
REMARK                            x       y       z     vdW  Elec       q    Type
REMARK                         _______ _______ _______ _____ _____    ______ ____
ROOT
ATOM      1  C   UNL     1       1.257  13.463  20.337  0.00  0.00    +0.000 A 
ATOM      2  C   UNL     1       0.471  13.809  21.360  0.00  0.00    +0.000 A 
ATOM      3  N   UNL     1      -0.341  12.922  21.990  0.00  0.00    +0.000 N 
ATOM      4  C   UNL     1      -0.328  11.568  21.760  0.00  0.00    +0.000 A 
ATOM      5  O   UNL     1      -0.961  10.770  22.451  0.00  0.00    +0.000 OA
ATOM      6  N   UNL     1       0.455  11.168  20.679  0.00  0.00    +0.000 N 
ATOM      7  C   UNL     1       1.199  12.042  19.893  0.00  0.00    +0.000 A 
ATOM      8  O   UNL     1       1.784  11.688  18.871  0.00  0.00    +0.000 OA
ATOM      9  C   UNL     1      -1.081  13.590  23.046  0.00  0.00    +0.000 C 
ATOM     10  C   UNL     1      -0.758  15.060  22.766  0.00  0.00    +0.000 C 
ATOM     11  O   UNL     1       0.402  15.079  21.906  0.00  0.00    +0.000 OA
ENDROOT
BRANCH   1  16
ATOM     12  C   UNL     1       4.319  15.455  19.426  0.00  0.00    +0.000 A 
ATOM     13  C   UNL     1       3.779  16.366  18.514  0.00  0.00    +0.000 A 
ATOM     14  C   UNL     1       2.425  16.320  18.179  0.00  0.00    +0.000 A 
ATOM     15  C   UNL     1       1.597  15.361  18.761  0.00  0.00    +0.000 A 
ATOM     16  C   UNL     1       2.125  14.446  19.678  0.00  0.00    +0.000 A 
ATOM     17  C   UNL     1       3.489  14.495  20.005  0.00  0.00    +0.000 A 
BRANCH  12  19
ATOM     18  C   UNL     1       6.056  15.596  21.040  0.00  0.00    +0.000 C 
ATOM     19  O   UNL     1       5.655  15.611  19.675  0.00  0.00    +0.000 OA
ENDBRANCH  12  19
ENDBRANCH   1  16
BRANCH   9  20
ATOM     20  C   UNL     1      -2.564  13.286  23.008  0.00  0.00    +0.000 A 
ATOM     21  C   UNL     1      -3.287  13.482  21.822  0.00  0.00    +0.000 A 
ATOM     22  C   UNL     1      -4.671  13.306  21.799  0.00  0.00    +0.000 A 
ATOM     23  C   UNL     1      -5.347  12.926  22.956  0.00  0.00    +0.000 A 
ATOM     24  C   UNL     1      -4.641  12.711  24.136  0.00  0.00    +0.000 A 
ATOM     25  C   UNL     1      -3.259  12.890  24.165  0.00  0.00    +0.000 A 
ENDBRANCH   9  20
BRANCH   6  26
ATOM     26  C   UNL     1       0.444   9.747  20.319  0.00  0.00    +0.000 C 
BRANCH  26  27
ATOM     27  C   UNL     1       1.620   8.942  20.944  0.00  0.00    +0.000 C 
BRANCH  27  28
ATOM     28  C   UNL     1       1.902   7.708  20.100  0.00  0.00    +0.000 A 
ATOM     29  C   UNL     1       2.309   7.862  18.765  0.00  0.00    +0.000 A 
ATOM     30  C   UNL     1       2.528   6.748  17.949  0.00  0.00    +0.000 A 
ATOM     31  C   UNL     1       2.342   5.463  18.456  0.00  0.00    +0.000 A 
ATOM     32  C   UNL     1       1.944   5.292  19.779  0.00  0.00    +0.000 A 
ATOM     33  C   UNL     1       1.721   6.404  20.594  0.00  0.00    +0.000 A 
ENDBRANCH  27  28
BRANCH  27  34
ATOM     34  N   UNL     1       1.400   8.582  22.357  0.00  0.00    +0.000 NA
ATOM     35  H   UNL     1       0.717   9.234  22.755  0.00  0.00    +0.000 HD
ATOM     36  H   UNL     1       2.247   8.783  22.884  0.00  0.00    +0.000 HD
ENDBRANCH  27  34
ENDBRANCH  26  27
ENDBRANCH   6  26
TORSDOF 7
ENDMDL
