MODEL 1
REMARK VINA RESULT:      -7.1      0.000      0.000
REMARK  Name = 
REMARK  4 active torsions:
REMARK  status: ('A' for Active; 'I' for Inactive)
REMARK    1  A    between atoms: C_1  and  C_2
REMARK    2  A    between atoms: C_2  and  C_3
REMARK    3  A    between atoms: C_11  and  C_13
REMARK    4  A    between atoms: N_21  and  C_22
REMARK                            x       y       z     vdW  Elec       q    Type
REMARK                         _______ _______ _______ _____ _____    ______ ____
ROOT
ATOM      1  C   UNL     1       1.094  10.195  19.907  0.00  0.00    +0.000 A 
ATOM      2  N   UNL     1       0.787  10.118  21.186  0.00  0.00    +0.000 NA
ATOM      3  N   UNL     1       1.030   8.831  21.617  0.00  0.00    +0.000 NA
ATOM      4  C   UNL     1       1.485   8.141  20.595  0.00  0.00    +0.000 A 
ATOM      5  N   UNL     1       1.486   8.955  19.490  0.00  0.00    +0.000 N 
ATOM      6  C   UNL     1       1.871   8.507  18.169  0.00  0.00    +0.000 C 
ATOM      7  C   UNL     1       1.756   6.981  18.102  0.00  0.00    +0.000 C 
ATOM      8  N   UNL     1       2.504   6.405  19.232  0.00  0.00    +0.000 N 
ATOM      9  C   UNL     1       3.657   5.616  19.204  0.00  0.00    +0.000 C 
ATOM     10  O   UNL     1       4.127   5.120  20.232  0.00  0.00    +0.000 OA
ATOM     11  C   UNL     1       1.901   6.705  20.545  0.00  0.00    +0.000 C 
ENDROOT
BRANCH   9  12
ATOM     12  C   UNL     1       4.363   5.303  17.924  0.00  0.00    +0.000 A 
ATOM     13  C   UNL     1       3.856   4.404  16.975  0.00  0.00    +0.000 A 
ATOM     14  C   UNL     1       4.583   4.025  15.841  0.00  0.00    +0.000 A 
ATOM     15  C   UNL     1       5.784   4.696  15.631  0.00  0.00    +0.000 A 
ATOM     16  C   UNL     1       6.274   5.674  16.486  0.00  0.00    +0.000 A 
ATOM     17  C   UNL     1       5.567   5.984  17.657  0.00  0.00    +0.000 A 
ATOM     18  N   UNL     1       7.444   6.175  15.979  0.00  0.00    +0.000 NA
ATOM     19  N   UNL     1       7.710   5.540  14.843  0.00  0.00    +0.000 NA
ATOM     20  N   UNL     1       6.726   4.648  14.640  0.00  0.00    +0.000 N 
ATOM     21  C   UNL     1       6.717   3.807  13.474  0.00  0.00    +0.000 C 
ENDBRANCH   9  12
BRANCH   1  23
ATOM     22  C   UNL     1      -0.296  12.074  19.024  0.00  0.00    +0.000 C 
ATOM     23  C   UNL     1       1.074  11.418  19.060  0.00  0.00    +0.000 C 
ENDBRANCH   1  23
TORSDOF 2
ENDMDL
MODEL 2
REMARK VINA RESULT:      -6.8      1.819      2.418
REMARK  Name = 
REMARK  4 active torsions:
REMARK  status: ('A' for Active; 'I' for Inactive)
REMARK    1  A    between atoms: C_1  and  C_2
REMARK    2  A    between atoms: C_2  and  C_3
REMARK    3  A    between atoms: C_11  and  C_13
REMARK    4  A    between atoms: N_21  and  C_22
REMARK                            x       y       z     vdW  Elec       q    Type
REMARK                         _______ _______ _______ _____ _____    ______ ____
ROOT
ATOM      1  C   UNL     1       1.744  12.722  19.368  0.00  0.00    +0.000 A 
ATOM      2  N   UNL     1       1.044  12.953  20.461  0.00  0.00    +0.000 NA
ATOM      3  N   UNL     1       0.540  11.754  20.919  0.00  0.00    +0.000 NA
ATOM      4  C   UNL     1       0.942  10.807  20.100  0.00  0.00    +0.000 A 
ATOM      5  N   UNL     1       1.657  11.389  19.083  0.00  0.00    +0.000 N 
ATOM      6  C   UNL     1       2.202  10.648  17.966  0.00  0.00    +0.000 C 
ATOM      7  C   UNL     1       1.451   9.320  17.827  0.00  0.00    +0.000 C 
ATOM      8  N   UNL     1       1.462   8.639  19.132  0.00  0.00    +0.000 N 
ATOM      9  C   UNL     1       2.088   7.440  19.485  0.00  0.00    +0.000 C 
ATOM     10  O   UNL     1       1.934   6.934  20.600  0.00  0.00    +0.000 OA
ATOM     11  C   UNL     1       0.671   9.337  20.164  0.00  0.00    +0.000 C 
ENDROOT
BRANCH   9  12
ATOM     12  C   UNL     1       2.950   6.690  18.521  0.00  0.00    +0.000 A 
ATOM     13  C   UNL     1       2.650   5.393  18.082  0.00  0.00    +0.000 A 
ATOM     14  C   UNL     1       3.525   4.654  17.279  0.00  0.00    +0.000 A 
ATOM     15  C   UNL     1       4.652   5.330  16.819  0.00  0.00    +0.000 A 
ATOM     16  C   UNL     1       4.934   6.651  17.136  0.00  0.00    +0.000 A 
ATOM     17  C   UNL     1       4.083   7.349  18.007  0.00  0.00    +0.000 A 
ATOM     18  N   UNL     1       6.080   7.037  16.492  0.00  0.00    +0.000 NA
ATOM     19  N   UNL     1       6.530   6.004  15.790  0.00  0.00    +0.000 NA
ATOM     20  N   UNL     1       5.685   4.979  15.995  0.00  0.00    +0.000 N 
ATOM     21  C   UNL     1       5.892   3.709  15.353  0.00  0.00    +0.000 C 
ENDBRANCH   9  12
BRANCH   1  23
ATOM     22  C   UNL     1       1.945  15.110  18.663  0.00  0.00    +0.000 C 
ATOM     23  C   UNL     1       2.539  13.714  18.595  0.00  0.00    +0.000 C 
ENDBRANCH   1  23
TORSDOF 2
ENDMDL
MODEL 3
REMARK VINA RESULT:      -6.8      3.390      7.875
REMARK  Name = 
REMARK  4 active torsions:
REMARK  status: ('A' for Active; 'I' for Inactive)
REMARK    1  A    between atoms: C_1  and  C_2
REMARK    2  A    between atoms: C_2  and  C_3
REMARK    3  A    between atoms: C_11  and  C_13
REMARK    4  A    between atoms: N_21  and  C_22
REMARK                            x       y       z     vdW  Elec       q    Type
REMARK                         _______ _______ _______ _____ _____    ______ ____
ROOT
ATOM      1  C   UNL     1       6.317   4.025  12.740  0.00  0.00    +0.000 A 
ATOM      2  N   UNL     1       7.544   4.381  12.417  0.00  0.00    +0.000 NA
ATOM      3  N   UNL     1       8.112   5.018  13.501  0.00  0.00    +0.000 NA
ATOM      4  C   UNL     1       7.224   5.038  14.470  0.00  0.00    +0.000 A 
ATOM      5  N   UNL     1       6.064   4.469  14.006  0.00  0.00    +0.000 N 
ATOM      6  C   UNL     1       4.852   4.376  14.790  0.00  0.00    +0.000 C 
ATOM      7  C   UNL     1       4.900   5.414  15.917  0.00  0.00    +0.000 C 
ATOM      8  N   UNL     1       6.167   5.251  16.648  0.00  0.00    +0.000 N 
ATOM      9  C   UNL     1       6.364   4.842  17.970  0.00  0.00    +0.000 C 
ATOM     10  O   UNL     1       7.486   4.840  18.486  0.00  0.00    +0.000 OA
ATOM     11  C   UNL     1       7.355   5.605  15.848  0.00  0.00    +0.000 C 
ENDROOT
BRANCH   9  12
ATOM     12  C   UNL     1       5.225   4.416  18.839  0.00  0.00    +0.000 A 
ATOM     13  C   UNL     1       5.117   3.125  19.376  0.00  0.00    +0.000 A 
ATOM     14  C   UNL     1       3.988   2.702  20.084  0.00  0.00    +0.000 A 
ATOM     15  C   UNL     1       3.031   3.677  20.352  0.00  0.00    +0.000 A 
ATOM     16  C   UNL     1       3.148   4.997  19.937  0.00  0.00    +0.000 A 
ATOM     17  C   UNL     1       4.251   5.382  19.161  0.00  0.00    +0.000 A 
ATOM     18  N   UNL     1       2.075   5.713  20.398  0.00  0.00    +0.000 NA
ATOM     19  N   UNL     1       1.286   4.889  21.079  0.00  0.00    +0.000 NA
ATOM     20  N   UNL     1       1.850   3.670  21.041  0.00  0.00    +0.000 N 
ATOM     21  C   UNL     1       1.240   2.550  21.706  0.00  0.00    +0.000 C 
ENDBRANCH   9  12
BRANCH   1  23
ATOM     22  C   UNL     1       5.963   1.899  11.474  0.00  0.00    +0.000 C 
ATOM     23  C   UNL     1       5.374   3.232  11.905  0.00  0.00    +0.000 C 
ENDBRANCH   1  23
TORSDOF 2
ENDMDL
MODEL 4
REMARK VINA RESULT:      -6.5      2.370      3.492
REMARK  Name = 
REMARK  4 active torsions:
REMARK  status: ('A' for Active; 'I' for Inactive)
REMARK    1  A    between atoms: C_1  and  C_2
REMARK    2  A    between atoms: C_2  and  C_3
REMARK    3  A    between atoms: C_11  and  C_13
REMARK    4  A    between atoms: N_21  and  C_22
REMARK                            x       y       z     vdW  Elec       q    Type
REMARK                         _______ _______ _______ _____ _____    ______ ____
ROOT
ATOM      1  C   UNL     1       1.893  13.149  19.151  0.00  0.00    +0.000 A 
ATOM      2  N   UNL     1       1.185  13.561  20.183  0.00  0.00    +0.000 NA
ATOM      3  N   UNL     1       0.561  12.469  20.749  0.00  0.00    +0.000 NA
ATOM      4  C   UNL     1       0.900  11.405  20.055  0.00  0.00    +0.000 A 
ATOM      5  N   UNL     1       1.695  11.805  19.010  0.00  0.00    +0.000 N 
ATOM      6  C   UNL     1       2.205  10.900  18.003  0.00  0.00    +0.000 C 
ATOM      7  C   UNL     1       1.342   9.634  17.980  0.00  0.00    +0.000 C 
ATOM      8  N   UNL     1       1.252   9.105  19.351  0.00  0.00    +0.000 N 
ATOM      9  C   UNL     1       1.756   7.904  19.857  0.00  0.00    +0.000 C 
ATOM     10  O   UNL     1       1.523   7.541  21.014  0.00  0.00    +0.000 OA
ATOM     11  C   UNL     1       0.496   9.980  20.267  0.00  0.00    +0.000 C 
ENDROOT
BRANCH   9  12
ATOM     12  C   UNL     1       2.575   6.979  19.016  0.00  0.00    +0.000 A 
ATOM     13  C   UNL     1       3.541   7.431  18.107  0.00  0.00    +0.000 A 
ATOM     14  C   UNL     1       4.213   6.565  17.238  0.00  0.00    +0.000 A 
ATOM     15  C   UNL     1       3.973   5.206  17.420  0.00  0.00    +0.000 A 
ATOM     16  C   UNL     1       3.108   4.705  18.383  0.00  0.00    +0.000 A 
ATOM     17  C   UNL     1       2.385   5.594  19.193  0.00  0.00    +0.000 A 
ATOM     18  N   UNL     1       3.129   3.335  18.342  0.00  0.00    +0.000 NA
ATOM     19  N   UNL     1       3.968   2.961  17.383  0.00  0.00    +0.000 NA
ATOM     20  N   UNL     1       4.463   4.078  16.823  0.00  0.00    +0.000 N 
ATOM     21  C   UNL     1       5.422   4.007  15.754  0.00  0.00    +0.000 C 
ENDBRANCH   9  12
BRANCH   1  23
ATOM     22  C   UNL     1       2.461  15.455  18.376  0.00  0.00    +0.000 C 
ATOM     23  C   UNL     1       2.798  13.975  18.307  0.00  0.00    +0.000 C 
ENDBRANCH   1  23
TORSDOF 2
ENDMDL
MODEL 5
REMARK VINA RESULT:      -6.5      1.051      1.659
REMARK  Name = 
REMARK  4 active torsions:
REMARK  status: ('A' for Active; 'I' for Inactive)
REMARK    1  A    between atoms: C_1  and  C_2
REMARK    2  A    between atoms: C_2  and  C_3
REMARK    3  A    between atoms: C_11  and  C_13
REMARK    4  A    between atoms: N_21  and  C_22
REMARK                            x       y       z     vdW  Elec       q    Type
REMARK                         _______ _______ _______ _____ _____    ______ ____
ROOT
ATOM      1  C   UNL     1       1.119   9.544  19.719  0.00  0.00    +0.000 A 
ATOM      2  N   UNL     1       0.763   9.320  20.968  0.00  0.00    +0.000 NA
ATOM      3  N   UNL     1       1.189   8.057  21.323  0.00  0.00    +0.000 NA
ATOM      4  C   UNL     1       1.803   7.530  20.286  0.00  0.00    +0.000 A 
ATOM      5  N   UNL     1       1.728   8.419  19.243  0.00  0.00    +0.000 N 
ATOM      6  C   UNL     1       2.248   8.142  17.921  0.00  0.00    +0.000 C 
ATOM      7  C   UNL     1       2.387   6.627  17.741  0.00  0.00    +0.000 C 
ATOM      8  N   UNL     1       3.159   6.091  18.874  0.00  0.00    +0.000 N 
ATOM      9  C   UNL     1       4.425   5.499  18.864  0.00  0.00    +0.000 C 
ATOM     10  O   UNL     1       4.916   5.004  19.883  0.00  0.00    +0.000 OA
ATOM     11  C   UNL     1       2.449   6.187  20.164  0.00  0.00    +0.000 C 
ENDROOT
BRANCH   9  12
ATOM     12  C   UNL     1       5.238   5.403  17.614  0.00  0.00    +0.000 A 
ATOM     13  C   UNL     1       6.357   6.212  17.369  0.00  0.00    +0.000 A 
ATOM     14  C   UNL     1       7.034   6.200  16.145  0.00  0.00    +0.000 A 
ATOM     15  C   UNL     1       6.625   5.236  15.227  0.00  0.00    +0.000 A 
ATOM     16  C   UNL     1       5.595   4.339  15.469  0.00  0.00    +0.000 A 
ATOM     17  C   UNL     1       4.877   4.419  16.672  0.00  0.00    +0.000 A 
ATOM     18  N   UNL     1       5.470   3.492  14.399  0.00  0.00    +0.000 NA
ATOM     19  N   UNL     1       6.378   3.833  13.492  0.00  0.00    +0.000 NA
ATOM     20  N   UNL     1       7.061   4.883  13.980  0.00  0.00    +0.000 N 
ATOM     21  C   UNL     1       8.135   5.480  13.234  0.00  0.00    +0.000 C 
ENDBRANCH   9  12
BRANCH   1  23
ATOM     22  C   UNL     1      -0.520  11.168  18.760  0.00  0.00    +0.000 C 
ATOM     23  C   UNL     1       0.943  10.811  18.959  0.00  0.00    +0.000 C 
ENDBRANCH   1  23
TORSDOF 2
ENDMDL
MODEL 6
REMARK VINA RESULT:      -6.4      1.759      7.625
REMARK  Name = 
REMARK  4 active torsions:
REMARK  status: ('A' for Active; 'I' for Inactive)
REMARK    1  A    between atoms: C_1  and  C_2
REMARK    2  A    between atoms: C_2  and  C_3
REMARK    3  A    between atoms: C_11  and  C_13
REMARK    4  A    between atoms: N_21  and  C_22
REMARK                            x       y       z     vdW  Elec       q    Type
REMARK                         _______ _______ _______ _____ _____    ______ ____
ROOT
ATOM      1  C   UNL     1       5.168   4.390  15.979  0.00  0.00    +0.000 A 
ATOM      2  N   UNL     1       5.186   3.108  16.286  0.00  0.00    +0.000 NA
ATOM      3  N   UNL     1       4.685   2.959  17.562  0.00  0.00    +0.000 NA
ATOM      4  C   UNL     1       4.365   4.152  18.014  0.00  0.00    +0.000 A 
ATOM      5  N   UNL     1       4.707   5.080  17.062  0.00  0.00    +0.000 N 
ATOM      6  C   UNL     1       4.550   6.506  17.248  0.00  0.00    +0.000 C 
ATOM      7  C   UNL     1       4.467   6.814  18.746  0.00  0.00    +0.000 C 
ATOM      8  N   UNL     1       3.428   5.959  19.342  0.00  0.00    +0.000 N 
ATOM      9  C   UNL     1       2.210   6.336  19.914  0.00  0.00    +0.000 C 
ATOM     10  O   UNL     1       1.471   5.515  20.465  0.00  0.00    +0.000 OA
ATOM     11  C   UNL     1       3.776   4.525  19.338  0.00  0.00    +0.000 C 
ENDROOT
BRANCH   9  12
ATOM     12  C   UNL     1       1.752   7.759  19.919  0.00  0.00    +0.000 A 
ATOM     13  C   UNL     1       1.648   8.530  18.753  0.00  0.00    +0.000 A 
ATOM     14  C   UNL     1       1.339   9.894  18.783  0.00  0.00    +0.000 A 
ATOM     15  C   UNL     1       0.998  10.417  20.027  0.00  0.00    +0.000 A 
ATOM     16  C   UNL     1       0.977   9.666  21.193  0.00  0.00    +0.000 A 
ATOM     17  C   UNL     1       1.367   8.318  21.154  0.00  0.00    +0.000 A 
ATOM     18  N   UNL     1       0.555  10.452  22.233  0.00  0.00    +0.000 NA
ATOM     19  N   UNL     1       0.319  11.672  21.762  0.00  0.00    +0.000 NA
ATOM     20  N   UNL     1       0.595  11.655  20.446  0.00  0.00    +0.000 N 
ATOM     21  C   UNL     1       0.423  12.833  19.639  0.00  0.00    +0.000 C 
ENDBRANCH   9  12
BRANCH   1  23
ATOM     22  C   UNL     1       6.066   3.966  13.686  0.00  0.00    +0.000 C 
ATOM     23  C   UNL     1       5.532   4.994  14.669  0.00  0.00    +0.000 C 
ENDBRANCH   1  23
TORSDOF 2
ENDMDL
MODEL 7
REMARK VINA RESULT:      -6.4      6.187     11.237
REMARK  Name = 
REMARK  4 active torsions:
REMARK  status: ('A' for Active; 'I' for Inactive)
REMARK    1  A    between atoms: C_1  and  C_2
REMARK    2  A    between atoms: C_2  and  C_3
REMARK    3  A    between atoms: C_11  and  C_13
REMARK    4  A    between atoms: N_21  and  C_22
REMARK                            x       y       z     vdW  Elec       q    Type
REMARK                         _______ _______ _______ _____ _____    ______ ____
ROOT
ATOM      1  C   UNL     1       0.359   9.926  21.408  0.00  0.00    +0.000 A 
ATOM      2  N   UNL     1       0.617   9.563  22.649  0.00  0.00    +0.000 NA
ATOM      3  N   UNL     1      -0.208  10.277  23.492  0.00  0.00    +0.000 NA
ATOM      4  C   UNL     1      -0.959  11.064  22.754  0.00  0.00    +0.000 A 
ATOM      5  N   UNL     1      -0.590  10.907  21.441  0.00  0.00    +0.000 N 
ATOM      6  C   UNL     1      -1.169  11.666  20.354  0.00  0.00    +0.000 C 
ATOM      7  C   UNL     1      -1.805  12.943  20.913  0.00  0.00    +0.000 C 
ATOM      8  N   UNL     1      -2.714  12.571  22.008  0.00  0.00    +0.000 N 
ATOM      9  C   UNL     1      -4.105  12.693  22.067  0.00  0.00    +0.000 C 
ATOM     10  O   UNL     1      -4.736  12.426  23.094  0.00  0.00    +0.000 OA
ATOM     11  C   UNL     1      -2.017  12.028  23.190  0.00  0.00    +0.000 C 
ENDROOT
BRANCH   9  12
ATOM     12  C   UNL     1      -4.901  13.186  20.901  0.00  0.00    +0.000 A 
ATOM     13  C   UNL     1      -5.333  14.514  20.781  0.00  0.00    +0.000 A 
ATOM     14  C   UNL     1      -6.180  14.935  19.751  0.00  0.00    +0.000 A 
ATOM     15  C   UNL     1      -6.459  13.993  18.764  0.00  0.00    +0.000 A 
ATOM     16  C   UNL     1      -5.962  12.697  18.782  0.00  0.00    +0.000 A 
ATOM     17  C   UNL     1      -5.178  12.273  19.865  0.00  0.00    +0.000 A 
ATOM     18  N   UNL     1      -6.375  12.038  17.653  0.00  0.00    +0.000 NA
ATOM     19  N   UNL     1      -7.119  12.871  16.935  0.00  0.00    +0.000 NA
ATOM     20  N   UNL     1      -7.181  14.035  17.604  0.00  0.00    +0.000 N 
ATOM     21  C   UNL     1      -7.908  15.156  17.073  0.00  0.00    +0.000 C 
ENDBRANCH   9  12
BRANCH   1  23
ATOM     22  C   UNL     1       1.611   8.001  20.422  0.00  0.00    +0.000 C 
ATOM     23  C   UNL     1       0.950   9.346  20.172  0.00  0.00    +0.000 C 
ENDBRANCH   1  23
TORSDOF 2
ENDMDL
MODEL 8
REMARK VINA RESULT:      -6.3      2.871      4.461
REMARK  Name = 
REMARK  4 active torsions:
REMARK  status: ('A' for Active; 'I' for Inactive)
REMARK    1  A    between atoms: C_1  and  C_2
REMARK    2  A    between atoms: C_2  and  C_3
REMARK    3  A    between atoms: C_11  and  C_13
REMARK    4  A    between atoms: N_21  and  C_22
REMARK                            x       y       z     vdW  Elec       q    Type
REMARK                         _______ _______ _______ _____ _____    ______ ____
ROOT
ATOM      1  C   UNL     1       1.907  13.451  19.102  0.00  0.00    +0.000 A 
ATOM      2  N   UNL     1       1.411  14.124  20.121  0.00  0.00    +0.000 NA
ATOM      3  N   UNL     1       0.770  13.236  20.959  0.00  0.00    +0.000 NA
ATOM      4  C   UNL     1       0.887  12.033  20.441  0.00  0.00    +0.000 A 
ATOM      5  N   UNL     1       1.551  12.141  19.244  0.00  0.00    +0.000 N 
ATOM      6  C   UNL     1       1.804  11.017  18.369  0.00  0.00    +0.000 C 
ATOM      7  C   UNL     1       0.821   9.890  18.698  0.00  0.00    +0.000 C 
ATOM      8  N   UNL     1       0.885   9.621  20.144  0.00  0.00    +0.000 N 
ATOM      9  C   UNL     1       1.332   8.470  20.798  0.00  0.00    +0.000 C 
ATOM     10  O   UNL     1       1.241   8.344  22.023  0.00  0.00    +0.000 OA
ATOM     11  C   UNL     1       0.373  10.731  20.969  0.00  0.00    +0.000 C 
ENDROOT
BRANCH   9  12
ATOM     12  C   UNL     1       1.913   7.315  20.047  0.00  0.00    +0.000 A 
ATOM     13  C   UNL     1       2.636   7.467  18.856  0.00  0.00    +0.000 A 
ATOM     14  C   UNL     1       3.067   6.373  18.098  0.00  0.00    +0.000 A 
ATOM     15  C   UNL     1       2.863   5.118  18.663  0.00  0.00    +0.000 A 
ATOM     16  C   UNL     1       2.251   4.923  19.893  0.00  0.00    +0.000 A 
ATOM     17  C   UNL     1       1.756   6.029  20.601  0.00  0.00    +0.000 A 
ATOM     18  N   UNL     1       2.246   3.585  20.191  0.00  0.00    +0.000 NA
ATOM     19  N   UNL     1       2.824   2.935  19.188  0.00  0.00    +0.000 NA
ATOM     20  N   UNL     1       3.181   3.848  18.268  0.00  0.00    +0.000 N 
ATOM     21  C   UNL     1       3.852   3.457  17.058  0.00  0.00    +0.000 C 
ENDBRANCH   9  12
BRANCH   1  23
ATOM     22  C   UNL     1       4.073  14.552  18.517  0.00  0.00    +0.000 C 
ATOM     23  C   UNL     1       2.754  13.995  18.007  0.00  0.00    +0.000 C 
ENDBRANCH   1  23
TORSDOF 2
ENDMDL
MODEL 9
REMARK VINA RESULT:      -6.2      5.137     11.262
REMARK  Name = 
REMARK  4 active torsions:
REMARK  status: ('A' for Active; 'I' for Inactive)
REMARK    1  A    between atoms: C_1  and  C_2
REMARK    2  A    between atoms: C_2  and  C_3
REMARK    3  A    between atoms: C_11  and  C_13
REMARK    4  A    between atoms: N_21  and  C_22
REMARK                            x       y       z     vdW  Elec       q    Type
REMARK                         _______ _______ _______ _____ _____    ______ ____
ROOT
ATOM      1  C   UNL     1       1.434  10.567  18.452  0.00  0.00    +0.000 A 
ATOM      2  N   UNL     1       2.458  11.298  18.058  0.00  0.00    +0.000 NA
ATOM      3  N   UNL     1       2.103  12.627  18.144  0.00  0.00    +0.000 NA
ATOM      4  C   UNL     1       0.869  12.689  18.594  0.00  0.00    +0.000 A 
ATOM      5  N   UNL     1       0.400  11.408  18.746  0.00  0.00    +0.000 N 
ATOM      6  C   UNL     1      -0.948  11.098  19.169  0.00  0.00    +0.000 C 
ATOM      7  C   UNL     1      -1.850  12.309  18.909  0.00  0.00    +0.000 C 
ATOM      8  N   UNL     1      -1.228  13.494  19.522  0.00  0.00    +0.000 N 
ATOM      9  C   UNL     1      -1.690  14.267  20.590  0.00  0.00    +0.000 C 
ATOM     10  O   UNL     1      -1.110  15.298  20.942  0.00  0.00    +0.000 OA
ATOM     11  C   UNL     1       0.032  13.898  18.869  0.00  0.00    +0.000 C 
ENDROOT
BRANCH   9  12
ATOM     12  C   UNL     1      -2.930  13.905  21.343  0.00  0.00    +0.000 A 
ATOM     13  C   UNL     1      -4.211  14.309  20.940  0.00  0.00    +0.000 A 
ATOM     14  C   UNL     1      -5.349  14.071  21.717  0.00  0.00    +0.000 A 
ATOM     15  C   UNL     1      -5.163  13.284  22.851  0.00  0.00    +0.000 A 
ATOM     16  C   UNL     1      -3.932  12.768  23.230  0.00  0.00    +0.000 A 
ATOM     17  C   UNL     1      -2.790  13.084  22.479  0.00  0.00    +0.000 A 
ATOM     18  N   UNL     1      -4.089  12.000  24.354  0.00  0.00    +0.000 NA
ATOM     19  N   UNL     1      -5.372  12.024  24.698  0.00  0.00    +0.000 NA
ATOM     20  N   UNL     1      -6.012  12.801  23.807  0.00  0.00    +0.000 N 
ATOM     21  C   UNL     1      -7.432  13.015  23.898  0.00  0.00    +0.000 C 
ENDBRANCH   9  12
BRANCH   1  23
ATOM     22  C   UNL     1       2.474   8.398  17.773  0.00  0.00    +0.000 C 
ATOM     23  C   UNL     1       1.407   9.087  18.607  0.00  0.00    +0.000 C 
ENDBRANCH   1  23
TORSDOF 2
ENDMDL
