MODEL 1
REMARK VINA RESULT:      -8.9      0.000      0.000
REMARK  Name = 
REMARK  3 active torsions:
REMARK  status: ('A' for Active; 'I' for Inactive)
REMARK    1  A    between atoms: C_1  and  C_2
REMARK    2  A    between atoms: C_2  and  C_3
REMARK    3  A    between atoms: C_17  and  C_18
REMARK                            x       y       z     vdW  Elec       q    Type
REMARK                         _______ _______ _______ _____ _____    ______ ____
ROOT
ATOM      1  C   UNL     1       1.122   9.744  19.304  0.00  0.00    +0.000 A 
ATOM      2  C   UNL     1       1.831   9.530  18.100  0.00  0.00    +0.000 A 
ATOM      3  C   UNL     1       2.513   8.320  17.858  0.00  0.00    +0.000 A 
ATOM      4  C   UNL     1       2.441   7.237  18.769  0.00  0.00    +0.000 A 
ATOM      5  C   UNL     1       3.041   5.947  18.608  0.00  0.00    +0.000 A 
ATOM      6  C   UNL     1       2.602   4.916  19.453  0.00  0.00    +0.000 A 
ATOM      7  C   UNL     1       1.839   5.152  20.580  0.00  0.00    +0.000 A 
ATOM      8  C   UNL     1       1.458   6.445  20.876  0.00  0.00    +0.000 A 
ATOM      9  C   UNL     1       1.681   7.465  19.953  0.00  0.00    +0.000 A 
ATOM     10  C   UNL     1       1.108   8.708  20.231  0.00  0.00    +0.000 A 
ATOM     11  O   UNL     1       3.029   3.620  19.256  0.00  0.00    +0.000 OA
ATOM     12  C   UNL     1       4.382   3.580  19.452  0.00  0.00    +0.000 C 
ATOM     13  O   UNL     1       4.888   2.652  20.073  0.00  0.00    +0.000 OA
ATOM     14  C   UNL     1       5.195   4.705  18.877  0.00  0.00    +0.000 C 
ATOM     15  C   UNL     1       4.400   5.701  17.965  0.00  0.00    +0.000 C 
ENDROOT
BRANCH  15  16
ATOM     16  C   UNL     1       4.640   5.161  16.547  0.00  0.00    +0.000 A 
ATOM     17  C   UNL     1       4.916   3.805  16.338  0.00  0.00    +0.000 A 
ATOM     18  C   UNL     1       5.963   3.447  15.480  0.00  0.00    +0.000 A 
ATOM     19  C   UNL     1       6.678   4.423  14.780  0.00  0.00    +0.000 A 
ATOM     20  C   UNL     1       6.262   5.749  14.823  0.00  0.00    +0.000 A 
ATOM     21  C   UNL     1       5.208   6.111  15.660  0.00  0.00    +0.000 A 
ENDBRANCH  15  16
BRANCH   1  23
ATOM     22  C   UNL     1      -1.132  10.827  19.165  0.00  0.00    +0.000 C 
ATOM     23  C   UNL     1       0.327  10.988  19.578  0.00  0.00    +0.000 C 
ENDBRANCH   1  23
TORSDOF 2
ENDMDL
MODEL 2
REMARK VINA RESULT:      -8.6      0.963      1.205
REMARK  Name = 
REMARK  3 active torsions:
REMARK  status: ('A' for Active; 'I' for Inactive)
REMARK    1  A    between atoms: C_1  and  C_2
REMARK    2  A    between atoms: C_2  and  C_3
REMARK    3  A    between atoms: C_17  and  C_18
REMARK                            x       y       z     vdW  Elec       q    Type
REMARK                         _______ _______ _______ _____ _____    ______ ____
ROOT
ATOM      1  C   UNL     1       1.724   9.074  18.808  0.00  0.00    +0.000 A 
ATOM      2  C   UNL     1       2.665   8.791  17.792  0.00  0.00    +0.000 A 
ATOM      3  C   UNL     1       3.341   7.555  17.746  0.00  0.00    +0.000 A 
ATOM      4  C   UNL     1       3.039   6.513  18.658  0.00  0.00    +0.000 A 
ATOM      5  C   UNL     1       3.615   5.203  18.677  0.00  0.00    +0.000 A 
ATOM      6  C   UNL     1       2.970   4.221  19.445  0.00  0.00    +0.000 A 
ATOM      7  C   UNL     1       1.993   4.524  20.373  0.00  0.00    +0.000 A 
ATOM      8  C   UNL     1       1.603   5.838  20.533  0.00  0.00    +0.000 A 
ATOM      9  C   UNL     1       2.053   6.811  19.643  0.00  0.00    +0.000 A 
ATOM     10  C   UNL     1       1.477   8.080  19.747  0.00  0.00    +0.000 A 
ATOM     11  O   UNL     1       3.385   2.907  19.391  0.00  0.00    +0.000 OA
ATOM     12  C   UNL     1       4.663   2.840  19.873  0.00  0.00    +0.000 C 
ATOM     13  O   UNL     1       4.993   1.926  20.621  0.00  0.00    +0.000 OA
ATOM     14  C   UNL     1       5.618   3.917  19.446  0.00  0.00    +0.000 C 
ATOM     15  C   UNL     1       5.071   4.894  18.349  0.00  0.00    +0.000 C 
ENDROOT
BRANCH  15  16
ATOM     16  C   UNL     1       5.588   4.288  17.036  0.00  0.00    +0.000 A 
ATOM     17  C   UNL     1       6.937   4.400  16.682  0.00  0.00    +0.000 A 
ATOM     18  C   UNL     1       7.271   4.777  15.375  0.00  0.00    +0.000 A 
ATOM     19  C   UNL     1       6.277   4.967  14.412  0.00  0.00    +0.000 A 
ATOM     20  C   UNL     1       4.957   4.646  14.707  0.00  0.00    +0.000 A 
ATOM     21  C   UNL     1       4.619   4.252  16.000  0.00  0.00    +0.000 A 
ENDBRANCH  15  16
BRANCH   1  23
ATOM     22  C   UNL     1      -0.481  10.158  18.318  0.00  0.00    +0.000 C 
ATOM     23  C   UNL     1       0.933  10.349  18.860  0.00  0.00    +0.000 C 
ENDBRANCH   1  23
TORSDOF 2
ENDMDL
MODEL 3
REMARK VINA RESULT:      -8.1      1.140      6.290
REMARK  Name = 
REMARK  3 active torsions:
REMARK  status: ('A' for Active; 'I' for Inactive)
REMARK    1  A    between atoms: C_1  and  C_2
REMARK    2  A    between atoms: C_2  and  C_3
REMARK    3  A    between atoms: C_17  and  C_18
REMARK                            x       y       z     vdW  Elec       q    Type
REMARK                         _______ _______ _______ _____ _____    ______ ____
ROOT
ATOM      1  C   UNL     1       6.042   4.689  14.783  0.00  0.00    +0.000 A 
ATOM      2  C   UNL     1       5.567   5.977  15.121  0.00  0.00    +0.000 A 
ATOM      3  C   UNL     1       4.732   6.179  16.238  0.00  0.00    +0.000 A 
ATOM      4  C   UNL     1       4.410   5.117  17.120  0.00  0.00    +0.000 A 
ATOM      5  C   UNL     1       3.622   5.208  18.312  0.00  0.00    +0.000 A 
ATOM      6  C   UNL     1       3.676   4.133  19.211  0.00  0.00    +0.000 A 
ATOM      7  C   UNL     1       4.223   2.910  18.876  0.00  0.00    +0.000 A 
ATOM      8  C   UNL     1       4.774   2.740  17.622  0.00  0.00    +0.000 A 
ATOM      9  C   UNL     1       4.941   3.839  16.781  0.00  0.00    +0.000 A 
ATOM     10  C   UNL     1       5.671   3.634  15.607  0.00  0.00    +0.000 A 
ATOM     11  O   UNL     1       3.060   4.218  20.442  0.00  0.00    +0.000 OA
ATOM     12  C   UNL     1       1.713   4.341  20.240  0.00  0.00    +0.000 C 
ATOM     13  O   UNL     1       0.924   3.718  20.942  0.00  0.00    +0.000 OA
ATOM     14  C   UNL     1       1.262   5.261  19.141  0.00  0.00    +0.000 C 
ATOM     15  C   UNL     1       2.401   6.107  18.473  0.00  0.00    +0.000 C 
ENDROOT
BRANCH  15  16
ATOM     16  C   UNL     1       2.358   7.437  19.238  0.00  0.00    +0.000 A 
ATOM     17  C   UNL     1       1.874   7.490  20.550  0.00  0.00    +0.000 A 
ATOM     18  C   UNL     1       0.977   8.504  20.906  0.00  0.00    +0.000 A 
ATOM     19  C   UNL     1       0.622   9.497  19.990  0.00  0.00    +0.000 A 
ATOM     20  C   UNL     1       1.267   9.567  18.761  0.00  0.00    +0.000 A 
ATOM     21  C   UNL     1       2.177   8.572  18.406  0.00  0.00    +0.000 A 
ENDBRANCH  15  16
BRANCH   1  23
ATOM     22  C   UNL     1       6.331   3.604  12.545  0.00  0.00    +0.000 C 
ATOM     23  C   UNL     1       6.985   4.436  13.643  0.00  0.00    +0.000 C 
ENDBRANCH   1  23
TORSDOF 2
ENDMDL
MODEL 4
REMARK VINA RESULT:      -8.0      1.398      1.743
REMARK  Name = 
REMARK  3 active torsions:
REMARK  status: ('A' for Active; 'I' for Inactive)
REMARK    1  A    between atoms: C_1  and  C_2
REMARK    2  A    between atoms: C_2  and  C_3
REMARK    3  A    between atoms: C_17  and  C_18
REMARK                            x       y       z     vdW  Elec       q    Type
REMARK                         _______ _______ _______ _____ _____    ______ ____
ROOT
ATOM      1  C   UNL     1       1.300   8.224  20.655  0.00  0.00    +0.000 A 
ATOM      2  C   UNL     1       2.155   8.405  19.544  0.00  0.00    +0.000 A 
ATOM      3  C   UNL     1       2.704   7.304  18.857  0.00  0.00    +0.000 A 
ATOM      4  C   UNL     1       2.349   5.973  19.193  0.00  0.00    +0.000 A 
ATOM      5  C   UNL     1       2.795   4.781  18.536  0.00  0.00    +0.000 A 
ATOM      6  C   UNL     1       2.098   3.593  18.805  0.00  0.00    +0.000 A 
ATOM      7  C   UNL     1       1.205   3.473  19.851  0.00  0.00    +0.000 A 
ATOM      8  C   UNL     1       0.953   4.571  20.648  0.00  0.00    +0.000 A 
ATOM      9  C   UNL     1       1.449   5.822  20.287  0.00  0.00    +0.000 A 
ATOM     10  C   UNL     1       1.006   6.919  21.031  0.00  0.00    +0.000 A 
ATOM     11  O   UNL     1       2.379   2.442  18.098  0.00  0.00    +0.000 OA
ATOM     12  C   UNL     1       3.668   2.074  18.371  0.00  0.00    +0.000 C 
ATOM     13  O   UNL     1       3.945   0.896  18.565  0.00  0.00    +0.000 OA
ATOM     14  C   UNL     1       4.700   3.165  18.418  0.00  0.00    +0.000 C 
ATOM     15  C   UNL     1       4.195   4.578  17.969  0.00  0.00    +0.000 C 
ENDROOT
BRANCH  15  16
ATOM     16  C   UNL     1       4.581   4.645  16.484  0.00  0.00    +0.000 A 
ATOM     17  C   UNL     1       5.123   3.528  15.838  0.00  0.00    +0.000 A 
ATOM     18  C   UNL     1       6.248   3.693  15.020  0.00  0.00    +0.000 A 
ATOM     19  C   UNL     1       6.782   4.962  14.788  0.00  0.00    +0.000 A 
ATOM     20  C   UNL     1       6.116   6.089  15.254  0.00  0.00    +0.000 A 
ATOM     21  C   UNL     1       4.984   5.935  16.054  0.00  0.00    +0.000 A 
ENDBRANCH  15  16
BRANCH   1  23
ATOM     22  C   UNL     1      -0.360   8.870  22.416  0.00  0.00    +0.000 C 
ATOM     23  C   UNL     1       0.641   9.364  21.377  0.00  0.00    +0.000 C 
ENDBRANCH   1  23
TORSDOF 2
ENDMDL
MODEL 5
REMARK VINA RESULT:      -7.7      3.797      5.009
REMARK  Name = 
REMARK  3 active torsions:
REMARK  status: ('A' for Active; 'I' for Inactive)
REMARK    1  A    between atoms: C_1  and  C_2
REMARK    2  A    between atoms: C_2  and  C_3
REMARK    3  A    between atoms: C_17  and  C_18
REMARK                            x       y       z     vdW  Elec       q    Type
REMARK                         _______ _______ _______ _____ _____    ______ ____
ROOT
ATOM      1  C   UNL     1       1.954   3.009  18.989  0.00  0.00    +0.000 A 
ATOM      2  C   UNL     1       2.287   2.623  17.670  0.00  0.00    +0.000 A 
ATOM      3  C   UNL     1       3.403   3.172  17.007  0.00  0.00    +0.000 A 
ATOM      4  C   UNL     1       4.289   4.061  17.666  0.00  0.00    +0.000 A 
ATOM      5  C   UNL     1       5.480   4.638  17.119  0.00  0.00    +0.000 A 
ATOM      6  C   UNL     1       6.383   5.234  18.013  0.00  0.00    +0.000 A 
ATOM      7  C   UNL     1       6.053   5.523  19.323  0.00  0.00    +0.000 A 
ATOM      8  C   UNL     1       4.799   5.183  19.790  0.00  0.00    +0.000 A 
ATOM      9  C   UNL     1       3.955   4.396  19.010  0.00  0.00    +0.000 A 
ATOM     10  C   UNL     1       2.781   3.934  19.613  0.00  0.00    +0.000 A 
ATOM     11  O   UNL     1       7.613   5.676  17.574  0.00  0.00    +0.000 OA
ATOM     12  C   UNL     1       7.410   6.684  16.673  0.00  0.00    +0.000 C 
ATOM     13  O   UNL     1       8.114   7.688  16.702  0.00  0.00    +0.000 OA
ATOM     14  C   UNL     1       6.308   6.500  15.670  0.00  0.00    +0.000 C 
ATOM     15  C   UNL     1       5.638   5.083  15.670  0.00  0.00    +0.000 C 
ENDROOT
BRANCH  15  16
ATOM     16  C   UNL     1       6.398   4.324  14.573  0.00  0.00    +0.000 A 
ATOM     17  C   UNL     1       7.539   4.879  13.982  0.00  0.00    +0.000 A 
ATOM     18  C   UNL     1       7.673   4.839  12.589  0.00  0.00    +0.000 A 
ATOM     19  C   UNL     1       6.721   4.190  11.799  0.00  0.00    +0.000 A 
ATOM     20  C   UNL     1       5.706   3.455  12.402  0.00  0.00    +0.000 A 
ATOM     21  C   UNL     1       5.577   3.474  13.789  0.00  0.00    +0.000 A 
ENDBRANCH  15  16
BRANCH   1  23
ATOM     22  C   UNL     1       0.963   2.633  21.258  0.00  0.00    +0.000 C 
ATOM     23  C   UNL     1       0.815   2.404  19.757  0.00  0.00    +0.000 C 
ENDBRANCH   1  23
TORSDOF 2
ENDMDL
MODEL 6
REMARK VINA RESULT:      -7.6      3.598      7.890
REMARK  Name = 
REMARK  3 active torsions:
REMARK  status: ('A' for Active; 'I' for Inactive)
REMARK    1  A    between atoms: C_1  and  C_2
REMARK    2  A    between atoms: C_2  and  C_3
REMARK    3  A    between atoms: C_17  and  C_18
REMARK                            x       y       z     vdW  Elec       q    Type
REMARK                         _______ _______ _______ _____ _____    ______ ____
ROOT
ATOM      1  C   UNL     1       2.596   6.706  18.548  0.00  0.00    +0.000 A 
ATOM      2  C   UNL     1       2.571   7.817  17.674  0.00  0.00    +0.000 A 
ATOM      3  C   UNL     1       1.988   9.040  18.061  0.00  0.00    +0.000 A 
ATOM      4  C   UNL     1       1.485   9.235  19.372  0.00  0.00    +0.000 A 
ATOM      5  C   UNL     1       0.923  10.442  19.898  0.00  0.00    +0.000 A 
ATOM      6  C   UNL     1       0.774  10.537  21.290  0.00  0.00    +0.000 A 
ATOM      7  C   UNL     1       0.886   9.444  22.127  0.00  0.00    +0.000 A 
ATOM      8  C   UNL     1       1.192   8.212  21.585  0.00  0.00    +0.000 A 
ATOM      9  C   UNL     1       1.565   8.113  20.246  0.00  0.00    +0.000 A 
ATOM     10  C   UNL     1       2.040   6.873  19.810  0.00  0.00    +0.000 A 
ATOM     11  O   UNL     1       0.378  11.722  21.872  0.00  0.00    +0.000 OA
ATOM     12  C   UNL     1      -0.887  12.012  21.439  0.00  0.00    +0.000 C 
ATOM     13  O   UNL     1      -1.725  12.440  22.224  0.00  0.00    +0.000 OA
ATOM     14  C   UNL     1      -1.185  11.786  19.984  0.00  0.00    +0.000 C 
ATOM     15  C   UNL     1       0.055  11.410  19.102  0.00  0.00    +0.000 C 
ENDROOT
BRANCH  15  16
ATOM     16  C   UNL     1       0.508  12.757  18.523  0.00  0.00    +0.000 A 
ATOM     17  C   UNL     1       1.840  13.171  18.639  0.00  0.00    +0.000 A 
ATOM     18  C   UNL     1       2.114  14.484  19.042  0.00  0.00    +0.000 A 
ATOM     19  C   UNL     1       1.077  15.396  19.254  0.00  0.00    +0.000 A 
ATOM     20  C   UNL     1      -0.229  15.047  18.930  0.00  0.00    +0.000 A 
ATOM     21  C   UNL     1      -0.508  13.747  18.510  0.00  0.00    +0.000 A 
ENDBRANCH  15  16
BRANCH   1  23
ATOM     22  C   UNL     1       2.249   4.344  17.792  0.00  0.00    +0.000 C 
ATOM     23  C   UNL     1       3.263   5.406  18.203  0.00  0.00    +0.000 C 
ENDBRANCH   1  23
TORSDOF 2
ENDMDL
MODEL 7
REMARK VINA RESULT:      -7.5      5.660      8.952
REMARK  Name = 
REMARK  3 active torsions:
REMARK  status: ('A' for Active; 'I' for Inactive)
REMARK    1  A    between atoms: C_1  and  C_2
REMARK    2  A    between atoms: C_2  and  C_3
REMARK    3  A    between atoms: C_17  and  C_18
REMARK                            x       y       z     vdW  Elec       q    Type
REMARK                         _______ _______ _______ _____ _____    ______ ____
ROOT
ATOM      1  C   UNL     1      -3.100  10.808  16.726  0.00  0.00    +0.000 A 
ATOM      2  C   UNL     1      -3.594  11.571  17.809  0.00  0.00    +0.000 A 
ATOM      3  C   UNL     1      -2.900  11.637  19.034  0.00  0.00    +0.000 A 
ATOM      4  C   UNL     1      -1.635  11.018  19.200  0.00  0.00    +0.000 A 
ATOM      5  C   UNL     1      -0.813  11.060  20.372  0.00  0.00    +0.000 A 
ATOM      6  C   UNL     1       0.526  10.660  20.240  0.00  0.00    +0.000 A 
ATOM      7  C   UNL     1       0.996   9.987  19.130  0.00  0.00    +0.000 A 
ATOM      8  C   UNL     1       0.131   9.725  18.087  0.00  0.00    +0.000 A 
ATOM      9  C   UNL     1      -1.141  10.295  18.077  0.00  0.00    +0.000 A 
ATOM     10  C   UNL     1      -1.894  10.143  16.910  0.00  0.00    +0.000 A 
ATOM     11  O   UNL     1       1.408  10.815  21.289  0.00  0.00    +0.000 OA
ATOM     12  C   UNL     1       0.985  10.029  22.325  0.00  0.00    +0.000 C 
ATOM     13  O   UNL     1       1.795   9.379  22.976  0.00  0.00    +0.000 OA
ATOM     14  C   UNL     1      -0.488  10.008  22.617  0.00  0.00    +0.000 C 
ATOM     15  C   UNL     1      -1.342  11.037  21.801  0.00  0.00    +0.000 C 
ENDROOT
BRANCH  15  16
ATOM     16  C   UNL     1      -1.447  12.247  22.741  0.00  0.00    +0.000 A 
ATOM     17  C   UNL     1      -2.605  12.465  23.496  0.00  0.00    +0.000 A 
ATOM     18  C   UNL     1      -3.154  13.752  23.545  0.00  0.00    +0.000 A 
ATOM     19  C   UNL     1      -2.519  14.823  22.913  0.00  0.00    +0.000 A 
ATOM     20  C   UNL     1      -1.261  14.647  22.349  0.00  0.00    +0.000 A 
ATOM     21  C   UNL     1      -0.698  13.373  22.312  0.00  0.00    +0.000 A 
ENDBRANCH  15  16
BRANCH   1  23
ATOM     22  C   UNL     1      -2.921  10.021  14.356  0.00  0.00    +0.000 C 
ATOM     23  C   UNL     1      -3.770  10.761  15.384  0.00  0.00    +0.000 C 
ENDBRANCH   1  23
TORSDOF 2
ENDMDL
MODEL 8
REMARK VINA RESULT:      -7.4      3.036      6.616
REMARK  Name = 
REMARK  3 active torsions:
REMARK  status: ('A' for Active; 'I' for Inactive)
REMARK    1  A    between atoms: C_1  and  C_2
REMARK    2  A    between atoms: C_2  and  C_3
REMARK    3  A    between atoms: C_17  and  C_18
REMARK                            x       y       z     vdW  Elec       q    Type
REMARK                         _______ _______ _______ _____ _____    ______ ____
ROOT
ATOM      1  C   UNL     1       6.809   4.783  13.598  0.00  0.00    +0.000 A 
ATOM      2  C   UNL     1       5.410   4.591  13.661  0.00  0.00    +0.000 A 
ATOM      3  C   UNL     1       4.771   4.258  14.873  0.00  0.00    +0.000 A 
ATOM      4  C   UNL     1       5.490   4.193  16.093  0.00  0.00    +0.000 A 
ATOM      5  C   UNL     1       4.947   3.921  17.389  0.00  0.00    +0.000 A 
ATOM      6  C   UNL     1       5.750   4.208  18.504  0.00  0.00    +0.000 A 
ATOM      7  C   UNL     1       7.101   4.473  18.399  0.00  0.00    +0.000 A 
ATOM      8  C   UNL     1       7.687   4.495  17.150  0.00  0.00    +0.000 A 
ATOM      9  C   UNL     1       6.892   4.436  16.007  0.00  0.00    +0.000 A 
ATOM     10  C   UNL     1       7.527   4.650  14.780  0.00  0.00    +0.000 A 
ATOM     11  O   UNL     1       5.237   4.109  19.780  0.00  0.00    +0.000 OA
ATOM     12  C   UNL     1       4.903   2.802  20.008  0.00  0.00    +0.000 C 
ATOM     13  O   UNL     1       5.159   2.280  21.087  0.00  0.00    +0.000 OA
ATOM     14  C   UNL     1       4.220   2.061  18.895  0.00  0.00    +0.000 C 
ATOM     15  C   UNL     1       3.813   2.940  17.662  0.00  0.00    +0.000 C 
ENDROOT
BRANCH  15  16
ATOM     16  C   UNL     1       2.351   3.311  17.950  0.00  0.00    +0.000 A 
ATOM     17  C   UNL     1       2.016   4.598  18.387  0.00  0.00    +0.000 A 
ATOM     18  C   UNL     1       1.128   4.744  19.460  0.00  0.00    +0.000 A 
ATOM     19  C   UNL     1       0.525   3.627  20.044  0.00  0.00    +0.000 A 
ATOM     20  C   UNL     1       0.691   2.372  19.471  0.00  0.00    +0.000 A 
ATOM     21  C   UNL     1       1.558   2.221  18.390  0.00  0.00    +0.000 A 
ENDBRANCH  15  16
BRANCH   1  23
ATOM     22  C   UNL     1       8.742   6.066  12.654  0.00  0.00    +0.000 C 
ATOM     23  C   UNL     1       7.524   5.201  12.346  0.00  0.00    +0.000 C 
ENDBRANCH   1  23
TORSDOF 2
ENDMDL
MODEL 9
REMARK VINA RESULT:      -7.3      2.524      6.451
REMARK  Name = 
REMARK  3 active torsions:
REMARK  status: ('A' for Active; 'I' for Inactive)
REMARK    1  A    between atoms: C_1  and  C_2
REMARK    2  A    between atoms: C_2  and  C_3
REMARK    3  A    between atoms: C_17  and  C_18
REMARK                            x       y       z     vdW  Elec       q    Type
REMARK                         _______ _______ _______ _____ _____    ______ ____
ROOT
ATOM      1  C   UNL     1       6.756   4.815  14.380  0.00  0.00    +0.000 A 
ATOM      2  C   UNL     1       6.333   3.634  15.030  0.00  0.00    +0.000 A 
ATOM      3  C   UNL     1       5.435   3.677  16.116  0.00  0.00    +0.000 A 
ATOM      4  C   UNL     1       4.849   4.896  16.540  0.00  0.00    +0.000 A 
ATOM      5  C   UNL     1       3.888   5.060  17.588  0.00  0.00    +0.000 A 
ATOM      6  C   UNL     1       3.197   6.280  17.651  0.00  0.00    +0.000 A 
ATOM      7  C   UNL     1       3.589   7.395  16.937  0.00  0.00    +0.000 A 
ATOM      8  C   UNL     1       4.681   7.307  16.098  0.00  0.00    +0.000 A 
ATOM      9  C   UNL     1       5.259   6.066  15.836  0.00  0.00    +0.000 A 
ATOM     10  C   UNL     1       6.237   6.019  14.839  0.00  0.00    +0.000 A 
ATOM     11  O   UNL     1       2.157   6.450  18.540  0.00  0.00    +0.000 OA
ATOM     12  C   UNL     1       2.657   6.350  19.809  0.00  0.00    +0.000 C 
ATOM     13  O   UNL     1       2.283   7.126  20.682  0.00  0.00    +0.000 OA
ATOM     14  C   UNL     1       3.661   5.265  20.070  0.00  0.00    +0.000 C 
ATOM     15  C   UNL     1       3.880   4.262  18.886  0.00  0.00    +0.000 C 
ENDROOT
BRANCH  15  16
ATOM     16  C   UNL     1       2.936   3.098  19.220  0.00  0.00    +0.000 A 
ATOM     17  C   UNL     1       1.949   2.697  18.312  0.00  0.00    +0.000 A 
ATOM     18  C   UNL     1       0.651   2.458  18.779  0.00  0.00    +0.000 A 
ATOM     19  C   UNL     1       0.354   2.543  20.141  0.00  0.00    +0.000 A 
ATOM     20  C   UNL     1       1.379   2.728  21.062  0.00  0.00    +0.000 A 
ATOM     21  C   UNL     1       2.678   2.948  20.607  0.00  0.00    +0.000 A 
ENDBRANCH  15  16
BRANCH   1  23
ATOM     22  C   UNL     1       7.064   4.007  12.029  0.00  0.00    +0.000 C 
ATOM     23  C   UNL     1       7.659   4.812  13.180  0.00  0.00    +0.000 C 
ENDBRANCH   1  23
TORSDOF 2
ENDMDL
