MODEL 1
REMARK VINA RESULT:      -7.8      0.000      0.000
REMARK  Name = 
REMARK  3 active torsions:
REMARK  status: ('A' for Active; 'I' for Inactive)
REMARK    1  A    between atoms: C_2  and  C_3
REMARK    2  A    between atoms: C_11  and  C_12
REMARK    3  A    between atoms: C_14  and  C_15
REMARK                            x       y       z     vdW  Elec       q    Type
REMARK                         _______ _______ _______ _____ _____    ______ ____
ROOT
ATOM      1  C   UNL     1       4.483   4.169  17.753  0.00  0.00    +0.000 A 
ATOM      2  N   UNL     1       4.471   4.070  16.438  0.00  0.00    +0.000 NA
ATOM      3  C   UNL     1       5.794   4.286  16.105  0.00  0.00    +0.000 A 
ATOM      4  N   UNL     1       6.603   4.429  17.167  0.00  0.00    +0.000 NA
ATOM      5  O   UNL     1       5.737   4.379  18.254  0.00  0.00    +0.000 OA
ENDROOT
BRANCH   1  13
ATOM      6  O   UNL     1       3.515   6.671  17.915  0.00  0.00    +0.000 OA
ATOM      7  C   UNL     1       2.653   6.303  18.696  0.00  0.00    +0.000 C 
ATOM      8  N   UNL     1       2.607   5.034  19.278  0.00  0.00    +0.000 N 
ATOM      9  C   UNL     1       1.538   4.639  20.206  0.00  0.00    +0.000 C 
ATOM     10  C   UNL     1       2.060   3.806  21.367  0.00  0.00    +0.000 C 
ATOM     11  C   UNL     1       2.839   2.597  20.880  0.00  0.00    +0.000 C 
ATOM     12  C   UNL     1       3.928   3.015  19.898  0.00  0.00    +0.000 C 
ATOM     13  C   UNL     1       3.386   3.882  18.738  0.00  0.00    +0.000 C 
BRANCH   7  14
ATOM     14  C   UNL     1       1.589   7.290  19.102  0.00  0.00    +0.000 C 
ATOM     15  C   UNL     1       1.840   8.191  20.291  0.00  0.00    +0.000 C 
ATOM     16  C   UNL     1       1.755   8.776  18.913  0.00  0.00    +0.000 C 
ENDBRANCH   7  14
ENDBRANCH   1  13
BRANCH   3  17
ATOM     17  C   UNL     1       6.264   4.297  14.721  0.00  0.00    +0.000 A 
ATOM     18  C   UNL     1       5.654   3.493  13.741  0.00  0.00    +0.000 A 
ATOM     19  C   UNL     1       6.099   3.511  12.415  0.00  0.00    +0.000 A 
ATOM     20  C   UNL     1       7.164   4.334  12.054  0.00  0.00    +0.000 A 
ATOM     21  C   UNL     1       7.772   5.126  13.022  0.00  0.00    +0.000 A 
ATOM     22  F   UNL     1       8.796   5.917  12.673  0.00  0.00    +0.000 F 
ATOM     23  C   UNL     1       7.335   5.116  14.344  0.00  0.00    +0.000 A 
ENDBRANCH   3  17
TORSDOF 3
ENDMDL
MODEL 2
REMARK VINA RESULT:      -7.8      1.007      1.422
REMARK  Name = 
REMARK  3 active torsions:
REMARK  status: ('A' for Active; 'I' for Inactive)
REMARK    1  A    between atoms: C_2  and  C_3
REMARK    2  A    between atoms: C_11  and  C_12
REMARK    3  A    between atoms: C_14  and  C_15
REMARK                            x       y       z     vdW  Elec       q    Type
REMARK                         _______ _______ _______ _____ _____    ______ ____
ROOT
ATOM      1  C   UNL     1       4.511   4.192  17.686  0.00  0.00    +0.000 A 
ATOM      2  N   UNL     1       4.490   4.057  16.374  0.00  0.00    +0.000 NA
ATOM      3  C   UNL     1       5.805   4.292  16.024  0.00  0.00    +0.000 A 
ATOM      4  N   UNL     1       6.619   4.480  17.075  0.00  0.00    +0.000 NA
ATOM      5  O   UNL     1       5.764   4.442  18.170  0.00  0.00    +0.000 OA
ENDROOT
BRANCH   1  13
ATOM      6  O   UNL     1       3.525   6.689  17.828  0.00  0.00    +0.000 OA
ATOM      7  C   UNL     1       2.675   6.325  18.624  0.00  0.00    +0.000 C 
ATOM      8  N   UNL     1       2.645   5.062  19.222  0.00  0.00    +0.000 N 
ATOM      9  C   UNL     1       1.591   4.672  20.168  0.00  0.00    +0.000 C 
ATOM     10  C   UNL     1       2.133   3.857  21.332  0.00  0.00    +0.000 C 
ATOM     11  C   UNL     1       2.916   2.648  20.852  0.00  0.00    +0.000 C 
ATOM     12  C   UNL     1       3.990   3.062  19.852  0.00  0.00    +0.000 C 
ATOM     13  C   UNL     1       3.428   3.910  18.688  0.00  0.00    +0.000 C 
BRANCH   7  14
ATOM     14  C   UNL     1       1.609   7.308  19.030  0.00  0.00    +0.000 C 
ATOM     15  C   UNL     1       1.849   8.196  20.230  0.00  0.00    +0.000 C 
ATOM     16  C   UNL     1       1.778   8.796  18.858  0.00  0.00    +0.000 C 
ENDBRANCH   7  14
ENDBRANCH   1  13
BRANCH   3  17
ATOM     17  C   UNL     1       6.264   4.275  14.636  0.00  0.00    +0.000 A 
ATOM     18  C   UNL     1       7.328   5.095  14.215  0.00  0.00    +0.000 A 
ATOM     19  C   UNL     1       7.772   5.072  12.888  0.00  0.00    +0.000 A 
ATOM     20  C   UNL     1       7.155   4.229  11.967  0.00  0.00    +0.000 A 
ATOM     21  C   UNL     1       6.101   3.422  12.380  0.00  0.00    +0.000 A 
ATOM     22  F   UNL     1       5.508   2.613  11.491  0.00  0.00    +0.000 F 
ATOM     23  C   UNL     1       5.652   3.436  13.697  0.00  0.00    +0.000 A 
ENDBRANCH   3  17
TORSDOF 3
ENDMDL
MODEL 3
REMARK VINA RESULT:      -7.3      4.670      7.700
REMARK  Name = 
REMARK  3 active torsions:
REMARK  status: ('A' for Active; 'I' for Inactive)
REMARK    1  A    between atoms: C_2  and  C_3
REMARK    2  A    between atoms: C_11  and  C_12
REMARK    3  A    between atoms: C_14  and  C_15
REMARK                            x       y       z     vdW  Elec       q    Type
REMARK                         _______ _______ _______ _____ _____    ______ ____
ROOT
ATOM      1  C   UNL     1       1.390   9.906  18.641  0.00  0.00    +0.000 A 
ATOM      2  N   UNL     1       1.482   8.798  19.350  0.00  0.00    +0.000 NA
ATOM      3  C   UNL     1       2.189   7.959  18.511  0.00  0.00    +0.000 A 
ATOM      4  N   UNL     1       2.590   8.544  17.371  0.00  0.00    +0.000 NA
ATOM      5  O   UNL     1       2.041   9.820  17.442  0.00  0.00    +0.000 OA
ENDROOT
BRANCH   1  13
ATOM      6  O   UNL     1      -1.090   9.628  17.642  0.00  0.00    +0.000 OA
ATOM      7  C   UNL     1      -1.394  10.737  18.047  0.00  0.00    +0.000 C 
ATOM      8  N   UNL     1      -0.488  11.657  18.582  0.00  0.00    +0.000 N 
ATOM      9  C   UNL     1      -0.911  12.978  19.064  0.00  0.00    +0.000 C 
ATOM     10  C   UNL     1       0.082  14.071  18.699  0.00  0.00    +0.000 C 
ATOM     11  C   UNL     1       1.484  13.734  19.176  0.00  0.00    +0.000 C 
ATOM     12  C   UNL     1       1.902  12.351  18.691  0.00  0.00    +0.000 C 
ATOM     13  C   UNL     1       0.871  11.255  19.048  0.00  0.00    +0.000 C 
BRANCH   7  14
ATOM     14  C   UNL     1      -2.831  11.173  17.925  0.00  0.00    +0.000 C 
ATOM     15  C   UNL     1      -3.475  11.200  16.557  0.00  0.00    +0.000 C 
ATOM     16  C   UNL     1      -3.938  10.209  17.582  0.00  0.00    +0.000 C 
ENDBRANCH   7  14
ENDBRANCH   1  13
BRANCH   3  17
ATOM     17  C   UNL     1       2.515   6.580  18.871  0.00  0.00    +0.000 A 
ATOM     18  C   UNL     1       3.139   5.718  17.950  0.00  0.00    +0.000 A 
ATOM     19  C   UNL     1       3.458   4.402  18.298  0.00  0.00    +0.000 A 
ATOM     20  C   UNL     1       3.153   3.930  19.573  0.00  0.00    +0.000 A 
ATOM     21  C   UNL     1       2.531   4.778  20.483  0.00  0.00    +0.000 A 
ATOM     22  F   UNL     1       2.238   4.322  21.709  0.00  0.00    +0.000 F 
ATOM     23  C   UNL     1       2.211   6.090  20.147  0.00  0.00    +0.000 A 
ENDBRANCH   3  17
TORSDOF 3
ENDMDL
MODEL 4
REMARK VINA RESULT:      -7.3      4.330      7.531
REMARK  Name = 
REMARK  3 active torsions:
REMARK  status: ('A' for Active; 'I' for Inactive)
REMARK    1  A    between atoms: C_2  and  C_3
REMARK    2  A    between atoms: C_11  and  C_12
REMARK    3  A    between atoms: C_14  and  C_15
REMARK                            x       y       z     vdW  Elec       q    Type
REMARK                         _______ _______ _______ _____ _____    ______ ____
ROOT
ATOM      1  C   UNL     1       1.382   9.953  18.654  0.00  0.00    +0.000 A 
ATOM      2  N   UNL     1       1.470   8.851  19.373  0.00  0.00    +0.000 NA
ATOM      3  C   UNL     1       2.167   7.999  18.539  0.00  0.00    +0.000 A 
ATOM      4  N   UNL     1       2.565   8.572  17.391  0.00  0.00    +0.000 NA
ATOM      5  O   UNL     1       2.025   9.852  17.453  0.00  0.00    +0.000 OA
ENDROOT
BRANCH   1  13
ATOM      6  O   UNL     1      -1.100   9.688  17.656  0.00  0.00    +0.000 OA
ATOM      7  C   UNL     1      -1.395  10.803  18.053  0.00  0.00    +0.000 C 
ATOM      8  N   UNL     1      -0.482  11.719  18.581  0.00  0.00    +0.000 N 
ATOM      9  C   UNL     1      -0.894  13.047  19.054  0.00  0.00    +0.000 C 
ATOM     10  C   UNL     1       0.109  14.130  18.681  0.00  0.00    +0.000 C 
ATOM     11  C   UNL     1       1.507  13.784  19.161  0.00  0.00    +0.000 C 
ATOM     12  C   UNL     1       1.914  12.394  18.686  0.00  0.00    +0.000 C 
ATOM     13  C   UNL     1       0.873  11.310  19.051  0.00  0.00    +0.000 C 
BRANCH   7  14
ATOM     14  C   UNL     1      -2.829  11.250  17.927  0.00  0.00    +0.000 C 
ATOM     15  C   UNL     1      -3.487  11.226  16.565  0.00  0.00    +0.000 C 
ATOM     16  C   UNL     1      -3.950  10.286  17.637  0.00  0.00    +0.000 C 
ENDBRANCH   7  14
ENDBRANCH   1  13
BRANCH   3  17
ATOM     17  C   UNL     1       2.485   6.622  18.910  0.00  0.00    +0.000 A 
ATOM     18  C   UNL     1       2.126   6.109  20.170  0.00  0.00    +0.000 A 
ATOM     19  C   UNL     1       2.423   4.788  20.521  0.00  0.00    +0.000 A 
ATOM     20  C   UNL     1       3.087   3.964  19.614  0.00  0.00    +0.000 A 
ATOM     21  C   UNL     1       3.447   4.470  18.370  0.00  0.00    +0.000 A 
ATOM     22  F   UNL     1       4.086   3.676  17.500  0.00  0.00    +0.000 F 
ATOM     23  C   UNL     1       3.155   5.783  18.011  0.00  0.00    +0.000 A 
ENDBRANCH   3  17
TORSDOF 3
ENDMDL
MODEL 5
REMARK VINA RESULT:      -7.1      1.642      3.385
REMARK  Name = 
REMARK  3 active torsions:
REMARK  status: ('A' for Active; 'I' for Inactive)
REMARK    1  A    between atoms: C_2  and  C_3
REMARK    2  A    between atoms: C_11  and  C_12
REMARK    3  A    between atoms: C_14  and  C_15
REMARK                            x       y       z     vdW  Elec       q    Type
REMARK                         _______ _______ _______ _____ _____    ______ ____
ROOT
ATOM      1  C   UNL     1       5.075   5.817  17.283  0.00  0.00    +0.000 A 
ATOM      2  N   UNL     1       4.955   5.686  15.976  0.00  0.00    +0.000 NA
ATOM      3  C   UNL     1       6.079   4.957  15.640  0.00  0.00    +0.000 A 
ATOM      4  N   UNL     1       6.817   4.583  16.698  0.00  0.00    +0.000 NA
ATOM      5  O   UNL     1       6.172   5.172  17.780  0.00  0.00    +0.000 OA
ENDROOT
BRANCH   1  13
ATOM      6  O   UNL     1       3.892   3.494  17.937  0.00  0.00    +0.000 OA
ATOM      7  C   UNL     1       3.167   4.068  18.732  0.00  0.00    +0.000 C 
ATOM      8  N   UNL     1       3.071   5.457  18.849  0.00  0.00    +0.000 N 
ATOM      9  C   UNL     1       2.188   6.098  19.833  0.00  0.00    +0.000 C 
ATOM     10  C   UNL     1       1.492   7.328  19.270  0.00  0.00    +0.000 C 
ATOM     11  C   UNL     1       2.488   8.320  18.697  0.00  0.00    +0.000 C 
ATOM     12  C   UNL     1       3.415   7.639  17.696  0.00  0.00    +0.000 C 
ATOM     13  C   UNL     1       4.096   6.377  18.276  0.00  0.00    +0.000 C 
BRANCH   7  14
ATOM     14  C   UNL     1       2.280   3.236  19.620  0.00  0.00    +0.000 C 
ATOM     15  C   UNL     1       0.905   2.847  19.126  0.00  0.00    +0.000 C 
ATOM     16  C   UNL     1       1.958   1.796  19.314  0.00  0.00    +0.000 C 
ENDBRANCH   7  14
ENDBRANCH   1  13
BRANCH   3  17
ATOM     17  C   UNL     1       6.393   4.586  14.262  0.00  0.00    +0.000 A 
ATOM     18  C   UNL     1       7.468   5.182  13.577  0.00  0.00    +0.000 A 
ATOM     19  C   UNL     1       7.772   4.820  12.261  0.00  0.00    +0.000 A 
ATOM     20  C   UNL     1       7.002   3.856  11.613  0.00  0.00    +0.000 A 
ATOM     21  C   UNL     1       5.936   3.270  12.286  0.00  0.00    +0.000 A 
ATOM     22  F   UNL     1       5.196   2.344  11.660  0.00  0.00    +0.000 F 
ATOM     23  C   UNL     1       5.625   3.622  13.596  0.00  0.00    +0.000 A 
ENDBRANCH   3  17
TORSDOF 3
ENDMDL
MODEL 6
REMARK VINA RESULT:      -7.1      4.202      7.794
REMARK  Name = 
REMARK  3 active torsions:
REMARK  status: ('A' for Active; 'I' for Inactive)
REMARK    1  A    between atoms: C_2  and  C_3
REMARK    2  A    between atoms: C_11  and  C_12
REMARK    3  A    between atoms: C_14  and  C_15
REMARK                            x       y       z     vdW  Elec       q    Type
REMARK                         _______ _______ _______ _____ _____    ______ ____
ROOT
ATOM      1  C   UNL     1       2.359   6.203  19.212  0.00  0.00    +0.000 A 
ATOM      2  N   UNL     1       1.839   6.883  20.216  0.00  0.00    +0.000 NA
ATOM      3  C   UNL     1       1.568   8.110  19.643  0.00  0.00    +0.000 A 
ATOM      4  N   UNL     1       1.830   8.163  18.327  0.00  0.00    +0.000 NA
ATOM      5  O   UNL     1       2.377   6.915  18.046  0.00  0.00    +0.000 OA
ENDROOT
BRANCH   1  13
ATOM      6  O   UNL     1       5.017   6.529  18.974  0.00  0.00    +0.000 OA
ATOM      7  C   UNL     1       5.179   5.321  18.947  0.00  0.00    +0.000 C 
ATOM      8  N   UNL     1       4.142   4.389  18.852  0.00  0.00    +0.000 N 
ATOM      9  C   UNL     1       4.392   2.942  18.832  0.00  0.00    +0.000 C 
ATOM     10  C   UNL     1       3.490   2.212  17.849  0.00  0.00    +0.000 C 
ATOM     11  C   UNL     1       2.024   2.513  18.107  0.00  0.00    +0.000 C 
ATOM     12  C   UNL     1       1.780   4.017  18.150  0.00  0.00    +0.000 C 
ATOM     13  C   UNL     1       2.722   4.747  19.136  0.00  0.00    +0.000 C 
BRANCH   7  14
ATOM     14  C   UNL     1       6.587   4.788  18.971  0.00  0.00    +0.000 C 
ATOM     15  C   UNL     1       7.426   4.874  17.715  0.00  0.00    +0.000 C 
ATOM     16  C   UNL     1       7.791   5.693  18.917  0.00  0.00    +0.000 C 
ENDBRANCH   7  14
ENDBRANCH   1  13
BRANCH   3  17
ATOM     17  C   UNL     1       0.995   9.221  20.400  0.00  0.00    +0.000 A 
ATOM     18  C   UNL     1       0.914  10.511  19.844  0.00  0.00    +0.000 A 
ATOM     19  C   UNL     1       0.357  11.572  20.566  0.00  0.00    +0.000 A 
ATOM     20  C   UNL     1      -0.125  11.354  21.855  0.00  0.00    +0.000 A 
ATOM     21  C   UNL     1      -0.041  10.081  22.408  0.00  0.00    +0.000 A 
ATOM     22  F   UNL     1      -0.504   9.874  23.649  0.00  0.00    +0.000 F 
ATOM     23  C   UNL     1       0.510   9.018  21.698  0.00  0.00    +0.000 A 
ENDBRANCH   3  17
TORSDOF 3
ENDMDL
MODEL 7
REMARK VINA RESULT:      -7.1      4.901      6.438
REMARK  Name = 
REMARK  3 active torsions:
REMARK  status: ('A' for Active; 'I' for Inactive)
REMARK    1  A    between atoms: C_2  and  C_3
REMARK    2  A    between atoms: C_11  and  C_12
REMARK    3  A    between atoms: C_14  and  C_15
REMARK                            x       y       z     vdW  Elec       q    Type
REMARK                         _______ _______ _______ _____ _____    ______ ____
ROOT
ATOM      1  C   UNL     1       7.046   6.908  17.356  0.00  0.00    +0.000 A 
ATOM      2  N   UNL     1       7.237   8.205  17.212  0.00  0.00    +0.000 NA
ATOM      3  C   UNL     1       8.151   8.490  18.206  0.00  0.00    +0.000 A 
ATOM      4  N   UNL     1       8.571   7.408  18.882  0.00  0.00    +0.000 NA
ATOM      5  O   UNL     1       7.824   6.367  18.341  0.00  0.00    +0.000 OA
ENDROOT
BRANCH   1  13
ATOM      6  O   UNL     1       5.269   6.105  19.206  0.00  0.00    +0.000 OA
ATOM      7  C   UNL     1       4.721   5.384  18.389  0.00  0.00    +0.000 C 
ATOM      8  N   UNL     1       5.222   5.116  17.113  0.00  0.00    +0.000 N 
ATOM      9  C   UNL     1       4.515   4.246  16.163  0.00  0.00    +0.000 C 
ATOM     10  C   UNL     1       5.464   3.347  15.385  0.00  0.00    +0.000 C 
ATOM     11  C   UNL     1       6.551   4.149  14.692  0.00  0.00    +0.000 C 
ATOM     12  C   UNL     1       7.261   5.066  15.682  0.00  0.00    +0.000 C 
ATOM     13  C   UNL     1       6.282   5.955  16.481  0.00  0.00    +0.000 C 
BRANCH   7  14
ATOM     14  C   UNL     1       3.441   4.696  18.788  0.00  0.00    +0.000 C 
ATOM     15  C   UNL     1       3.508   3.501  19.712  0.00  0.00    +0.000 C 
ATOM     16  C   UNL     1       2.885   4.779  20.186  0.00  0.00    +0.000 C 
ENDBRANCH   7  14
ENDBRANCH   1  13
BRANCH   3  17
ATOM     17  C   UNL     1       8.650   9.842  18.452  0.00  0.00    +0.000 A 
ATOM     18  C   UNL     1       8.312  10.906  17.595  0.00  0.00    +0.000 A 
ATOM     19  C   UNL     1       8.783  12.201  17.836  0.00  0.00    +0.000 A 
ATOM     20  C   UNL     1       9.601  12.446  18.937  0.00  0.00    +0.000 A 
ATOM     21  C   UNL     1       9.940  11.395  19.782  0.00  0.00    +0.000 A 
ATOM     22  F   UNL     1      10.728  11.633  20.839  0.00  0.00    +0.000 F 
ATOM     23  C   UNL     1       9.476  10.103  19.552  0.00  0.00    +0.000 A 
ENDBRANCH   3  17
TORSDOF 3
ENDMDL
MODEL 8
REMARK VINA RESULT:      -6.9      4.745      6.349
REMARK  Name = 
REMARK  3 active torsions:
REMARK  status: ('A' for Active; 'I' for Inactive)
REMARK    1  A    between atoms: C_2  and  C_3
REMARK    2  A    between atoms: C_11  and  C_12
REMARK    3  A    between atoms: C_14  and  C_15
REMARK                            x       y       z     vdW  Elec       q    Type
REMARK                         _______ _______ _______ _____ _____    ______ ____
ROOT
ATOM      1  C   UNL     1       7.047   6.871  17.361  0.00  0.00    +0.000 A 
ATOM      2  N   UNL     1       7.222   8.172  17.235  0.00  0.00    +0.000 NA
ATOM      3  C   UNL     1       8.147   8.452  18.221  0.00  0.00    +0.000 A 
ATOM      4  N   UNL     1       8.589   7.364  18.873  0.00  0.00    +0.000 NA
ATOM      5  O   UNL     1       7.845   6.324  18.326  0.00  0.00    +0.000 OA
ENDROOT
BRANCH   1  13
ATOM      6  O   UNL     1       5.266   6.069  19.207  0.00  0.00    +0.000 OA
ATOM      7  C   UNL     1       4.716   5.352  18.387  0.00  0.00    +0.000 C 
ATOM      8  N   UNL     1       5.217   5.087  17.111  0.00  0.00    +0.000 N 
ATOM      9  C   UNL     1       4.508   4.223  16.158  0.00  0.00    +0.000 C 
ATOM     10  C   UNL     1       5.454   3.323  15.378  0.00  0.00    +0.000 C 
ATOM     11  C   UNL     1       6.545   4.123  14.688  0.00  0.00    +0.000 C 
ATOM     12  C   UNL     1       7.257   5.034  15.681  0.00  0.00    +0.000 C 
ATOM     13  C   UNL     1       6.280   5.925  16.483  0.00  0.00    +0.000 C 
BRANCH   7  14
ATOM     14  C   UNL     1       3.433   4.668  18.783  0.00  0.00    +0.000 C 
ATOM     15  C   UNL     1       3.495   3.473  19.708  0.00  0.00    +0.000 C 
ATOM     16  C   UNL     1       2.873   4.753  20.179  0.00  0.00    +0.000 C 
ENDBRANCH   7  14
ENDBRANCH   1  13
BRANCH   3  17
ATOM     17  C   UNL     1       8.635   9.805  18.480  0.00  0.00    +0.000 A 
ATOM     18  C   UNL     1       9.459  10.079  19.588  0.00  0.00    +0.000 A 
ATOM     19  C   UNL     1       9.932  11.373  19.830  0.00  0.00    +0.000 A 
ATOM     20  C   UNL     1       9.584  12.409  18.967  0.00  0.00    +0.000 A 
ATOM     21  C   UNL     1       8.766  12.142  17.875  0.00  0.00    +0.000 A 
ATOM     22  F   UNL     1       8.432  13.141  17.047  0.00  0.00    +0.000 F 
ATOM     23  C   UNL     1       8.291  10.858  17.624  0.00  0.00    +0.000 A 
ENDBRANCH   3  17
TORSDOF 3
ENDMDL
MODEL 9
REMARK VINA RESULT:      -6.9      3.839      7.601
REMARK  Name = 
REMARK  3 active torsions:
REMARK  status: ('A' for Active; 'I' for Inactive)
REMARK    1  A    between atoms: C_2  and  C_3
REMARK    2  A    between atoms: C_11  and  C_12
REMARK    3  A    between atoms: C_14  and  C_15
REMARK                            x       y       z     vdW  Elec       q    Type
REMARK                         _______ _______ _______ _____ _____    ______ ____
ROOT
ATOM      1  C   UNL     1       3.042   7.381  17.877  0.00  0.00    +0.000 A 
ATOM      2  N   UNL     1       2.332   8.379  17.389  0.00  0.00    +0.000 NA
ATOM      3  C   UNL     1       1.684   8.867  18.507  0.00  0.00    +0.000 A 
ATOM      4  N   UNL     1       2.040   8.255  19.648  0.00  0.00    +0.000 NA
ATOM      5  O   UNL     1       2.915   7.257  19.232  0.00  0.00    +0.000 OA
ENDROOT
BRANCH   1  13
ATOM      6  O   UNL     1       1.871   4.998  18.291  0.00  0.00    +0.000 OA
ATOM      7  C   UNL     1       2.775   4.433  17.699  0.00  0.00    +0.000 C 
ATOM      8  N   UNL     1       3.956   5.055  17.287  0.00  0.00    +0.000 N 
ATOM      9  C   UNL     1       5.011   4.328  16.567  0.00  0.00    +0.000 C 
ATOM     10  C   UNL     1       6.405   4.730  17.023  0.00  0.00    +0.000 C 
ATOM     11  C   UNL     1       6.611   6.232  16.932  0.00  0.00    +0.000 C 
ATOM     12  C   UNL     1       5.498   6.976  17.661  0.00  0.00    +0.000 C 
ATOM     13  C   UNL     1       4.087   6.538  17.203  0.00  0.00    +0.000 C 
BRANCH   7  14
ATOM     14  C   UNL     1       2.639   2.957  17.428  0.00  0.00    +0.000 C 
ATOM     15  C   UNL     1       3.226   1.973  18.415  0.00  0.00    +0.000 C 
ATOM     16  C   UNL     1       1.740   2.068  18.247  0.00  0.00    +0.000 C 
ENDBRANCH   7  14
ENDBRANCH   1  13
BRANCH   3  17
ATOM     17  C   UNL     1       0.745   9.985  18.446  0.00  0.00    +0.000 A 
ATOM     18  C   UNL     1       1.132  11.279  18.842  0.00  0.00    +0.000 A 
ATOM     19  C   UNL     1       0.235  12.350  18.775  0.00  0.00    +0.000 A 
ATOM     20  C   UNL     1      -1.063  12.138  18.313  0.00  0.00    +0.000 A 
ATOM     21  C   UNL     1      -1.449  10.859  17.927  0.00  0.00    +0.000 A 
ATOM     22  F   UNL     1      -2.697  10.658  17.484  0.00  0.00    +0.000 F 
ATOM     23  C   UNL     1      -0.563   9.787  17.988  0.00  0.00    +0.000 A 
ENDBRANCH   3  17
TORSDOF 3
ENDMDL
