MODEL 1
REMARK VINA RESULT:      -9.0      0.000      0.000
REMARK  Name = 
REMARK  6 active torsions:
REMARK  status: ('A' for Active; 'I' for Inactive)
REMARK    1  A    between atoms: O_1  and  C_2
REMARK    2  A    between atoms: C_6  and  C_7
REMARK    3  A    between atoms: N_13  and  C_14
REMARK    4  A    between atoms: C_14  and  C_15
REMARK    5  A    between atoms: C_15  and  C_16
REMARK    6  A    between atoms: C_23  and  O_24
REMARK                            x       y       z     vdW  Elec       q    Type
REMARK                         _______ _______ _______ _____ _____    ______ ____
ROOT
ATOM      1  C   UNL     1       4.450   5.036  17.699  0.00  0.00    +0.000 C 
ATOM      2  C   UNL     1       4.398   3.997  16.547  0.00  0.00    +0.000 C 
ATOM      3  C   UNL     1       5.405   4.201  15.420  0.00  0.00    +0.000 C 
ATOM      4  C   UNL     1       5.764   5.644  15.075  0.00  0.00    +0.000 C 
ATOM      5  C   UNL     1       5.638   6.688  16.197  0.00  0.00    +0.000 C 
ATOM      6  C   UNL     1       4.395   6.434  17.044  0.00  0.00    +0.000 C 
ATOM      7  N   UNL     1       6.854   6.764  17.022  0.00  0.00    +0.000 NA
ATOM      8  C   UNL     1       6.998   5.691  17.997  0.00  0.00    +0.000 C 
ATOM      9  C   UNL     1       5.753   4.959  18.557  0.00  0.00    +0.000 C 
ENDROOT
BRANCH   1  14
ATOM     10  C   UNL     1       1.223   3.541  19.255  0.00  0.00    +0.000 A 
ATOM     11  C   UNL     1       1.000   4.380  20.338  0.00  0.00    +0.000 A 
ATOM     12  C   UNL     1       1.890   5.420  20.578  0.00  0.00    +0.000 A 
ATOM     13  C   UNL     1       2.988   5.612  19.735  0.00  0.00    +0.000 A 
ATOM     14  C   UNL     1       3.227   4.774  18.626  0.00  0.00    +0.000 A 
ATOM     15  C   UNL     1       2.316   3.729  18.407  0.00  0.00    +0.000 A 
BRANCH  10  16
ATOM     16  O   UNL     1       0.375   2.510  18.971  0.00  0.00    +0.000 OA
ATOM     17  H   UNL     1      -0.031   2.675  18.107  0.00  0.00    +0.000 HD
ENDBRANCH  10  16
ENDBRANCH   1  14
BRANCH   9  18
ATOM     18  O   UNL     1       6.141   3.605  18.834  0.00  0.00    +0.000 OA
ATOM     19  H   UNL     1       6.940   3.627  19.391  0.00  0.00    +0.000 HD
ENDBRANCH   9  18
BRANCH   7  20
ATOM     20  C   UNL     1       7.094   8.137  17.521  0.00  0.00    +0.000 C 
BRANCH  20  21
ATOM     21  C   UNL     1       8.374   8.328  18.362  0.00  0.00    +0.000 C 
BRANCH  21  22
ATOM     22  C   UNL     1       8.725   9.782  18.560  0.00  0.00    +0.000 A 
ATOM     23  C   UNL     1       9.436  10.189  19.701  0.00  0.00    +0.000 A 
ATOM     24  C   UNL     1       9.798  11.525  19.868  0.00  0.00    +0.000 A 
ATOM     25  C   UNL     1       9.449  12.468  18.901  0.00  0.00    +0.000 A 
ATOM     26  C   UNL     1       8.735  12.077  17.771  0.00  0.00    +0.000 A 
ATOM     27  C   UNL     1       8.373  10.739  17.601  0.00  0.00    +0.000 A 
ENDBRANCH  21  22
ENDBRANCH  20  21
ENDBRANCH   7  20
TORSDOF 6
ENDMDL
MODEL 2
REMARK VINA RESULT:      -8.9      1.064      1.417
REMARK  Name = 
REMARK  6 active torsions:
REMARK  status: ('A' for Active; 'I' for Inactive)
REMARK    1  A    between atoms: O_1  and  C_2
REMARK    2  A    between atoms: C_6  and  C_7
REMARK    3  A    between atoms: N_13  and  C_14
REMARK    4  A    between atoms: C_14  and  C_15
REMARK    5  A    between atoms: C_15  and  C_16
REMARK    6  A    between atoms: C_23  and  O_24
REMARK                            x       y       z     vdW  Elec       q    Type
REMARK                         _______ _______ _______ _____ _____    ______ ____
ROOT
ATOM      1  C   UNL     1       4.551   5.181  17.786  0.00  0.00    +0.000 C 
ATOM      2  C   UNL     1       4.438   4.051  16.727  0.00  0.00    +0.000 C 
ATOM      3  C   UNL     1       5.434   4.116  15.575  0.00  0.00    +0.000 C 
ATOM      4  C   UNL     1       5.847   5.508  15.103  0.00  0.00    +0.000 C 
ATOM      5  C   UNL     1       5.783   6.647  16.133  0.00  0.00    +0.000 C 
ATOM      6  C   UNL     1       4.544   6.520  17.014  0.00  0.00    +0.000 C 
ATOM      7  N   UNL     1       7.014   6.742  16.933  0.00  0.00    +0.000 NA
ATOM      8  C   UNL     1       7.129   5.750  17.995  0.00  0.00    +0.000 C 
ATOM      9  C   UNL     1       5.864   5.123  18.631  0.00  0.00    +0.000 C 
ENDROOT
BRANCH   1  14
ATOM     10  C   UNL     1       1.832   5.926  20.454  0.00  0.00    +0.000 A 
ATOM     11  C   UNL     1       1.127   4.732  20.499  0.00  0.00    +0.000 A 
ATOM     12  C   UNL     1       1.514   3.688  19.666  0.00  0.00    +0.000 A 
ATOM     13  C   UNL     1       2.601   3.848  18.802  0.00  0.00    +0.000 A 
ATOM     14  C   UNL     1       3.333   5.052  18.747  0.00  0.00    +0.000 A 
ATOM     15  C   UNL     1       2.920   6.091  19.595  0.00  0.00    +0.000 A 
BRANCH  10  16
ATOM     16  O   UNL     1       1.498   6.977  21.257  0.00  0.00    +0.000 OA
ATOM     17  H   UNL     1       2.053   6.947  22.051  0.00  0.00    +0.000 HD
ENDBRANCH  10  16
ENDBRANCH   1  14
BRANCH   9  18
ATOM     18  O   UNL     1       6.199   3.781  19.018  0.00  0.00    +0.000 OA
ATOM     19  H   UNL     1       6.889   3.828  19.705  0.00  0.00    +0.000 HD
ENDBRANCH   9  18
BRANCH   7  20
ATOM     20  C   UNL     1       7.319   8.140  17.309  0.00  0.00    +0.000 C 
BRANCH  20  21
ATOM     21  C   UNL     1       8.396   8.319  18.400  0.00  0.00    +0.000 C 
BRANCH  21  22
ATOM     22  C   UNL     1       8.767   9.766  18.616  0.00  0.00    +0.000 A 
ATOM     23  C   UNL     1       9.456  10.153  19.778  0.00  0.00    +0.000 A 
ATOM     24  C   UNL     1       9.836  11.482  19.962  0.00  0.00    +0.000 A 
ATOM     25  C   UNL     1       9.527  12.437  18.993  0.00  0.00    +0.000 A 
ATOM     26  C   UNL     1       8.835  12.065  17.843  0.00  0.00    +0.000 A 
ATOM     27  C   UNL     1       8.455  10.735  17.655  0.00  0.00    +0.000 A 
ENDBRANCH  21  22
ENDBRANCH  20  21
ENDBRANCH   7  20
TORSDOF 6
ENDMDL
MODEL 3
REMARK VINA RESULT:      -8.4      3.425      6.339
REMARK  Name = 
REMARK  6 active torsions:
REMARK  status: ('A' for Active; 'I' for Inactive)
REMARK    1  A    between atoms: O_1  and  C_2
REMARK    2  A    between atoms: C_6  and  C_7
REMARK    3  A    between atoms: N_13  and  C_14
REMARK    4  A    between atoms: C_14  and  C_15
REMARK    5  A    between atoms: C_15  and  C_16
REMARK    6  A    between atoms: C_23  and  O_24
REMARK                            x       y       z     vdW  Elec       q    Type
REMARK                         _______ _______ _______ _____ _____    ______ ____
ROOT
ATOM      1  C   UNL     1       4.510   4.840  18.169  0.00  0.00    +0.000 C 
ATOM      2  C   UNL     1       5.514   5.141  19.314  0.00  0.00    +0.000 C 
ATOM      3  C   UNL     1       6.897   5.611  18.880  0.00  0.00    +0.000 C 
ATOM      4  C   UNL     1       7.442   5.030  17.577  0.00  0.00    +0.000 C 
ATOM      5  C   UNL     1       6.415   4.577  16.527  0.00  0.00    +0.000 C 
ATOM      6  C   UNL     1       5.225   3.887  17.186  0.00  0.00    +0.000 C 
ATOM      7  N   UNL     1       5.990   5.683  15.654  0.00  0.00    +0.000 NA
ATOM      8  C   UNL     1       5.020   6.593  16.251  0.00  0.00    +0.000 C 
ATOM      9  C   UNL     1       4.067   6.108  17.371  0.00  0.00    +0.000 C 
ENDROOT
BRANCH   1  14
ATOM     10  C   UNL     1       1.990   3.337  20.711  0.00  0.00    +0.000 A 
ATOM     11  C   UNL     1       0.934   2.960  19.893  0.00  0.00    +0.000 A 
ATOM     12  C   UNL     1       1.023   3.196  18.526  0.00  0.00    +0.000 A 
ATOM     13  C   UNL     1       2.164   3.803  17.992  0.00  0.00    +0.000 A 
ATOM     14  C   UNL     1       3.248   4.187  18.807  0.00  0.00    +0.000 A 
ATOM     15  C   UNL     1       3.133   3.941  20.184  0.00  0.00    +0.000 A 
BRANCH  10  16
ATOM     16  O   UNL     1       1.956   3.121  22.057  0.00  0.00    +0.000 OA
ATOM     17  H   UNL     1       1.415   2.334  22.229  0.00  0.00    +0.000 HD
ENDBRANCH  10  16
ENDBRANCH   1  14
BRANCH   9  18
ATOM     18  O   UNL     1       3.813   7.229  18.232  0.00  0.00    +0.000 OA
ATOM     19  H   UNL     1       4.558   7.305  18.856  0.00  0.00    +0.000 HD
ENDBRANCH   9  18
BRANCH   7  20
ATOM     20  C   UNL     1       5.689   5.216  14.282  0.00  0.00    +0.000 C 
BRANCH  20  21
ATOM     21  C   UNL     1       6.903   4.732  13.460  0.00  0.00    +0.000 C 
BRANCH  21  22
ATOM     22  C   UNL     1       6.552   3.612  12.512  0.00  0.00    +0.000 A 
ATOM     23  C   UNL     1       7.568   2.866  11.891  0.00  0.00    +0.000 A 
ATOM     24  C   UNL     1       7.247   1.805  11.046  0.00  0.00    +0.000 A 
ATOM     25  C   UNL     1       5.911   1.482  10.807  0.00  0.00    +0.000 A 
ATOM     26  C   UNL     1       4.897   2.222  11.409  0.00  0.00    +0.000 A 
ATOM     27  C   UNL     1       5.215   3.284  12.258  0.00  0.00    +0.000 A 
ENDBRANCH  21  22
ENDBRANCH  20  21
ENDBRANCH   7  20
TORSDOF 6
ENDMDL
MODEL 4
REMARK VINA RESULT:      -8.4      3.295      6.255
REMARK  Name = 
REMARK  6 active torsions:
REMARK  status: ('A' for Active; 'I' for Inactive)
REMARK    1  A    between atoms: O_1  and  C_2
REMARK    2  A    between atoms: C_6  and  C_7
REMARK    3  A    between atoms: N_13  and  C_14
REMARK    4  A    between atoms: C_14  and  C_15
REMARK    5  A    between atoms: C_15  and  C_16
REMARK    6  A    between atoms: C_23  and  O_24
REMARK                            x       y       z     vdW  Elec       q    Type
REMARK                         _______ _______ _______ _____ _____    ______ ____
ROOT
ATOM      1  C   UNL     1       4.495   4.969  18.190  0.00  0.00    +0.000 C 
ATOM      2  C   UNL     1       5.518   5.269  19.318  0.00  0.00    +0.000 C 
ATOM      3  C   UNL     1       6.920   5.652  18.860  0.00  0.00    +0.000 C 
ATOM      4  C   UNL     1       7.430   4.991  17.581  0.00  0.00    +0.000 C 
ATOM      5  C   UNL     1       6.376   4.544  16.554  0.00  0.00    +0.000 C 
ATOM      6  C   UNL     1       5.158   3.941  17.245  0.00  0.00    +0.000 C 
ATOM      7  N   UNL     1       6.001   5.631  15.636  0.00  0.00    +0.000 NA
ATOM      8  C   UNL     1       5.079   6.612  16.197  0.00  0.00    +0.000 C 
ATOM      9  C   UNL     1       4.109   6.222  17.339  0.00  0.00    +0.000 C 
ENDROOT
BRANCH   1  14
ATOM     10  C   UNL     1       1.281   2.914  18.912  0.00  0.00    +0.000 A 
ATOM     11  C   UNL     1       0.850   3.453  20.116  0.00  0.00    +0.000 A 
ATOM     12  C   UNL     1       1.594   4.469  20.705  0.00  0.00    +0.000 A 
ATOM     13  C   UNL     1       2.756   4.936  20.084  0.00  0.00    +0.000 A 
ATOM     14  C   UNL     1       3.206   4.405  18.858  0.00  0.00    +0.000 A 
ATOM     15  C   UNL     1       2.440   3.378  18.286  0.00  0.00    +0.000 A 
BRANCH  10  16
ATOM     16  O   UNL     1       0.583   1.921  18.290  0.00  0.00    +0.000 OA
ATOM     17  H   UNL     1       0.433   2.182  17.368  0.00  0.00    +0.000 HD
ENDBRANCH  10  16
ENDBRANCH   1  14
BRANCH   9  18
ATOM     18  O   UNL     1       3.914   7.389  18.153  0.00  0.00    +0.000 OA
ATOM     19  H   UNL     1       3.112   7.845  17.839  0.00  0.00    +0.000 HD
ENDBRANCH   9  18
BRANCH   7  20
ATOM     20  C   UNL     1       5.671   5.121  14.286  0.00  0.00    +0.000 C 
BRANCH  20  21
ATOM     21  C   UNL     1       6.878   4.729  13.408  0.00  0.00    +0.000 C 
BRANCH  21  22
ATOM     22  C   UNL     1       6.564   3.591  12.468  0.00  0.00    +0.000 A 
ATOM     23  C   UNL     1       7.605   2.864  11.865  0.00  0.00    +0.000 A 
ATOM     24  C   UNL     1       7.320   1.787  11.028  0.00  0.00    +0.000 A 
ATOM     25  C   UNL     1       5.994   1.428  10.779  0.00  0.00    +0.000 A 
ATOM     26  C   UNL     1       4.956   2.149  11.363  0.00  0.00    +0.000 A 
ATOM     27  C   UNL     1       5.239   3.227  12.203  0.00  0.00    +0.000 A 
ENDBRANCH  21  22
ENDBRANCH  20  21
ENDBRANCH   7  20
TORSDOF 6
ENDMDL
MODEL 5
REMARK VINA RESULT:      -8.2      4.030      7.521
REMARK  Name = 
REMARK  6 active torsions:
REMARK  status: ('A' for Active; 'I' for Inactive)
REMARK    1  A    between atoms: O_1  and  C_2
REMARK    2  A    between atoms: C_6  and  C_7
REMARK    3  A    between atoms: N_13  and  C_14
REMARK    4  A    between atoms: C_14  and  C_15
REMARK    5  A    between atoms: C_15  and  C_16
REMARK    6  A    between atoms: C_23  and  O_24
REMARK                            x       y       z     vdW  Elec       q    Type
REMARK                         _______ _______ _______ _____ _____    ______ ____
ROOT
ATOM      1  C   UNL     1       5.726   5.048  15.916  0.00  0.00    +0.000 C 
ATOM      2  C   UNL     1       5.104   6.469  15.852  0.00  0.00    +0.000 C 
ATOM      3  C   UNL     1       4.355   6.924  17.099  0.00  0.00    +0.000 C 
ATOM      4  C   UNL     1       3.613   5.846  17.886  0.00  0.00    +0.000 C 
ATOM      5  C   UNL     1       4.153   4.410  17.791  0.00  0.00    +0.000 C 
ATOM      6  C   UNL     1       4.604   4.088  16.370  0.00  0.00    +0.000 C 
ATOM      7  N   UNL     1       5.218   4.151  18.773  0.00  0.00    +0.000 NA
ATOM      8  C   UNL     1       6.522   4.695  18.417  0.00  0.00    +0.000 C 
ATOM      9  C   UNL     1       6.906   4.922  16.934  0.00  0.00    +0.000 C 
ENDROOT
BRANCH   1  14
ATOM     10  C   UNL     1       6.254   3.360  12.460  0.00  0.00    +0.000 A 
ATOM     11  C   UNL     1       7.298   4.102  11.925  0.00  0.00    +0.000 A 
ATOM     12  C   UNL     1       7.827   5.152  12.665  0.00  0.00    +0.000 A 
ATOM     13  C   UNL     1       7.312   5.447  13.931  0.00  0.00    +0.000 A 
ATOM     14  C   UNL     1       6.257   4.700  14.494  0.00  0.00    +0.000 A 
ATOM     15  C   UNL     1       5.737   3.648  13.725  0.00  0.00    +0.000 A 
BRANCH  10  16
ATOM     16  O   UNL     1       5.705   2.315  11.778  0.00  0.00    +0.000 OA
ATOM     17  H   UNL     1       4.869   2.608  11.386  0.00  0.00    +0.000 HD
ENDBRANCH  10  16
ENDBRANCH   1  14
BRANCH   9  18
ATOM     18  O   UNL     1       7.784   6.057  16.887  0.00  0.00    +0.000 OA
ATOM     19  H   UNL     1       8.577   5.847  17.414  0.00  0.00    +0.000 HD
ENDBRANCH   9  18
BRANCH   7  20
ATOM     20  C   UNL     1       5.201   2.748  19.244  0.00  0.00    +0.000 C 
BRANCH  20  21
ATOM     21  C   UNL     1       4.281   2.458  20.449  0.00  0.00    +0.000 C 
BRANCH  21  22
ATOM     22  C   UNL     1       2.828   2.735  20.147  0.00  0.00    +0.000 A 
ATOM     23  C   UNL     1       2.156   3.780  20.803  0.00  0.00    +0.000 A 
ATOM     24  C   UNL     1       0.825   4.064  20.498  0.00  0.00    +0.000 A 
ATOM     25  C   UNL     1       0.152   3.304  19.540  0.00  0.00    +0.000 A 
ATOM     26  C   UNL     1       0.806   2.260  18.893  0.00  0.00    +0.000 A 
ATOM     27  C   UNL     1       2.139   1.974  19.195  0.00  0.00    +0.000 A 
ENDBRANCH  21  22
ENDBRANCH  20  21
ENDBRANCH   7  20
TORSDOF 6
ENDMDL
MODEL 6
REMARK VINA RESULT:      -8.2      4.327      6.073
REMARK  Name = 
REMARK  6 active torsions:
REMARK  status: ('A' for Active; 'I' for Inactive)
REMARK    1  A    between atoms: O_1  and  C_2
REMARK    2  A    between atoms: C_6  and  C_7
REMARK    3  A    between atoms: N_13  and  C_14
REMARK    4  A    between atoms: C_14  and  C_15
REMARK    5  A    between atoms: C_15  and  C_16
REMARK    6  A    between atoms: C_23  and  O_24
REMARK                            x       y       z     vdW  Elec       q    Type
REMARK                         _______ _______ _______ _____ _____    ______ ____
ROOT
ATOM      1  C   UNL     1       2.552   5.418  19.077  0.00  0.00    +0.000 C 
ATOM      2  C   UNL     1       1.929   4.604  20.242  0.00  0.00    +0.000 C 
ATOM      3  C   UNL     1       2.102   3.092  20.165  0.00  0.00    +0.000 C 
ATOM      4  C   UNL     1       2.100   2.471  18.769  0.00  0.00    +0.000 C 
ATOM      5  C   UNL     1       2.559   3.362  17.604  0.00  0.00    +0.000 C 
ATOM      6  C   UNL     1       2.037   4.787  17.764  0.00  0.00    +0.000 C 
ATOM      7  N   UNL     1       4.020   3.333  17.426  0.00  0.00    +0.000 NA
ATOM      8  C   UNL     1       4.767   4.145  18.378  0.00  0.00    +0.000 C 
ATOM      9  C   UNL     1       4.114   5.380  19.046  0.00  0.00    +0.000 C 
ENDROOT
BRANCH   1  14
ATOM     10  C   UNL     1       1.770   9.157  18.386  0.00  0.00    +0.000 A 
ATOM     11  C   UNL     1       1.270   9.586  19.608  0.00  0.00    +0.000 A 
ATOM     12  C   UNL     1       1.173   8.674  20.653  0.00  0.00    +0.000 A 
ATOM     13  C   UNL     1       1.577   7.349  20.468  0.00  0.00    +0.000 A 
ATOM     14  C   UNL     1       2.093   6.898  19.235  0.00  0.00    +0.000 A 
ATOM     15  C   UNL     1       2.178   7.836  18.195  0.00  0.00    +0.000 A 
BRANCH  10  16
ATOM     16  O   UNL     1       1.894  10.014  17.332  0.00  0.00    +0.000 OA
ATOM     17  H   UNL     1       2.548   9.651  16.716  0.00  0.00    +0.000 HD
ENDBRANCH  10  16
ENDBRANCH   1  14
BRANCH   9  18
ATOM     18  O   UNL     1       4.684   5.509  20.357  0.00  0.00    +0.000 OA
ATOM     19  H   UNL     1       5.031   6.416  20.448  0.00  0.00    +0.000 HD
ENDBRANCH   9  18
BRANCH   7  20
ATOM     20  C   UNL     1       4.403   3.476  16.003  0.00  0.00    +0.000 C 
BRANCH  20  21
ATOM     21  C   UNL     1       5.371   4.635  15.686  0.00  0.00    +0.000 C 
BRANCH  21  22
ATOM     22  C   UNL     1       6.061   4.465  14.354  0.00  0.00    +0.000 A 
ATOM     23  C   UNL     1       5.530   3.593  13.389  0.00  0.00    +0.000 A 
ATOM     24  C   UNL     1       6.141   3.464  12.143  0.00  0.00    +0.000 A 
ATOM     25  C   UNL     1       7.291   4.198  11.851  0.00  0.00    +0.000 A 
ATOM     26  C   UNL     1       7.832   5.056  12.804  0.00  0.00    +0.000 A 
ATOM     27  C   UNL     1       7.220   5.189  14.052  0.00  0.00    +0.000 A 
ENDBRANCH  21  22
ENDBRANCH  20  21
ENDBRANCH   7  20
TORSDOF 6
ENDMDL
MODEL 7
REMARK VINA RESULT:      -8.2      3.339      7.279
REMARK  Name = 
REMARK  6 active torsions:
REMARK  status: ('A' for Active; 'I' for Inactive)
REMARK    1  A    between atoms: O_1  and  C_2
REMARK    2  A    between atoms: C_6  and  C_7
REMARK    3  A    between atoms: N_13  and  C_14
REMARK    4  A    between atoms: C_14  and  C_15
REMARK    5  A    between atoms: C_15  and  C_16
REMARK    6  A    between atoms: C_23  and  O_24
REMARK                            x       y       z     vdW  Elec       q    Type
REMARK                         _______ _______ _______ _____ _____    ______ ____
ROOT
ATOM      1  C   UNL     1       6.218   4.760  15.945  0.00  0.00    +0.000 C 
ATOM      2  C   UNL     1       7.567   4.471  16.657  0.00  0.00    +0.000 C 
ATOM      3  C   UNL     1       7.619   4.803  18.144  0.00  0.00    +0.000 C 
ATOM      4  C   UNL     1       6.802   6.007  18.608  0.00  0.00    +0.000 C 
ATOM      5  C   UNL     1       5.562   6.376  17.777  0.00  0.00    +0.000 C 
ATOM      6  C   UNL     1       5.836   6.218  16.285  0.00  0.00    +0.000 C 
ATOM      7  N   UNL     1       4.369   5.623  18.196  0.00  0.00    +0.000 NA
ATOM      8  C   UNL     1       4.317   4.248  17.716  0.00  0.00    +0.000 C 
ATOM      9  C   UNL     1       5.048   3.836  16.415  0.00  0.00    +0.000 C 
ENDROOT
BRANCH   1  14
ATOM     10  C   UNL     1       5.872   3.528  12.280  0.00  0.00    +0.000 A 
ATOM     11  C   UNL     1       6.914   4.191  11.646  0.00  0.00    +0.000 A 
ATOM     12  C   UNL     1       7.723   5.043  12.389  0.00  0.00    +0.000 A 
ATOM     13  C   UNL     1       7.485   5.220  13.755  0.00  0.00    +0.000 A 
ATOM     14  C   UNL     1       6.436   4.550  14.418  0.00  0.00    +0.000 A 
ATOM     15  C   UNL     1       5.631   3.699  13.645  0.00  0.00    +0.000 A 
BRANCH  10  16
ATOM     16  O   UNL     1       5.055   2.675  11.598  0.00  0.00    +0.000 OA
ATOM     17  H   UNL     1       4.136   2.890  11.816  0.00  0.00    +0.000 HD
ENDBRANCH  10  16
ENDBRANCH   1  14
BRANCH   9  18
ATOM     18  O   UNL     1       5.466   2.471  16.571  0.00  0.00    +0.000 OA
ATOM     19  H   UNL     1       6.143   2.441  17.272  0.00  0.00    +0.000 HD
ENDBRANCH   9  18
BRANCH   7  20
ATOM     20  C   UNL     1       3.132   6.419  18.035  0.00  0.00    +0.000 C 
BRANCH  20  21
ATOM     21  C   UNL     1       2.234   6.518  19.286  0.00  0.00    +0.000 C 
BRANCH  21  22
ATOM     22  C   UNL     1       1.912   5.166  19.875  0.00  0.00    +0.000 A 
ATOM     23  C   UNL     1       1.153   4.238  19.142  0.00  0.00    +0.000 A 
ATOM     24  C   UNL     1       0.887   2.974  19.666  0.00  0.00    +0.000 A 
ATOM     25  C   UNL     1       1.370   2.626  20.928  0.00  0.00    +0.000 A 
ATOM     26  C   UNL     1       2.113   3.542  21.667  0.00  0.00    +0.000 A 
ATOM     27  C   UNL     1       2.382   4.809  21.144  0.00  0.00    +0.000 A 
ENDBRANCH  21  22
ENDBRANCH  20  21
ENDBRANCH   7  20
TORSDOF 6
ENDMDL
MODEL 8
REMARK VINA RESULT:      -8.1      3.313      6.309
REMARK  Name = 
REMARK  6 active torsions:
REMARK  status: ('A' for Active; 'I' for Inactive)
REMARK    1  A    between atoms: O_1  and  C_2
REMARK    2  A    between atoms: C_6  and  C_7
REMARK    3  A    between atoms: N_13  and  C_14
REMARK    4  A    between atoms: C_14  and  C_15
REMARK    5  A    between atoms: C_15  and  C_16
REMARK    6  A    between atoms: C_23  and  O_24
REMARK                            x       y       z     vdW  Elec       q    Type
REMARK                         _______ _______ _______ _____ _____    ______ ____
ROOT
ATOM      1  C   UNL     1       4.462   4.917  18.245  0.00  0.00    +0.000 C 
ATOM      2  C   UNL     1       5.478   5.158  19.394  0.00  0.00    +0.000 C 
ATOM      3  C   UNL     1       6.877   5.587  18.966  0.00  0.00    +0.000 C 
ATOM      4  C   UNL     1       7.398   5.013  17.651  0.00  0.00    +0.000 C 
ATOM      5  C   UNL     1       6.354   4.618  16.593  0.00  0.00    +0.000 C 
ATOM      6  C   UNL     1       5.141   3.958  17.241  0.00  0.00    +0.000 C 
ATOM      7  N   UNL     1       5.968   5.756  15.744  0.00  0.00    +0.000 NA
ATOM      8  C   UNL     1       5.032   6.688  16.361  0.00  0.00    +0.000 C 
ATOM      9  C   UNL     1       4.064   6.216  17.473  0.00  0.00    +0.000 C 
ENDROOT
BRANCH   1  14
ATOM     10  C   UNL     1       1.305   2.741  18.851  0.00  0.00    +0.000 A 
ATOM     11  C   UNL     1       0.828   3.240  20.055  0.00  0.00    +0.000 A 
ATOM     12  C   UNL     1       1.524   4.268  20.682  0.00  0.00    +0.000 A 
ATOM     13  C   UNL     1       2.684   4.786  20.098  0.00  0.00    +0.000 A 
ATOM     14  C   UNL     1       3.179   4.296  18.872  0.00  0.00    +0.000 A 
ATOM     15  C   UNL     1       2.461   3.256  18.262  0.00  0.00    +0.000 A 
BRANCH  10  16
ATOM     16  O   UNL     1       0.655   1.739  18.193  0.00  0.00    +0.000 OA
ATOM     17  H   UNL     1       0.668   0.945  18.749  0.00  0.00    +0.000 HD
ENDBRANCH  10  16
ENDBRANCH   1  14
BRANCH   9  18
ATOM     18  O   UNL     1       3.851   7.327  18.357  0.00  0.00    +0.000 OA
ATOM     19  H   UNL     1       4.722   7.634  18.671  0.00  0.00    +0.000 HD
ENDBRANCH   9  18
BRANCH   7  20
ATOM     20  C   UNL     1       5.649   5.328  14.364  0.00  0.00    +0.000 C 
BRANCH  20  21
ATOM     21  C   UNL     1       6.680   4.390  13.701  0.00  0.00    +0.000 C 
BRANCH  21  22
ATOM     22  C   UNL     1       6.058   3.486  12.664  0.00  0.00    +0.000 A 
ATOM     23  C   UNL     1       4.736   3.702  12.240  0.00  0.00    +0.000 A 
ATOM     24  C   UNL     1       4.171   2.894  11.254  0.00  0.00    +0.000 A 
ATOM     25  C   UNL     1       4.917   1.861  10.686  0.00  0.00    +0.000 A 
ATOM     26  C   UNL     1       6.224   1.632  11.108  0.00  0.00    +0.000 A 
ATOM     27  C   UNL     1       6.793   2.440  12.094  0.00  0.00    +0.000 A 
ENDBRANCH  21  22
ENDBRANCH  20  21
ENDBRANCH   7  20
TORSDOF 6
ENDMDL
MODEL 9
REMARK VINA RESULT:      -7.9      3.296      6.306
REMARK  Name = 
REMARK  6 active torsions:
REMARK  status: ('A' for Active; 'I' for Inactive)
REMARK    1  A    between atoms: O_1  and  C_2
REMARK    2  A    between atoms: C_6  and  C_7
REMARK    3  A    between atoms: N_13  and  C_14
REMARK    4  A    between atoms: C_14  and  C_15
REMARK    5  A    between atoms: C_15  and  C_16
REMARK    6  A    between atoms: C_23  and  O_24
REMARK                            x       y       z     vdW  Elec       q    Type
REMARK                         _______ _______ _______ _____ _____    ______ ____
ROOT
ATOM      1  C   UNL     1       4.861   4.722  17.957  0.00  0.00    +0.000 C 
ATOM      2  C   UNL     1       5.472   5.158  19.316  0.00  0.00    +0.000 C 
ATOM      3  C   UNL     1       6.877   5.746  19.256  0.00  0.00    +0.000 C 
ATOM      4  C   UNL     1       7.814   5.177  18.194  0.00  0.00    +0.000 C 
ATOM      5  C   UNL     1       7.168   4.591  16.928  0.00  0.00    +0.000 C 
ATOM      6  C   UNL     1       5.903   3.810  17.270  0.00  0.00    +0.000 C 
ATOM      7  N   UNL     1       6.915   5.620  15.907  0.00  0.00    +0.000 NA
ATOM      8  C   UNL     1       5.743   6.450  16.154  0.00  0.00    +0.000 C 
ATOM      9  C   UNL     1       4.557   5.913  16.992  0.00  0.00    +0.000 C 
ENDROOT
BRANCH   1  14
ATOM     10  C   UNL     1       1.435   3.695  19.466  0.00  0.00    +0.000 A 
ATOM     11  C   UNL     1       1.144   2.529  18.772  0.00  0.00    +0.000 A 
ATOM     12  C   UNL     1       2.039   2.075  17.811  0.00  0.00    +0.000 A 
ATOM     13  C   UNL     1       3.215   2.787  17.556  0.00  0.00    +0.000 A 
ATOM     14  C   UNL     1       3.531   3.970  18.256  0.00  0.00    +0.000 A 
ATOM     15  C   UNL     1       2.609   4.410  19.219  0.00  0.00    +0.000 A 
BRANCH  10  16
ATOM     16  O   UNL     1       0.594   4.178  20.425  0.00  0.00    +0.000 OA
ATOM     17  H   UNL     1      -0.170   4.584  19.988  0.00  0.00    +0.000 HD
ENDBRANCH  10  16
ENDBRANCH   1  14
BRANCH   9  18
ATOM     18  O   UNL     1       3.976   7.031  17.679  0.00  0.00    +0.000 OA
ATOM     19  H   UNL     1       3.823   7.740  17.028  0.00  0.00    +0.000 HD
ENDBRANCH   9  18
BRANCH   7  20
ATOM     20  C   UNL     1       7.055   5.079  14.536  0.00  0.00    +0.000 C 
BRANCH  20  21
ATOM     21  C   UNL     1       5.745   4.618  13.863  0.00  0.00    +0.000 C 
BRANCH  21  22
ATOM     22  C   UNL     1       5.981   3.609  12.765  0.00  0.00    +0.000 A 
ATOM     23  C   UNL     1       7.286   3.348  12.314  0.00  0.00    +0.000 A 
ATOM     24  C   UNL     1       7.512   2.388  11.329  0.00  0.00    +0.000 A 
ATOM     25  C   UNL     1       6.439   1.685  10.781  0.00  0.00    +0.000 A 
ATOM     26  C   UNL     1       5.141   1.944  11.213  0.00  0.00    +0.000 A 
ATOM     27  C   UNL     1       4.912   2.904  12.202  0.00  0.00    +0.000 A 
ENDBRANCH  21  22
ENDBRANCH  20  21
ENDBRANCH   7  20
TORSDOF 6
ENDMDL
