MODEL 1
REMARK VINA RESULT:      -7.3      0.000      0.000
REMARK  Name = 
REMARK  6 active torsions:
REMARK  status: ('A' for Active; 'I' for Inactive)
REMARK    1  A    between atoms: C_1  and  C_2
REMARK    2  A    between atoms: C_2  and  C_3
REMARK    3  A    between atoms: C_11  and  S_12
REMARK    4  A    between atoms: S_12  and  C_13
REMARK    5  A    between atoms: C_13  and  C_14
REMARK    6  A    between atoms: C_19  and  C_20
REMARK                            x       y       z     vdW  Elec       q    Type
REMARK                         _______ _______ _______ _____ _____    ______ ____
ROOT
ATOM      1  C   UNL     1       0.248   9.716  20.632  0.00  0.00    +0.000 A 
ATOM      2  C   UNL     1      -0.360  10.923  20.609  0.00  0.00    +0.000 A 
ATOM      3  C   UNL     1      -0.228  11.847  19.449  0.00  0.00    +0.000 A 
ATOM      4  O   UNL     1      -0.811  12.923  19.441  0.00  0.00    +0.000 OA
ATOM      5  N   UNL     1       0.557  11.421  18.413  0.00  0.00    +0.000 N 
ATOM      6  C   UNL     1       1.200  10.210  18.458  0.00  0.00    +0.000 A 
ATOM      7  N   UNL     1       1.978   9.705  17.536  0.00  0.00    +0.000 NA
ATOM      8  N   UNL     1       2.398   8.487  17.986  0.00  0.00    +0.000 NA
ATOM      9  C   UNL     1       1.865   8.265  19.173  0.00  0.00    +0.000 A 
ATOM     10  N   UNL     1       1.065   9.342  19.542  0.00  0.00    +0.000 N 
ATOM     11  H   UNL     1       0.662  12.007  17.599  0.00  0.00    +0.000 HD
ENDROOT
BRANCH   1  13
ATOM     12  C   UNL     1      -0.437   9.628  23.011  0.00  0.00    +0.000 C 
ATOM     13  C   UNL     1      -0.015   8.809  21.801  0.00  0.00    +0.000 C 
ENDBRANCH   1  13
BRANCH   9  14
ATOM     14  S   UNL     1       2.197   6.803  20.073  0.00  0.00    +0.000 S 
BRANCH  14  15
ATOM     15  C   UNL     1       2.554   5.656  18.681  0.00  0.00    +0.000 C 
BRANCH  15  16
ATOM     16  C   UNL     1       3.880   4.883  18.776  0.00  0.00    +0.000 C 
ATOM     17  O   UNL     1       4.073   4.009  19.621  0.00  0.00    +0.000 OA
ATOM     18  N   UNL     1       4.853   5.187  17.796  0.00  0.00    +0.000 N 
ATOM     19  C   UNL     1       4.769   6.312  16.864  0.00  0.00    +0.000 C 
ATOM     20  C   UNL     1       5.237   5.924  15.464  0.00  0.00    +0.000 C 
ATOM     21  C   UNL     1       6.647   5.324  15.483  0.00  0.00    +0.000 C 
ATOM     22  C   UNL     1       7.058   4.873  14.080  0.00  0.00    +0.000 C 
ATOM     23  C   UNL     1       6.705   4.160  16.484  0.00  0.00    +0.000 C 
ATOM     24  C   UNL     1       6.180   4.560  17.869  0.00  0.00    +0.000 C 
ENDBRANCH  15  16
ENDBRANCH  14  15
ENDBRANCH   9  14
TORSDOF 4
ENDMDL
MODEL 2
REMARK VINA RESULT:      -7.1      0.891      1.026
REMARK  Name = 
REMARK  6 active torsions:
REMARK  status: ('A' for Active; 'I' for Inactive)
REMARK    1  A    between atoms: C_1  and  C_2
REMARK    2  A    between atoms: C_2  and  C_3
REMARK    3  A    between atoms: C_11  and  S_12
REMARK    4  A    between atoms: S_12  and  C_13
REMARK    5  A    between atoms: C_13  and  C_14
REMARK    6  A    between atoms: C_19  and  C_20
REMARK                            x       y       z     vdW  Elec       q    Type
REMARK                         _______ _______ _______ _____ _____    ______ ____
ROOT
ATOM      1  C   UNL     1       0.203   9.600  20.452  0.00  0.00    +0.000 A 
ATOM      2  C   UNL     1      -0.381  10.816  20.364  0.00  0.00    +0.000 A 
ATOM      3  C   UNL     1      -0.135  11.724  19.210  0.00  0.00    +0.000 A 
ATOM      4  O   UNL     1      -0.698  12.808  19.140  0.00  0.00    +0.000 OA
ATOM      5  N   UNL     1       0.730  11.274  18.251  0.00  0.00    +0.000 N 
ATOM      6  C   UNL     1       1.347  10.054  18.363  0.00  0.00    +0.000 A 
ATOM      7  N   UNL     1       2.194   9.527  17.518  0.00  0.00    +0.000 NA
ATOM      8  N   UNL     1       2.555   8.308  18.015  0.00  0.00    +0.000 NA
ATOM      9  C   UNL     1       1.917   8.108  19.153  0.00  0.00    +0.000 A 
ATOM     10  N   UNL     1       1.106   9.201  19.441  0.00  0.00    +0.000 N 
ATOM     11  H   UNL     1       0.914  11.849  17.443  0.00  0.00    +0.000 HD
ENDROOT
BRANCH   1  13
ATOM     12  C   UNL     1       0.005   9.456  22.917  0.00  0.00    +0.000 C 
ATOM     13  C   UNL     1      -0.174   8.710  21.603  0.00  0.00    +0.000 C 
ENDBRANCH   1  13
BRANCH   9  14
ATOM     14  S   UNL     1       2.147   6.651  20.094  0.00  0.00    +0.000 S 
BRANCH  14  15
ATOM     15  C   UNL     1       3.720   6.050  19.355  0.00  0.00    +0.000 C 
BRANCH  15  16
ATOM     16  C   UNL     1       3.579   4.956  18.284  0.00  0.00    +0.000 C 
ATOM     17  O   UNL     1       2.525   4.347  18.101  0.00  0.00    +0.000 OA
ATOM     18  N   UNL     1       4.713   4.727  17.471  0.00  0.00    +0.000 N 
ATOM     19  C   UNL     1       6.041   5.287  17.722  0.00  0.00    +0.000 C 
ATOM     20  C   UNL     1       6.716   5.744  16.431  0.00  0.00    +0.000 C 
ATOM     21  C   UNL     1       6.777   4.618  15.393  0.00  0.00    +0.000 C 
ATOM     22  C   UNL     1       7.385   5.126  14.085  0.00  0.00    +0.000 C 
ATOM     23  C   UNL     1       5.371   4.040  15.168  0.00  0.00    +0.000 C 
ATOM     24  C   UNL     1       4.692   3.637  16.485  0.00  0.00    +0.000 C 
ENDBRANCH  15  16
ENDBRANCH  14  15
ENDBRANCH   9  14
TORSDOF 4
ENDMDL
MODEL 3
REMARK VINA RESULT:      -7.0      2.370      8.115
REMARK  Name = 
REMARK  6 active torsions:
REMARK  status: ('A' for Active; 'I' for Inactive)
REMARK    1  A    between atoms: C_1  and  C_2
REMARK    2  A    between atoms: C_2  and  C_3
REMARK    3  A    between atoms: C_11  and  S_12
REMARK    4  A    between atoms: S_12  and  C_13
REMARK    5  A    between atoms: C_13  and  C_14
REMARK    6  A    between atoms: C_19  and  C_20
REMARK                            x       y       z     vdW  Elec       q    Type
REMARK                         _______ _______ _______ _____ _____    ______ ____
ROOT
ATOM      1  C   UNL     1       2.759   3.994  19.374  0.00  0.00    +0.000 A 
ATOM      2  C   UNL     1       3.256   2.851  19.899  0.00  0.00    +0.000 A 
ATOM      3  C   UNL     1       4.716   2.557  19.897  0.00  0.00    +0.000 A 
ATOM      4  O   UNL     1       5.143   1.528  20.403  0.00  0.00    +0.000 OA
ATOM      5  N   UNL     1       5.528   3.493  19.320  0.00  0.00    +0.000 N 
ATOM      6  C   UNL     1       5.014   4.634  18.758  0.00  0.00    +0.000 A 
ATOM      7  N   UNL     1       5.690   5.589  18.174  0.00  0.00    +0.000 NA
ATOM      8  N   UNL     1       4.789   6.529  17.765  0.00  0.00    +0.000 NA
ATOM      9  C   UNL     1       3.578   6.136  18.112  0.00  0.00    +0.000 A 
ATOM     10  N   UNL     1       3.647   4.912  18.770  0.00  0.00    +0.000 N 
ATOM     11  H   UNL     1       6.526   3.343  19.311  0.00  0.00    +0.000 HD
ENDROOT
BRANCH   1  13
ATOM     12  C   UNL     1       0.657   3.239  20.448  0.00  0.00    +0.000 C 
ATOM     13  C   UNL     1       1.284   4.253  19.501  0.00  0.00    +0.000 C 
ENDBRANCH   1  13
BRANCH   9  14
ATOM     14  S   UNL     1       2.157   7.083  17.733  0.00  0.00    +0.000 S 
BRANCH  14  15
ATOM     15  C   UNL     1       1.970   8.007  19.313  0.00  0.00    +0.000 C 
BRANCH  15  16
ATOM     16  C   UNL     1       1.524   9.472  19.180  0.00  0.00    +0.000 C 
ATOM     17  O   UNL     1       1.560  10.076  18.108  0.00  0.00    +0.000 OA
ATOM     18  N   UNL     1       1.007  10.077  20.349  0.00  0.00    +0.000 N 
ATOM     19  C   UNL     1       1.077   9.490  21.688  0.00  0.00    +0.000 C 
ATOM     20  C   UNL     1      -0.218   9.703  22.468  0.00  0.00    +0.000 C 
ATOM     21  C   UNL     1      -0.604  11.185  22.532  0.00  0.00    +0.000 C 
ATOM     22  C   UNL     1      -1.944  11.360  23.250  0.00  0.00    +0.000 C 
ATOM     23  C   UNL     1      -0.649  11.774  21.114  0.00  0.00    +0.000 C 
ATOM     24  C   UNL     1       0.643  11.500  20.332  0.00  0.00    +0.000 C 
ENDBRANCH  15  16
ENDBRANCH  14  15
ENDBRANCH   9  14
TORSDOF 4
ENDMDL
MODEL 4
REMARK VINA RESULT:      -7.0      2.764      8.026
REMARK  Name = 
REMARK  6 active torsions:
REMARK  status: ('A' for Active; 'I' for Inactive)
REMARK    1  A    between atoms: C_1  and  C_2
REMARK    2  A    between atoms: C_2  and  C_3
REMARK    3  A    between atoms: C_11  and  S_12
REMARK    4  A    between atoms: S_12  and  C_13
REMARK    5  A    between atoms: C_13  and  C_14
REMARK    6  A    between atoms: C_19  and  C_20
REMARK                            x       y       z     vdW  Elec       q    Type
REMARK                         _______ _______ _______ _____ _____    ______ ____
ROOT
ATOM      1  C   UNL     1       2.698   3.795  19.679  0.00  0.00    +0.000 A 
ATOM      2  C   UNL     1       3.269   2.679  20.186  0.00  0.00    +0.000 A 
ATOM      3  C   UNL     1       4.733   2.426  20.073  0.00  0.00    +0.000 A 
ATOM      4  O   UNL     1       5.230   1.422  20.564  0.00  0.00    +0.000 OA
ATOM      5  N   UNL     1       5.468   3.370  19.411  0.00  0.00    +0.000 N 
ATOM      6  C   UNL     1       4.876   4.483  18.868  0.00  0.00    +0.000 A 
ATOM      7  N   UNL     1       5.473   5.442  18.210  0.00  0.00    +0.000 NA
ATOM      8  N   UNL     1       4.514   6.347  17.857  0.00  0.00    +0.000 NA
ATOM      9  C   UNL     1       3.348   5.928  18.310  0.00  0.00    +0.000 A 
ATOM     10  N   UNL     1       3.506   4.722  18.986  0.00  0.00    +0.000 N 
ATOM     11  H   UNL     1       6.465   3.248  19.324  0.00  0.00    +0.000 HD
ENDROOT
BRANCH   1  13
ATOM     12  C   UNL     1       0.416   2.986  19.151  0.00  0.00    +0.000 C 
ATOM     13  C   UNL     1       1.231   4.015  19.921  0.00  0.00    +0.000 C 
ENDBRANCH   1  13
BRANCH   9  14
ATOM     14  S   UNL     1       1.874   6.826  18.027  0.00  0.00    +0.000 S 
BRANCH  14  15
ATOM     15  C   UNL     1       2.099   8.183  19.247  0.00  0.00    +0.000 C 
BRANCH  15  16
ATOM     16  C   UNL     1       1.362   8.007  20.585  0.00  0.00    +0.000 C 
ATOM     17  O   UNL     1       1.592   7.065  21.344  0.00  0.00    +0.000 OA
ATOM     18  N   UNL     1       0.443   9.024  20.932  0.00  0.00    +0.000 N 
ATOM     19  C   UNL     1      -0.004  10.083  20.026  0.00  0.00    +0.000 C 
ATOM     20  C   UNL     1      -0.106  11.430  20.736  0.00  0.00    +0.000 C 
ATOM     21  C   UNL     1      -0.999  11.351  21.979  0.00  0.00    +0.000 C 
ATOM     22  C   UNL     1      -1.019  12.693  22.713  0.00  0.00    +0.000 C 
ATOM     23  C   UNL     1      -0.515  10.218  22.898  0.00  0.00    +0.000 C 
ATOM     24  C   UNL     1      -0.369   8.886  22.149  0.00  0.00    +0.000 C 
ENDBRANCH  15  16
ENDBRANCH  14  15
ENDBRANCH   9  14
TORSDOF 4
ENDMDL
MODEL 5
REMARK VINA RESULT:      -6.9      2.447      8.790
REMARK  Name = 
REMARK  6 active torsions:
REMARK  status: ('A' for Active; 'I' for Inactive)
REMARK    1  A    between atoms: C_1  and  C_2
REMARK    2  A    between atoms: C_2  and  C_3
REMARK    3  A    between atoms: C_11  and  S_12
REMARK    4  A    between atoms: S_12  and  C_13
REMARK    5  A    between atoms: C_13  and  C_14
REMARK    6  A    between atoms: C_19  and  C_20
REMARK                            x       y       z     vdW  Elec       q    Type
REMARK                         _______ _______ _______ _____ _____    ______ ____
ROOT
ATOM      1  C   UNL     1       3.710   4.433  18.103  0.00  0.00    +0.000 A 
ATOM      2  C   UNL     1       4.076   3.143  17.929  0.00  0.00    +0.000 A 
ATOM      3  C   UNL     1       3.563   2.056  18.807  0.00  0.00    +0.000 A 
ATOM      4  O   UNL     1       3.887   0.892  18.612  0.00  0.00    +0.000 OA
ATOM      5  N   UNL     1       2.716   2.431  19.814  0.00  0.00    +0.000 N 
ATOM      6  C   UNL     1       2.376   3.746  20.007  0.00  0.00    +0.000 A 
ATOM      7  N   UNL     1       1.587   4.220  20.935  0.00  0.00    +0.000 NA
ATOM      8  N   UNL     1       1.523   5.572  20.759  0.00  0.00    +0.000 NA
ATOM      9  C   UNL     1       2.269   5.900  19.721  0.00  0.00    +0.000 A 
ATOM     10  N   UNL     1       2.851   4.761  19.175  0.00  0.00    +0.000 N 
ATOM     11  H   UNL     1       2.331   1.726  20.424  0.00  0.00    +0.000 HD
ENDROOT
BRANCH   1  13
ATOM     12  C   UNL     1       5.553   5.996  17.555  0.00  0.00    +0.000 C 
ATOM     13  C   UNL     1       4.202   5.452  17.114  0.00  0.00    +0.000 C 
ENDBRANCH   1  13
BRANCH   9  14
ATOM     14  S   UNL     1       2.447   7.562  19.203  0.00  0.00    +0.000 S 
BRANCH  14  15
ATOM     15  C   UNL     1       1.301   8.379  20.387  0.00  0.00    +0.000 C 
BRANCH  15  16
ATOM     16  C   UNL     1       0.711   9.722  19.925  0.00  0.00    +0.000 C 
ATOM     17  O   UNL     1       0.700  10.064  18.742  0.00  0.00    +0.000 OA
ATOM     18  N   UNL     1       0.120  10.524  20.928  0.00  0.00    +0.000 N 
ATOM     19  C   UNL     1       0.231  10.271  22.365  0.00  0.00    +0.000 C 
ATOM     20  C   UNL     1      -1.089  10.527  23.088  0.00  0.00    +0.000 C 
ATOM     21  C   UNL     1      -1.623  11.937  22.814  0.00  0.00    +0.000 C 
ATOM     22  C   UNL     1      -2.983  12.136  23.486  0.00  0.00    +0.000 C 
ATOM     23  C   UNL     1      -1.708  12.176  21.298  0.00  0.00    +0.000 C 
ATOM     24  C   UNL     1      -0.385  11.861  20.586  0.00  0.00    +0.000 C 
ENDBRANCH  15  16
ENDBRANCH  14  15
ENDBRANCH   9  14
TORSDOF 4
ENDMDL
MODEL 6
REMARK VINA RESULT:      -6.9      2.305      7.724
REMARK  Name = 
REMARK  6 active torsions:
REMARK  status: ('A' for Active; 'I' for Inactive)
REMARK    1  A    between atoms: C_1  and  C_2
REMARK    2  A    between atoms: C_2  and  C_3
REMARK    3  A    between atoms: C_11  and  S_12
REMARK    4  A    between atoms: S_12  and  C_13
REMARK    5  A    between atoms: C_13  and  C_14
REMARK    6  A    between atoms: C_19  and  C_20
REMARK                            x       y       z     vdW  Elec       q    Type
REMARK                         _______ _______ _______ _____ _____    ______ ____
ROOT
ATOM      1  C   UNL     1       4.568   4.289  16.646  0.00  0.00    +0.000 A 
ATOM      2  C   UNL     1       5.168   4.098  15.450  0.00  0.00    +0.000 A 
ATOM      3  C   UNL     1       6.639   4.248  15.277  0.00  0.00    +0.000 A 
ATOM      4  O   UNL     1       7.162   4.042  14.189  0.00  0.00    +0.000 OA
ATOM      5  N   UNL     1       7.353   4.607  16.387  0.00  0.00    +0.000 N 
ATOM      6  C   UNL     1       6.733   4.834  17.590  0.00  0.00    +0.000 A 
ATOM      7  N   UNL     1       7.308   5.188  18.709  0.00  0.00    +0.000 NA
ATOM      8  N   UNL     1       6.326   5.298  19.651  0.00  0.00    +0.000 NA
ATOM      9  C   UNL     1       5.168   5.003  19.092  0.00  0.00    +0.000 A 
ATOM     10  N   UNL     1       5.355   4.683  17.751  0.00  0.00    +0.000 N 
ATOM     11  H   UNL     1       8.354   4.704  16.320  0.00  0.00    +0.000 HD
ENDROOT
BRANCH   1  13
ATOM     12  C   UNL     1       2.850   2.639  17.328  0.00  0.00    +0.000 C 
ATOM     13  C   UNL     1       3.092   4.027  16.752  0.00  0.00    +0.000 C 
ENDBRANCH   1  13
BRANCH   9  14
ATOM     14  S   UNL     1       3.670   5.057  19.993  0.00  0.00    +0.000 S 
BRANCH  14  15
ATOM     15  C   UNL     1       2.864   6.490  19.170  0.00  0.00    +0.000 C 
BRANCH  15  16
ATOM     16  C   UNL     1       1.939   7.337  20.060  0.00  0.00    +0.000 C 
ATOM     17  O   UNL     1       1.623   6.991  21.198  0.00  0.00    +0.000 OA
ATOM     18  N   UNL     1       1.517   8.575  19.523  0.00  0.00    +0.000 N 
ATOM     19  C   UNL     1       1.712   8.987  18.132  0.00  0.00    +0.000 C 
ATOM     20  C   UNL     1       2.108  10.458  18.028  0.00  0.00    +0.000 C 
ATOM     21  C   UNL     1       1.100  11.368  18.739  0.00  0.00    +0.000 C 
ATOM     22  C   UNL     1       1.563  12.826  18.686  0.00  0.00    +0.000 C 
ATOM     23  C   UNL     1       0.904  10.897  20.188  0.00  0.00    +0.000 C 
ATOM     24  C   UNL     1       0.560   9.403  20.270  0.00  0.00    +0.000 C 
ENDBRANCH  15  16
ENDBRANCH  14  15
ENDBRANCH   9  14
TORSDOF 4
ENDMDL
MODEL 7
REMARK VINA RESULT:      -6.8      2.181      3.201
REMARK  Name = 
REMARK  6 active torsions:
REMARK  status: ('A' for Active; 'I' for Inactive)
REMARK    1  A    between atoms: C_1  and  C_2
REMARK    2  A    between atoms: C_2  and  C_3
REMARK    3  A    between atoms: C_11  and  S_12
REMARK    4  A    between atoms: S_12  and  C_13
REMARK    5  A    between atoms: C_13  and  C_14
REMARK    6  A    between atoms: C_19  and  C_20
REMARK                            x       y       z     vdW  Elec       q    Type
REMARK                         _______ _______ _______ _____ _____    ______ ____
ROOT
ATOM      1  C   UNL     1      -0.550  10.598  19.746  0.00  0.00    +0.000 A 
ATOM      2  C   UNL     1      -1.420  11.604  19.988  0.00  0.00    +0.000 A 
ATOM      3  C   UNL     1      -1.651  12.129  21.363  0.00  0.00    +0.000 A 
ATOM      4  O   UNL     1      -2.423  13.059  21.553  0.00  0.00    +0.000 OA
ATOM      5  N   UNL     1      -0.951  11.528  22.373  0.00  0.00    +0.000 N 
ATOM      6  C   UNL     1      -0.095  10.484  22.124  0.00  0.00    +0.000 A 
ATOM      7  N   UNL     1       0.615   9.831  23.006  0.00  0.00    +0.000 NA
ATOM      8  N   UNL     1       1.324   8.881  22.329  0.00  0.00    +0.000 NA
ATOM      9  C   UNL     1       1.039   8.974  21.044  0.00  0.00    +0.000 A 
ATOM     10  N   UNL     1       0.126  10.002  20.834  0.00  0.00    +0.000 N 
ATOM     11  H   UNL     1      -1.063  11.861  23.318  0.00  0.00    +0.000 HD
ENDROOT
BRANCH   1  13
ATOM     12  C   UNL     1      -1.632  10.114  17.570  0.00  0.00    +0.000 C 
ATOM     13  C   UNL     1      -0.309  10.194  18.319  0.00  0.00    +0.000 C 
ENDBRANCH   1  13
BRANCH   9  14
ATOM     14  S   UNL     1       1.749   7.897  19.863  0.00  0.00    +0.000 S 
BRANCH  14  15
ATOM     15  C   UNL     1       1.910   6.378  20.887  0.00  0.00    +0.000 C 
BRANCH  15  16
ATOM     16  C   UNL     1       1.809   5.045  20.125  0.00  0.00    +0.000 C 
ATOM     17  O   UNL     1       0.814   4.324  20.191  0.00  0.00    +0.000 OA
ATOM     18  N   UNL     1       2.902   4.718  19.290  0.00  0.00    +0.000 N 
ATOM     19  C   UNL     1       4.180   5.431  19.278  0.00  0.00    +0.000 C 
ATOM     20  C   UNL     1       4.714   5.610  17.859  0.00  0.00    +0.000 C 
ATOM     21  C   UNL     1       4.819   4.272  17.118  0.00  0.00    +0.000 C 
ATOM     22  C   UNL     1       5.281   4.490  15.677  0.00  0.00    +0.000 C 
ATOM     23  C   UNL     1       3.468   3.541  17.168  0.00  0.00    +0.000 C 
ATOM     24  C   UNL     1       2.926   3.421  18.599  0.00  0.00    +0.000 C 
ENDBRANCH  15  16
ENDBRANCH  14  15
ENDBRANCH   9  14
TORSDOF 4
ENDMDL
MODEL 8
REMARK VINA RESULT:      -6.8      2.398      7.261
REMARK  Name = 
REMARK  6 active torsions:
REMARK  status: ('A' for Active; 'I' for Inactive)
REMARK    1  A    between atoms: C_1  and  C_2
REMARK    2  A    between atoms: C_2  and  C_3
REMARK    3  A    between atoms: C_11  and  S_12
REMARK    4  A    between atoms: S_12  and  C_13
REMARK    5  A    between atoms: C_13  and  C_14
REMARK    6  A    between atoms: C_19  and  C_20
REMARK                            x       y       z     vdW  Elec       q    Type
REMARK                         _______ _______ _______ _____ _____    ______ ____
ROOT
ATOM      1  C   UNL     1       2.683   4.993  19.797  0.00  0.00    +0.000 A 
ATOM      2  C   UNL     1       3.269   3.989  19.106  0.00  0.00    +0.000 A 
ATOM      3  C   UNL     1       3.911   4.218  17.782  0.00  0.00    +0.000 A 
ATOM      4  O   UNL     1       4.459   3.298  17.190  0.00  0.00    +0.000 OA
ATOM      5  N   UNL     1       3.862   5.493  17.291  0.00  0.00    +0.000 N 
ATOM      6  C   UNL     1       3.236   6.500  17.981  0.00  0.00    +0.000 A 
ATOM      7  N   UNL     1       3.119   7.747  17.607  0.00  0.00    +0.000 NA
ATOM      8  N   UNL     1       2.431   8.400  18.588  0.00  0.00    +0.000 NA
ATOM      9  C   UNL     1       2.145   7.542  19.549  0.00  0.00    +0.000 A 
ATOM     10  N   UNL     1       2.643   6.284  19.226  0.00  0.00    +0.000 N 
ATOM     11  H   UNL     1       4.299   5.697  16.405  0.00  0.00    +0.000 HD
ENDROOT
BRANCH   1  13
ATOM     12  C   UNL     1       1.933   3.193  21.327  0.00  0.00    +0.000 C 
ATOM     13  C   UNL     1       2.141   4.692  21.166  0.00  0.00    +0.000 C 
ENDBRANCH   1  13
BRANCH   9  14
ATOM     14  S   UNL     1       1.245   8.018  20.971  0.00  0.00    +0.000 S 
BRANCH  14  15
ATOM     15  C   UNL     1       0.365   9.488  20.303  0.00  0.00    +0.000 C 
BRANCH  15  16
ATOM     16  C   UNL     1       0.652  10.819  21.018  0.00  0.00    +0.000 C 
ATOM     17  O   UNL     1       0.517  10.955  22.234  0.00  0.00    +0.000 OA
ATOM     18  N   UNL     1       1.143  11.870  20.210  0.00  0.00    +0.000 N 
ATOM     19  C   UNL     1       1.180  11.845  18.747  0.00  0.00    +0.000 C 
ATOM     20  C   UNL     1       2.471  12.450  18.203  0.00  0.00    +0.000 C 
ATOM     21  C   UNL     1       2.703  13.868  18.738  0.00  0.00    +0.000 C 
ATOM     22  C   UNL     1       4.041  14.418  18.240  0.00  0.00    +0.000 C 
ATOM     23  C   UNL     1       2.638  13.862  20.273  0.00  0.00    +0.000 C 
ATOM     24  C   UNL     1       1.356  13.200  20.797  0.00  0.00    +0.000 C 
ENDBRANCH  15  16
ENDBRANCH  14  15
ENDBRANCH   9  14
TORSDOF 4
ENDMDL
MODEL 9
REMARK VINA RESULT:      -6.7      2.473      7.838
REMARK  Name = 
REMARK  6 active torsions:
REMARK  status: ('A' for Active; 'I' for Inactive)
REMARK    1  A    between atoms: C_1  and  C_2
REMARK    2  A    between atoms: C_2  and  C_3
REMARK    3  A    between atoms: C_11  and  S_12
REMARK    4  A    between atoms: S_12  and  C_13
REMARK    5  A    between atoms: C_13  and  C_14
REMARK    6  A    between atoms: C_19  and  C_20
REMARK                            x       y       z     vdW  Elec       q    Type
REMARK                         _______ _______ _______ _____ _____    ______ ____
ROOT
ATOM      1  C   UNL     1       4.866   4.263  16.097  0.00  0.00    +0.000 A 
ATOM      2  C   UNL     1       5.216   3.872  14.851  0.00  0.00    +0.000 A 
ATOM      3  C   UNL     1       6.465   4.353  14.198  0.00  0.00    +0.000 A 
ATOM      4  O   UNL     1       6.773   3.962  13.080  0.00  0.00    +0.000 OA
ATOM      5  N   UNL     1       7.232   5.229  14.916  0.00  0.00    +0.000 N 
ATOM      6  C   UNL     1       6.854   5.649  16.166  0.00  0.00    +0.000 A 
ATOM      7  N   UNL     1       7.499   6.486  16.937  0.00  0.00    +0.000 NA
ATOM      8  N   UNL     1       6.773   6.618  18.085  0.00  0.00    +0.000 NA
ATOM      9  C   UNL     1       5.700   5.855  17.999  0.00  0.00    +0.000 A 
ATOM     10  N   UNL     1       5.688   5.188  16.779  0.00  0.00    +0.000 N 
ATOM     11  H   UNL     1       8.095   5.569  14.520  0.00  0.00    +0.000 HD
ENDROOT
BRANCH   1  13
ATOM     12  C   UNL     1       4.034   2.534  17.664  0.00  0.00    +0.000 C 
ATOM     13  C   UNL     1       3.638   3.656  16.715  0.00  0.00    +0.000 C 
ENDBRANCH   1  13
BRANCH   9  14
ATOM     14  S   UNL     1       4.516   5.783  19.285  0.00  0.00    +0.000 S 
BRANCH  14  15
ATOM     15  C   UNL     1       3.183   6.805  18.536  0.00  0.00    +0.000 C 
BRANCH  15  16
ATOM     16  C   UNL     1       2.182   7.425  19.525  0.00  0.00    +0.000 C 
ATOM     17  O   UNL     1       1.875   6.874  20.583  0.00  0.00    +0.000 OA
ATOM     18  N   UNL     1       1.673   8.699  19.184  0.00  0.00    +0.000 N 
ATOM     19  C   UNL     1       1.857   9.346  17.884  0.00  0.00    +0.000 C 
ATOM     20  C   UNL     1       2.139  10.839  18.031  0.00  0.00    +0.000 C 
ATOM     21  C   UNL     1       1.053  11.544  18.851  0.00  0.00    +0.000 C 
ATOM     22  C   UNL     1       1.402  13.021  19.047  0.00  0.00    +0.000 C 
ATOM     23  C   UNL     1       0.871  10.829  20.199  0.00  0.00    +0.000 C 
ATOM     24  C   UNL     1       0.643   9.320  20.028  0.00  0.00    +0.000 C 
ENDBRANCH  15  16
ENDBRANCH  14  15
ENDBRANCH   9  14
TORSDOF 4
ENDMDL
