MODEL 1
REMARK VINA RESULT:      -6.5      0.000      0.000
REMARK  Name = 
REMARK  4 active torsions:
REMARK  status: ('A' for Active; 'I' for Inactive)
REMARK    1  A    between atoms: C_1  and  O_2
REMARK    2  A    between atoms: O_2  and  C_3
REMARK    3  A    between atoms: C_7  and  C_8
REMARK    4  A    between atoms: C_9  and  C_10
REMARK                            x       y       z     vdW  Elec       q    Type
REMARK                         _______ _______ _______ _____ _____    ______ ____
ROOT
ATOM      1  C   UNL     1      11.030  11.984  18.529  0.00  0.00    +0.000 A 
ATOM      2  C   UNL     1      10.958  12.310  19.884  0.00  0.00    +0.000 A 
ATOM      3  C   UNL     1      10.084  11.622  20.726  0.00  0.00    +0.000 A 
ATOM      4  C   UNL     1       9.282  10.599  20.219  0.00  0.00    +0.000 A 
ATOM      5  C   UNL     1       9.343  10.275  18.862  0.00  0.00    +0.000 A 
ATOM      6  C   UNL     1      10.203  10.979  18.016  0.00  0.00    +0.000 A 
ENDROOT
BRANCH   1   8
ATOM      7  C   UNL     1      11.179  13.396  16.643  0.00  0.00    +0.000 C 
ATOM      8  O   UNL     1      11.847  12.599  17.618  0.00  0.00    +0.000 OA
ENDBRANCH   1   8
BRANCH   5   9
ATOM      9  C   UNL     1       8.566   9.183  18.357  0.00  0.00    +0.000 C 
ATOM     10  C   UNL     1       7.864   8.321  17.904  0.00  0.00    +0.000 C 
BRANCH  10  11
ATOM     11  C   UNL     1       6.961   7.366  17.354  0.00  0.00    +0.000 A 
ATOM     12  C   UNL     1       5.653   7.213  17.763  0.00  0.00    +0.000 A 
ATOM     13  S   UNL     1       4.907   5.980  16.832  0.00  0.00    +0.000 S 
ATOM     14  C   UNL     1       6.375   5.771  15.982  0.00  0.00    +0.000 A 
ATOM     15  I   UNL     1       6.560   4.377  14.470  0.00  0.00    +0.000 I 
ATOM     16  N   UNL     1       7.379   6.542  16.333  0.00  0.00    +0.000 NA
ENDBRANCH  10  11
ENDBRANCH   5   9
TORSDOF 3
ENDMDL
MODEL 2
REMARK VINA RESULT:      -6.4      1.850      2.727
REMARK  Name = 
REMARK  4 active torsions:
REMARK  status: ('A' for Active; 'I' for Inactive)
REMARK    1  A    between atoms: C_1  and  O_2
REMARK    2  A    between atoms: O_2  and  C_3
REMARK    3  A    between atoms: C_7  and  C_8
REMARK    4  A    between atoms: C_9  and  C_10
REMARK                            x       y       z     vdW  Elec       q    Type
REMARK                         _______ _______ _______ _____ _____    ______ ____
ROOT
ATOM      1  C   UNL     1       9.659  12.374  20.782  0.00  0.00    +0.000 A 
ATOM      2  C   UNL     1       9.964  13.372  19.856  0.00  0.00    +0.000 A 
ATOM      3  C   UNL     1       9.893  13.108  18.488  0.00  0.00    +0.000 A 
ATOM      4  C   UNL     1       9.511  11.843  18.038  0.00  0.00    +0.000 A 
ATOM      5  C   UNL     1       9.213  10.837  18.959  0.00  0.00    +0.000 A 
ATOM      6  C   UNL     1       9.305  11.098  20.329  0.00  0.00    +0.000 A 
ENDROOT
BRANCH   1   8
ATOM      7  C   UNL     1       8.505  12.180  22.832  0.00  0.00    +0.000 C 
ATOM      8  O   UNL     1       9.702  12.526  22.142  0.00  0.00    +0.000 OA
ENDBRANCH   1   8
BRANCH   5   9
ATOM      9  C   UNL     1       8.760   9.561  18.495  0.00  0.00    +0.000 C 
ATOM     10  C   UNL     1       8.345   8.480  18.177  0.00  0.00    +0.000 C 
BRANCH  10  11
ATOM     11  C   UNL     1       7.832   7.181  17.894  0.00  0.00    +0.000 A 
ATOM     12  C   UNL     1       7.778   6.155  18.813  0.00  0.00    +0.000 A 
ATOM     13  S   UNL     1       7.069   4.774  18.080  0.00  0.00    +0.000 S 
ATOM     14  C   UNL     1       6.903   5.663  16.630  0.00  0.00    +0.000 A 
ATOM     15  I   UNL     1       6.060   4.826  14.940  0.00  0.00    +0.000 I 
ATOM     16  N   UNL     1       7.331   6.905  16.642  0.00  0.00    +0.000 NA
ENDBRANCH  10  11
ENDBRANCH   5   9
TORSDOF 3
ENDMDL
MODEL 3
REMARK VINA RESULT:      -6.4      7.509      8.777
REMARK  Name = 
REMARK  4 active torsions:
REMARK  status: ('A' for Active; 'I' for Inactive)
REMARK    1  A    between atoms: C_1  and  O_2
REMARK    2  A    between atoms: O_2  and  C_3
REMARK    3  A    between atoms: C_7  and  C_8
REMARK    4  A    between atoms: C_9  and  C_10
REMARK                            x       y       z     vdW  Elec       q    Type
REMARK                         _______ _______ _______ _____ _____    ______ ____
ROOT
ATOM      1  C   UNL     1       5.850   3.429  12.313  0.00  0.00    +0.000 A 
ATOM      2  C   UNL     1       7.081   4.039  12.071  0.00  0.00    +0.000 A 
ATOM      3  C   UNL     1       7.666   4.849  13.044  0.00  0.00    +0.000 A 
ATOM      4  C   UNL     1       7.025   5.049  14.268  0.00  0.00    +0.000 A 
ATOM      5  C   UNL     1       5.789   4.450  14.512  0.00  0.00    +0.000 A 
ATOM      6  C   UNL     1       5.194   3.655  13.528  0.00  0.00    +0.000 A 
ENDROOT
BRANCH   1   8
ATOM      7  C   UNL     1       3.869   3.044  11.087  0.00  0.00    +0.000 C 
ATOM      8  O   UNL     1       5.187   2.622  11.426  0.00  0.00    +0.000 OA
ENDBRANCH   1   8
BRANCH   5   9
ATOM      9  C   UNL     1       5.165   4.604  15.791  0.00  0.00    +0.000 C 
ATOM     10  C   UNL     1       4.572   4.747  16.826  0.00  0.00    +0.000 C 
BRANCH  10  11
ATOM     11  C   UNL     1       3.796   4.956  18.002  0.00  0.00    +0.000 A 
ATOM     12  C   UNL     1       3.324   6.186  18.409  0.00  0.00    +0.000 A 
ATOM     13  S   UNL     1       2.415   5.997  19.852  0.00  0.00    +0.000 S 
ATOM     14  C   UNL     1       2.730   4.318  19.798  0.00  0.00    +0.000 A 
ATOM     15  I   UNL     1       1.994   3.033  21.238  0.00  0.00    +0.000 I 
ATOM     16  N   UNL     1       3.457   3.882  18.794  0.00  0.00    +0.000 NA
ENDBRANCH  10  11
ENDBRANCH   5   9
TORSDOF 3
ENDMDL
MODEL 4
REMARK VINA RESULT:      -6.2      4.685      7.166
REMARK  Name = 
REMARK  4 active torsions:
REMARK  status: ('A' for Active; 'I' for Inactive)
REMARK    1  A    between atoms: C_1  and  O_2
REMARK    2  A    between atoms: O_2  and  C_3
REMARK    3  A    between atoms: C_7  and  C_8
REMARK    4  A    between atoms: C_9  and  C_10
REMARK                            x       y       z     vdW  Elec       q    Type
REMARK                         _______ _______ _______ _____ _____    ______ ____
ROOT
ATOM      1  C   UNL     1       6.644   5.754  16.479  0.00  0.00    +0.000 A 
ATOM      2  C   UNL     1       6.567   4.713  17.404  0.00  0.00    +0.000 A 
ATOM      3  C   UNL     1       7.124   4.861  18.675  0.00  0.00    +0.000 A 
ATOM      4  C   UNL     1       7.755   6.054  19.029  0.00  0.00    +0.000 A 
ATOM      5  C   UNL     1       7.845   7.095  18.104  0.00  0.00    +0.000 A 
ATOM      6  C   UNL     1       7.305   6.938  16.825  0.00  0.00    +0.000 A 
ENDROOT
BRANCH   1   8
ATOM      7  C   UNL     1       6.780   4.794  14.326  0.00  0.00    +0.000 C 
ATOM      8  O   UNL     1       6.138   5.711  15.207  0.00  0.00    +0.000 OA
ENDBRANCH   1   8
BRANCH   5   9
ATOM      9  C   UNL     1       8.436   8.340  18.491  0.00  0.00    +0.000 C 
ATOM     10  C   UNL     1       8.900   9.417  18.751  0.00  0.00    +0.000 C 
BRANCH  10  11
ATOM     11  C   UNL     1       9.427  10.723  18.968  0.00  0.00    +0.000 A 
ATOM     12  C   UNL     1       9.401  11.375  20.183  0.00  0.00    +0.000 A 
ATOM     13  S   UNL     1      10.159  12.906  20.022  0.00  0.00    +0.000 S 
ATOM     14  C   UNL     1      10.447  12.559  18.373  0.00  0.00    +0.000 A 
ATOM     15  I   UNL     1      11.419  13.901  17.140  0.00  0.00    +0.000 I 
ATOM     16  N   UNL     1      10.026  11.397  17.928  0.00  0.00    +0.000 NA
ENDBRANCH  10  11
ENDBRANCH   5   9
TORSDOF 3
ENDMDL
MODEL 5
REMARK VINA RESULT:      -6.2      1.851      2.243
REMARK  Name = 
REMARK  4 active torsions:
REMARK  status: ('A' for Active; 'I' for Inactive)
REMARK    1  A    between atoms: C_1  and  O_2
REMARK    2  A    between atoms: O_2  and  C_3
REMARK    3  A    between atoms: C_7  and  C_8
REMARK    4  A    between atoms: C_9  and  C_10
REMARK                            x       y       z     vdW  Elec       q    Type
REMARK                         _______ _______ _______ _____ _____    ______ ____
ROOT
ATOM      1  C   UNL     1       9.916  12.859  19.371  0.00  0.00    +0.000 A 
ATOM      2  C   UNL     1       9.199  13.792  18.623  0.00  0.00    +0.000 A 
ATOM      3  C   UNL     1       8.273  13.367  17.670  0.00  0.00    +0.000 A 
ATOM      4  C   UNL     1       8.056  12.004  17.464  0.00  0.00    +0.000 A 
ATOM      5  C   UNL     1       8.778  11.064  18.202  0.00  0.00    +0.000 A 
ATOM      6  C   UNL     1       9.720  11.492  19.142  0.00  0.00    +0.000 A 
ENDROOT
BRANCH   1   8
ATOM      7  C   UNL     1      11.106  14.559  20.497  0.00  0.00    +0.000 C 
ATOM      8  O   UNL     1      10.850  13.168  20.325  0.00  0.00    +0.000 OA
ENDBRANCH   1   8
BRANCH   5   9
ATOM      9  C   UNL     1       8.508   9.669  18.034  0.00  0.00    +0.000 C 
ATOM     10  C   UNL     1       8.205   8.516  17.884  0.00  0.00    +0.000 C 
BRANCH  10  11
ATOM     11  C   UNL     1       7.752   7.176  17.720  0.00  0.00    +0.000 A 
ATOM     12  C   UNL     1       7.668   6.257  18.745  0.00  0.00    +0.000 A 
ATOM     13  S   UNL     1       7.051   4.777  18.132  0.00  0.00    +0.000 S 
ATOM     14  C   UNL     1       6.954   5.491  16.582  0.00  0.00    +0.000 A 
ATOM     15  I   UNL     1       6.250   4.439  14.950  0.00  0.00    +0.000 I 
ATOM     16  N   UNL     1       7.343   6.742  16.479  0.00  0.00    +0.000 NA
ENDBRANCH  10  11
ENDBRANCH   5   9
TORSDOF 3
ENDMDL
MODEL 6
REMARK VINA RESULT:      -6.1      4.523      7.397
REMARK  Name = 
REMARK  4 active torsions:
REMARK  status: ('A' for Active; 'I' for Inactive)
REMARK    1  A    between atoms: C_1  and  O_2
REMARK    2  A    between atoms: O_2  and  C_3
REMARK    3  A    between atoms: C_7  and  C_8
REMARK    4  A    between atoms: C_9  and  C_10
REMARK                            x       y       z     vdW  Elec       q    Type
REMARK                         _______ _______ _______ _____ _____    ______ ____
ROOT
ATOM      1  C   UNL     1       6.412   5.197  15.756  0.00  0.00    +0.000 A 
ATOM      2  C   UNL     1       5.059   5.213  16.097  0.00  0.00    +0.000 A 
ATOM      3  C   UNL     1       4.574   6.159  16.999  0.00  0.00    +0.000 A 
ATOM      4  C   UNL     1       5.438   7.099  17.561  0.00  0.00    +0.000 A 
ATOM      5  C   UNL     1       6.794   7.083  17.232  0.00  0.00    +0.000 A 
ATOM      6  C   UNL     1       7.283   6.121  16.343  0.00  0.00    +0.000 A 
ENDROOT
BRANCH   1   8
ATOM      7  C   UNL     1       6.180   3.919  13.783  0.00  0.00    +0.000 C 
ATOM      8  O   UNL     1       6.991   4.310  14.888  0.00  0.00    +0.000 OA
ENDBRANCH   1   8
BRANCH   5   9
ATOM      9  C   UNL     1       7.666   8.087  17.760  0.00  0.00    +0.000 C 
ATOM     10  C   UNL     1       8.348   8.985  18.176  0.00  0.00    +0.000 C 
BRANCH  10  11
ATOM     11  C   UNL     1       9.103  10.111  18.614  0.00  0.00    +0.000 A 
ATOM     12  C   UNL     1       9.288  10.450  19.937  0.00  0.00    +0.000 A 
ATOM     13  S   UNL     1      10.277  11.850  20.031  0.00  0.00    +0.000 S 
ATOM     14  C   UNL     1      10.365  11.869  18.324  0.00  0.00    +0.000 A 
ATOM     15  I   UNL     1      11.443  13.312  17.313  0.00  0.00    +0.000 I 
ATOM     16  N   UNL     1       9.718  10.920  17.685  0.00  0.00    +0.000 NA
ENDBRANCH  10  11
ENDBRANCH   5   9
TORSDOF 3
ENDMDL
MODEL 7
REMARK VINA RESULT:      -6.0      4.984      7.419
REMARK  Name = 
REMARK  4 active torsions:
REMARK  status: ('A' for Active; 'I' for Inactive)
REMARK    1  A    between atoms: C_1  and  O_2
REMARK    2  A    between atoms: O_2  and  C_3
REMARK    3  A    between atoms: C_7  and  C_8
REMARK    4  A    between atoms: C_9  and  C_10
REMARK                            x       y       z     vdW  Elec       q    Type
REMARK                         _______ _______ _______ _____ _____    ______ ____
ROOT
ATOM      1  C   UNL     1       6.198   5.881  16.775  0.00  0.00    +0.000 A 
ATOM      2  C   UNL     1       6.513   4.876  17.689  0.00  0.00    +0.000 A 
ATOM      3  C   UNL     1       7.423   5.121  18.717  0.00  0.00    +0.000 A 
ATOM      4  C   UNL     1       8.020   6.376  18.840  0.00  0.00    +0.000 A 
ATOM      5  C   UNL     1       7.717   7.384  17.923  0.00  0.00    +0.000 A 
ATOM      6  C   UNL     1       6.821   7.130  16.881  0.00  0.00    +0.000 A 
ENDROOT
BRANCH   1   8
ATOM      7  C   UNL     1       5.704   4.792  14.739  0.00  0.00    +0.000 C 
ATOM      8  O   UNL     1       5.325   5.745  15.729  0.00  0.00    +0.000 OA
ENDBRANCH   1   8
BRANCH   5   9
ATOM      9  C   UNL     1       8.281   8.688  18.089  0.00  0.00    +0.000 C 
ATOM     10  C   UNL     1       8.794   9.756  18.291  0.00  0.00    +0.000 C 
BRANCH  10  11
ATOM     11  C   UNL     1       9.427  10.989  18.620  0.00  0.00    +0.000 A 
ATOM     12  C   UNL     1      10.363  11.614  17.825  0.00  0.00    +0.000 A 
ATOM     13  S   UNL     1      10.852  13.082  18.569  0.00  0.00    +0.000 S 
ATOM     14  C   UNL     1       9.783  12.751  19.860  0.00  0.00    +0.000 A 
ATOM     15  I   UNL     1       9.583  14.046  21.458  0.00  0.00    +0.000 I 
ATOM     16  N   UNL     1       9.089  11.637  19.788  0.00  0.00    +0.000 NA
ENDBRANCH  10  11
ENDBRANCH   5   9
TORSDOF 3
ENDMDL
MODEL 8
REMARK VINA RESULT:      -6.0      4.958      7.317
REMARK  Name = 
REMARK  4 active torsions:
REMARK  status: ('A' for Active; 'I' for Inactive)
REMARK    1  A    between atoms: C_1  and  O_2
REMARK    2  A    between atoms: O_2  and  C_3
REMARK    3  A    between atoms: C_7  and  C_8
REMARK    4  A    between atoms: C_9  and  C_10
REMARK                            x       y       z     vdW  Elec       q    Type
REMARK                         _______ _______ _______ _____ _____    ______ ____
ROOT
ATOM      1  C   UNL     1       6.200   6.102  17.022  0.00  0.00    +0.000 A 
ATOM      2  C   UNL     1       6.619   5.116  17.916  0.00  0.00    +0.000 A 
ATOM      3  C   UNL     1       7.621   5.391  18.846  0.00  0.00    +0.000 A 
ATOM      4  C   UNL     1       8.207   6.656  18.891  0.00  0.00    +0.000 A 
ATOM      5  C   UNL     1       7.800   7.644  17.993  0.00  0.00    +0.000 A 
ATOM      6  C   UNL     1       6.810   7.362  17.048  0.00  0.00    +0.000 A 
ENDROOT
BRANCH   1   8
ATOM      7  C   UNL     1       5.578   5.073  14.990  0.00  0.00    +0.000 C 
ATOM      8  O   UNL     1       5.231   5.936  16.069  0.00  0.00    +0.000 OA
ENDBRANCH   1   8
BRANCH   5   9
ATOM      9  C   UNL     1       8.358   8.960  18.083  0.00  0.00    +0.000 C 
ATOM     10  C   UNL     1       8.851  10.045  18.231  0.00  0.00    +0.000 C 
BRANCH  10  11
ATOM     11  C   UNL     1       9.443  11.312  18.503  0.00  0.00    +0.000 A 
ATOM     12  C   UNL     1      10.711  11.478  19.017  0.00  0.00    +0.000 A 
ATOM     13  S   UNL     1      11.049  13.154  19.166  0.00  0.00    +0.000 S 
ATOM     14  C   UNL     1       9.496  13.495  18.538  0.00  0.00    +0.000 A 
ATOM     15  I   UNL     1       8.837  15.435  18.276  0.00  0.00    +0.000 I 
ATOM     16  N   UNL     1       8.743  12.465  18.226  0.00  0.00    +0.000 NA
ENDBRANCH  10  11
ENDBRANCH   5   9
TORSDOF 3
ENDMDL
MODEL 9
REMARK VINA RESULT:      -5.9      7.344      8.357
REMARK  Name = 
REMARK  4 active torsions:
REMARK  status: ('A' for Active; 'I' for Inactive)
REMARK    1  A    between atoms: C_1  and  O_2
REMARK    2  A    between atoms: O_2  and  C_3
REMARK    3  A    between atoms: C_7  and  C_8
REMARK    4  A    between atoms: C_9  and  C_10
REMARK                            x       y       z     vdW  Elec       q    Type
REMARK                         _______ _______ _______ _____ _____    ______ ____
ROOT
ATOM      1  C   UNL     1       5.319   5.770  16.341  0.00  0.00    +0.000 A 
ATOM      2  C   UNL     1       5.230   4.630  17.140  0.00  0.00    +0.000 A 
ATOM      3  C   UNL     1       4.342   4.593  18.215  0.00  0.00    +0.000 A 
ATOM      4  C   UNL     1       3.532   5.694  18.492  0.00  0.00    +0.000 A 
ATOM      5  C   UNL     1       3.623   6.842  17.703  0.00  0.00    +0.000 A 
ATOM      6  C   UNL     1       4.528   6.885  16.639  0.00  0.00    +0.000 A 
ENDROOT
BRANCH   1   8
ATOM      7  C   UNL     1       6.758   4.708  14.799  0.00  0.00    +0.000 C 
ATOM      8  O   UNL     1       6.159   5.912  15.268  0.00  0.00    +0.000 OA
ENDBRANCH   1   8
BRANCH   5   9
ATOM      9  C   UNL     1       2.747   7.946  17.951  0.00  0.00    +0.000 C 
ATOM     10  C   UNL     1       1.959   8.821  18.188  0.00  0.00    +0.000 C 
BRANCH  10  11
ATOM     11  C   UNL     1       0.957   9.790  18.483  0.00  0.00    +0.000 A 
ATOM     12  C   UNL     1       1.114  10.813  19.394  0.00  0.00    +0.000 A 
ATOM     13  S   UNL     1      -0.312  11.767  19.428  0.00  0.00    +0.000 S 
ATOM     14  C   UNL     1      -0.994  10.742  18.242  0.00  0.00    +0.000 A 
ATOM     15  I   UNL     1      -2.895  11.060  17.501  0.00  0.00    +0.000 I 
ATOM     16  N   UNL     1      -0.249   9.745  17.820  0.00  0.00    +0.000 NA
ENDBRANCH  10  11
ENDBRANCH   5   9
TORSDOF 3
ENDMDL
