MODEL 1
REMARK VINA RESULT:      -7.1      0.000      0.000
REMARK  Name = 
REMARK  7 active torsions:
REMARK  status: ('A' for Active; 'I' for Inactive)
REMARK    1  A    between atoms: C_1  and  N_2
REMARK    2  A    between atoms: C_3  and  N_4
REMARK    3  A    between atoms: C_5  and  N_6
REMARK    4  A    between atoms: N_7  and  C_8
REMARK    5  A    between atoms: C_11  and  S_12
REMARK    6  A    between atoms: S_12  and  N_13
REMARK    7  A    between atoms: N_20  and  C_21
REMARK                            x       y       z     vdW  Elec       q    Type
REMARK                         _______ _______ _______ _____ _____    ______ ____
ROOT
ATOM      1  N   UNL     1       2.257   8.416  18.865  0.00  0.00    +0.000 NA
ATOM      2  N   UNL     1       2.170   7.171  18.885  0.00  0.00    +0.000 NA
ENDROOT
BRANCH   1   6
ATOM      3  C   UNL     1      -0.177   9.648  22.980  0.00  0.00    +0.000 C 
ATOM      4  N   UNL     1       0.098   9.748  21.551  0.00  0.00    +0.000 N 
ATOM      5  C   UNL     1       1.051   8.950  20.927  0.00  0.00    +0.000 A 
ATOM      6  C   UNL     1       1.303   9.109  19.601  0.00  0.00    +0.000 A 
ATOM      7  C   UNL     1       0.477  10.088  18.822  0.00  0.00    +0.000 A 
ATOM      8  O   UNL     1       0.682  10.250  17.618  0.00  0.00    +0.000 OA
ATOM      9  N   UNL     1      -0.501  10.770  19.513  0.00  0.00    +0.000 N 
ATOM     10  C   UNL     1      -1.370  11.690  18.800  0.00  0.00    +0.000 C 
ATOM     11  C   UNL     1      -0.703  10.663  20.875  0.00  0.00    +0.000 A 
ATOM     12  O   UNL     1      -1.550  11.343  21.459  0.00  0.00    +0.000 OA
BRANCH   5  13
ATOM     13  N   UNL     1       1.746   7.988  21.664  0.00  0.00    +0.000 N 
ATOM     14  H   UNL     1       1.157   7.232  21.991  0.00  0.00    +0.000 HD
ATOM     15  H   UNL     1       2.232   8.421  22.453  0.00  0.00    +0.000 HD
ENDBRANCH   5  13
ENDBRANCH   1   6
BRANCH   2  16
ATOM     16  C   UNL     1       3.211   6.501  18.212  0.00  0.00    +0.000 A 
ATOM     17  C   UNL     1       4.048   7.296  17.414  0.00  0.00    +0.000 A 
ATOM     18  C   UNL     1       5.110   6.743  16.702  0.00  0.00    +0.000 A 
ATOM     19  C   UNL     1       5.364   5.376  16.799  0.00  0.00    +0.000 A 
ATOM     20  C   UNL     1       4.550   4.558  17.596  0.00  0.00    +0.000 A 
ATOM     21  C   UNL     1       3.485   5.128  18.307  0.00  0.00    +0.000 A 
BRANCH  19  22
ATOM     22  S   UNL     1       6.702   4.678  15.881  0.00  0.00    +0.000 S 
ATOM     23  O   UNL     1       6.846   5.384  14.631  0.00  0.00    +0.000 OA
ATOM     24  O   UNL     1       7.809   4.436  16.772  0.00  0.00    +0.000 OA
BRANCH  22  25
ATOM     25  N   UNL     1       6.080   3.166  15.494  0.00  0.00    +0.000 NA
ATOM     26  H   UNL     1       6.354   2.487  16.203  0.00  0.00    +0.000 HD
ATOM     27  H   UNL     1       5.072   3.231  15.348  0.00  0.00    +0.000 HD
ENDBRANCH  22  25
ENDBRANCH  19  22
ENDBRANCH   2  16
TORSDOF 5
ENDMDL
MODEL 2
REMARK VINA RESULT:      -7.0      0.916      1.113
REMARK  Name = 
REMARK  7 active torsions:
REMARK  status: ('A' for Active; 'I' for Inactive)
REMARK    1  A    between atoms: C_1  and  N_2
REMARK    2  A    between atoms: C_3  and  N_4
REMARK    3  A    between atoms: C_5  and  N_6
REMARK    4  A    between atoms: N_7  and  C_8
REMARK    5  A    between atoms: C_11  and  S_12
REMARK    6  A    between atoms: S_12  and  N_13
REMARK    7  A    between atoms: N_20  and  C_21
REMARK                            x       y       z     vdW  Elec       q    Type
REMARK                         _______ _______ _______ _____ _____    ______ ____
ROOT
ATOM      1  N   UNL     1       2.159   8.493  19.111  0.00  0.00    +0.000 NA
ATOM      2  N   UNL     1       2.182   7.268  19.347  0.00  0.00    +0.000 NA
ENDROOT
BRANCH   1   6
ATOM      3  C   UNL     1      -0.320  10.135  23.052  0.00  0.00    +0.000 C 
ATOM      4  N   UNL     1      -0.060  10.053  21.620  0.00  0.00    +0.000 N 
ATOM      5  C   UNL     1       0.935   9.234  21.097  0.00  0.00    +0.000 A 
ATOM      6  C   UNL     1       1.169   9.223  19.758  0.00  0.00    +0.000 A 
ATOM      7  C   UNL     1       0.281  10.036  18.865  0.00  0.00    +0.000 A 
ATOM      8  O   UNL     1       0.469  10.042  17.647  0.00  0.00    +0.000 OA
ATOM      9  N   UNL     1      -0.732  10.749  19.470  0.00  0.00    +0.000 N 
ATOM     10  C   UNL     1      -1.658  11.509  18.650  0.00  0.00    +0.000 C 
ATOM     11  C   UNL     1      -0.919  10.818  20.836  0.00  0.00    +0.000 A 
ATOM     12  O   UNL     1      -1.802  11.521  21.333  0.00  0.00    +0.000 OA
BRANCH   5  13
ATOM     13  N   UNL     1       1.692   8.425  21.949  0.00  0.00    +0.000 N 
ATOM     14  H   UNL     1       2.605   8.807  22.157  0.00  0.00    +0.000 HD
ATOM     15  H   UNL     1       1.786   7.483  21.559  0.00  0.00    +0.000 HD
ENDBRANCH   5  13
ENDBRANCH   1   6
BRANCH   2  16
ATOM     16  C   UNL     1       3.257   6.578  18.754  0.00  0.00    +0.000 A 
ATOM     17  C   UNL     1       3.761   7.119  17.561  0.00  0.00    +0.000 A 
ATOM     18  C   UNL     1       4.823   6.522  16.886  0.00  0.00    +0.000 A 
ATOM     19  C   UNL     1       5.415   5.376  17.413  0.00  0.00    +0.000 A 
ATOM     20  C   UNL     1       4.940   4.818  18.609  0.00  0.00    +0.000 A 
ATOM     21  C   UNL     1       3.870   5.428  19.278  0.00  0.00    +0.000 A 
BRANCH  19  22
ATOM     22  S   UNL     1       6.751   4.615  16.544  0.00  0.00    +0.000 S 
ATOM     23  O   UNL     1       7.850   4.391  17.454  0.00  0.00    +0.000 OA
ATOM     24  O   UNL     1       6.228   3.581  15.685  0.00  0.00    +0.000 OA
BRANCH  22  25
ATOM     25  N   UNL     1       7.234   5.862  15.528  0.00  0.00    +0.000 NA
ATOM     26  H   UNL     1       7.354   5.509  14.579  0.00  0.00    +0.000 HD
ATOM     27  H   UNL     1       6.581   6.643  15.601  0.00  0.00    +0.000 HD
ENDBRANCH  22  25
ENDBRANCH  19  22
ENDBRANCH   2  16
TORSDOF 5
ENDMDL
MODEL 3
REMARK VINA RESULT:      -6.9      3.423      7.928
REMARK  Name = 
REMARK  7 active torsions:
REMARK  status: ('A' for Active; 'I' for Inactive)
REMARK    1  A    between atoms: C_1  and  N_2
REMARK    2  A    between atoms: C_3  and  N_4
REMARK    3  A    between atoms: C_5  and  N_6
REMARK    4  A    between atoms: N_7  and  C_8
REMARK    5  A    between atoms: C_11  and  S_12
REMARK    6  A    between atoms: S_12  and  N_13
REMARK    7  A    between atoms: N_20  and  C_21
REMARK                            x       y       z     vdW  Elec       q    Type
REMARK                         _______ _______ _______ _____ _____    ______ ____
ROOT
ATOM      1  N   UNL     1       2.273   7.075  19.077  0.00  0.00    +0.000 NA
ATOM      2  N   UNL     1       2.003   7.723  20.109  0.00  0.00    +0.000 NA
ENDROOT
BRANCH   1   6
ATOM      3  C   UNL     1       2.924   2.548  20.936  0.00  0.00    +0.000 C 
ATOM      4  N   UNL     1       3.326   3.692  20.127  0.00  0.00    +0.000 N 
ATOM      5  C   UNL     1       2.567   4.856  20.068  0.00  0.00    +0.000 A 
ATOM      6  C   UNL     1       2.959   5.881  19.266  0.00  0.00    +0.000 A 
ATOM      7  C   UNL     1       4.257   5.761  18.526  0.00  0.00    +0.000 A 
ATOM      8  O   UNL     1       4.639   6.676  17.795  0.00  0.00    +0.000 OA
ATOM      9  N   UNL     1       4.980   4.603  18.715  0.00  0.00    +0.000 N 
ATOM     10  C   UNL     1       6.272   4.455  18.069  0.00  0.00    +0.000 C 
ATOM     11  C   UNL     1       4.543   3.533  19.470  0.00  0.00    +0.000 A 
ATOM     12  O   UNL     1       5.198   2.491  19.557  0.00  0.00    +0.000 OA
BRANCH   5  13
ATOM     13  N   UNL     1       1.404   4.970  20.834  0.00  0.00    +0.000 N 
ATOM     14  H   UNL     1       1.370   5.817  21.387  0.00  0.00    +0.000 HD
ATOM     15  H   UNL     1       1.291   4.152  21.439  0.00  0.00    +0.000 HD
ENDBRANCH   5  13
ENDBRANCH   1   6
BRANCH   2  16
ATOM     16  C   UNL     1       1.221   8.874  19.888  0.00  0.00    +0.000 A 
ATOM     17  C   UNL     1       1.328   9.464  18.619  0.00  0.00    +0.000 A 
ATOM     18  C   UNL     1       0.603  10.607  18.287  0.00  0.00    +0.000 A 
ATOM     19  C   UNL     1      -0.265  11.166  19.224  0.00  0.00    +0.000 A 
ATOM     20  C   UNL     1      -0.400  10.592  20.497  0.00  0.00    +0.000 A 
ATOM     21  C   UNL     1       0.336   9.443  20.818  0.00  0.00    +0.000 A 
BRANCH  19  22
ATOM     22  S   UNL     1      -1.170  12.623  18.803  0.00  0.00    +0.000 S 
ATOM     23  O   UNL     1      -2.375  12.685  19.595  0.00  0.00    +0.000 OA
ATOM     24  O   UNL     1      -0.254  13.731  18.688  0.00  0.00    +0.000 OA
BRANCH  22  25
ATOM     25  N   UNL     1      -1.659  12.263  17.237  0.00  0.00    +0.000 NA
ATOM     26  H   UNL     1      -2.615  11.908  17.246  0.00  0.00    +0.000 HD
ATOM     27  H   UNL     1      -1.522  13.074  16.634  0.00  0.00    +0.000 HD
ENDBRANCH  22  25
ENDBRANCH  19  22
ENDBRANCH   2  16
TORSDOF 5
ENDMDL
MODEL 4
REMARK VINA RESULT:      -6.9      2.064      3.154
REMARK  Name = 
REMARK  7 active torsions:
REMARK  status: ('A' for Active; 'I' for Inactive)
REMARK    1  A    between atoms: C_1  and  N_2
REMARK    2  A    between atoms: C_3  and  N_4
REMARK    3  A    between atoms: C_5  and  N_6
REMARK    4  A    between atoms: N_7  and  C_8
REMARK    5  A    between atoms: C_11  and  S_12
REMARK    6  A    between atoms: S_12  and  N_13
REMARK    7  A    between atoms: N_20  and  C_21
REMARK                            x       y       z     vdW  Elec       q    Type
REMARK                         _______ _______ _______ _____ _____    ______ ____
ROOT
ATOM      1  N   UNL     1       1.062   8.976  19.715  0.00  0.00    +0.000 NA
ATOM      2  N   UNL     1       1.722   8.917  18.657  0.00  0.00    +0.000 NA
ENDROOT
BRANCH   1   6
ATOM      3  C   UNL     1      -2.629  11.794  18.038  0.00  0.00    +0.000 C 
ATOM      4  N   UNL     1      -1.655  11.389  19.045  0.00  0.00    +0.000 N 
ATOM      5  C   UNL     1      -0.733  10.374  18.812  0.00  0.00    +0.000 A 
ATOM      6  C   UNL     1       0.127  10.002  19.796  0.00  0.00    +0.000 A 
ATOM      7  C   UNL     1       0.117  10.762  21.089  0.00  0.00    +0.000 A 
ATOM      8  O   UNL     1       0.888  10.448  21.997  0.00  0.00    +0.000 OA
ATOM      9  N   UNL     1      -0.777  11.807  21.193  0.00  0.00    +0.000 N 
ATOM     10  C   UNL     1      -0.793  12.614  22.399  0.00  0.00    +0.000 C 
ATOM     11  C   UNL     1      -1.701  12.133  20.220  0.00  0.00    +0.000 A 
ATOM     12  O   UNL     1      -2.523  13.037  20.387  0.00  0.00    +0.000 OA
BRANCH   5  13
ATOM     13  N   UNL     1      -0.693   9.741  17.567  0.00  0.00    +0.000 N 
ATOM     14  H   UNL     1       0.094   9.111  17.465  0.00  0.00    +0.000 HD
ATOM     15  H   UNL     1      -0.690  10.432  16.812  0.00  0.00    +0.000 HD
ENDBRANCH   5  13
ENDBRANCH   1   6
BRANCH   2  16
ATOM     16  C   UNL     1       2.587   7.808  18.570  0.00  0.00    +0.000 A 
ATOM     17  C   UNL     1       2.476   6.851  19.591  0.00  0.00    +0.000 A 
ATOM     18  C   UNL     1       3.280   5.714  19.609  0.00  0.00    +0.000 A 
ATOM     19  C   UNL     1       4.199   5.506  18.582  0.00  0.00    +0.000 A 
ATOM     20  C   UNL     1       4.324   6.439  17.542  0.00  0.00    +0.000 A 
ATOM     21  C   UNL     1       3.510   7.579  17.537  0.00  0.00    +0.000 A 
BRANCH  19  22
ATOM     22  S   UNL     1       5.226   4.069  18.618  0.00  0.00    +0.000 S 
ATOM     23  O   UNL     1       6.607   4.462  18.467  0.00  0.00    +0.000 OA
ATOM     24  O   UNL     1       4.776   3.193  19.672  0.00  0.00    +0.000 OA
BRANCH  22  25
ATOM     25  N   UNL     1       4.794   3.321  17.178  0.00  0.00    +0.000 NA
ATOM     26  H   UNL     1       5.631   3.062  16.657  0.00  0.00    +0.000 HD
ATOM     27  H   UNL     1       4.163   2.542  17.365  0.00  0.00    +0.000 HD
ENDBRANCH  22  25
ENDBRANCH  19  22
ENDBRANCH   2  16
TORSDOF 5
ENDMDL
MODEL 5
REMARK VINA RESULT:      -6.8      3.426      8.053
REMARK  Name = 
REMARK  7 active torsions:
REMARK  status: ('A' for Active; 'I' for Inactive)
REMARK    1  A    between atoms: C_1  and  N_2
REMARK    2  A    between atoms: C_3  and  N_4
REMARK    3  A    between atoms: C_5  and  N_6
REMARK    4  A    between atoms: N_7  and  C_8
REMARK    5  A    between atoms: C_11  and  S_12
REMARK    6  A    between atoms: S_12  and  N_13
REMARK    7  A    between atoms: N_20  and  C_21
REMARK                            x       y       z     vdW  Elec       q    Type
REMARK                         _______ _______ _______ _____ _____    ______ ____
ROOT
ATOM      1  N   UNL     1       2.306   7.068  19.015  0.00  0.00    +0.000 NA
ATOM      2  N   UNL     1       2.018   7.738  20.029  0.00  0.00    +0.000 NA
ENDROOT
BRANCH   1   6
ATOM      3  C   UNL     1       2.866   2.568  20.965  0.00  0.00    +0.000 C 
ATOM      4  N   UNL     1       3.299   3.695  20.147  0.00  0.00    +0.000 N 
ATOM      5  C   UNL     1       2.553   4.864  20.050  0.00  0.00    +0.000 A 
ATOM      6  C   UNL     1       2.976   5.872  19.241  0.00  0.00    +0.000 A 
ATOM      7  C   UNL     1       4.291   5.728  18.537  0.00  0.00    +0.000 A 
ATOM      8  O   UNL     1       4.700   6.627  17.801  0.00  0.00    +0.000 OA
ATOM      9  N   UNL     1       4.998   4.566  18.764  0.00  0.00    +0.000 N 
ATOM     10  C   UNL     1       6.304   4.395  18.153  0.00  0.00    +0.000 C 
ATOM     11  C   UNL     1       4.531   3.513  19.525  0.00  0.00    +0.000 A 
ATOM     12  O   UNL     1       5.173   2.467  19.646  0.00  0.00    +0.000 OA
BRANCH   5  13
ATOM     13  N   UNL     1       1.372   5.001  20.784  0.00  0.00    +0.000 N 
ATOM     14  H   UNL     1       1.458   4.685  21.742  0.00  0.00    +0.000 HD
ATOM     15  H   UNL     1       0.602   4.512  20.321  0.00  0.00    +0.000 HD
ENDBRANCH   5  13
ENDBRANCH   1   6
BRANCH   2  16
ATOM     16  C   UNL     1       1.253   8.892  19.769  0.00  0.00    +0.000 A 
ATOM     17  C   UNL     1       0.469   9.370  20.830  0.00  0.00    +0.000 A 
ATOM     18  C   UNL     1      -0.328  10.504  20.690  0.00  0.00    +0.000 A 
ATOM     19  C   UNL     1      -0.334  11.193  19.478  0.00  0.00    +0.000 A 
ATOM     20  C   UNL     1       0.447  10.745  18.403  0.00  0.00    +0.000 A 
ATOM     21  C   UNL     1       1.244   9.603  18.558  0.00  0.00    +0.000 A 
BRANCH  19  22
ATOM     22  S   UNL     1      -1.359  12.621  19.301  0.00  0.00    +0.000 S 
ATOM     23  O   UNL     1      -2.746  12.227  19.366  0.00  0.00    +0.000 OA
ATOM     24  O   UNL     1      -0.815  13.694  20.096  0.00  0.00    +0.000 OA
BRANCH  22  25
ATOM     25  N   UNL     1      -1.067  13.037  17.700  0.00  0.00    +0.000 NA
ATOM     26  H   UNL     1      -1.790  12.640  17.101  0.00  0.00    +0.000 HD
ATOM     27  H   UNL     1      -0.966  14.048  17.615  0.00  0.00    +0.000 HD
ENDBRANCH  22  25
ENDBRANCH  19  22
ENDBRANCH   2  16
TORSDOF 5
ENDMDL
MODEL 6
REMARK VINA RESULT:      -6.7      2.669      3.614
REMARK  Name = 
REMARK  7 active torsions:
REMARK  status: ('A' for Active; 'I' for Inactive)
REMARK    1  A    between atoms: C_1  and  N_2
REMARK    2  A    between atoms: C_3  and  N_4
REMARK    3  A    between atoms: C_5  and  N_6
REMARK    4  A    between atoms: N_7  and  C_8
REMARK    5  A    between atoms: C_11  and  S_12
REMARK    6  A    between atoms: S_12  and  N_13
REMARK    7  A    between atoms: N_20  and  C_21
REMARK                            x       y       z     vdW  Elec       q    Type
REMARK                         _______ _______ _______ _____ _____    ______ ____
ROOT
ATOM      1  N   UNL     1       0.614   8.454  20.299  0.00  0.00    +0.000 NA
ATOM      2  N   UNL     1       1.763   8.317  19.830  0.00  0.00    +0.000 NA
ENDROOT
BRANCH   1   6
ATOM      3  C   UNL     1      -0.725  12.746  18.258  0.00  0.00    +0.000 C 
ATOM      4  N   UNL     1      -0.559  11.837  19.386  0.00  0.00    +0.000 N 
ATOM      5  C   UNL     1       0.015  10.579  19.240  0.00  0.00    +0.000 A 
ATOM      6  C   UNL     1       0.110   9.750  20.314  0.00  0.00    +0.000 A 
ATOM      7  C   UNL     1      -0.331  10.253  21.655  0.00  0.00    +0.000 A 
ATOM      8  O   UNL     1      -0.253   9.524  22.645  0.00  0.00    +0.000 OA
ATOM      9  N   UNL     1      -0.808  11.545  21.712  0.00  0.00    +0.000 N 
ATOM     10  C   UNL     1      -1.196  12.106  22.994  0.00  0.00    +0.000 C 
ATOM     11  C   UNL     1      -0.974  12.357  20.608  0.00  0.00    +0.000 A 
ATOM     12  O   UNL     1      -1.465  13.485  20.703  0.00  0.00    +0.000 OA
BRANCH   5  13
ATOM     13  N   UNL     1       0.493  10.170  17.993  0.00  0.00    +0.000 N 
ATOM     14  H   UNL     1       0.093   9.295  17.679  0.00  0.00    +0.000 HD
ATOM     15  H   UNL     1       1.515  10.105  18.003  0.00  0.00    +0.000 HD
ENDBRANCH   5  13
ENDBRANCH   1   6
BRANCH   2  16
ATOM     16  C   UNL     1       2.201   6.981  19.739  0.00  0.00    +0.000 A 
ATOM     17  C   UNL     1       3.072   6.683  18.680  0.00  0.00    +0.000 A 
ATOM     18  C   UNL     1       3.569   5.396  18.490  0.00  0.00    +0.000 A 
ATOM     19  C   UNL     1       3.214   4.384  19.381  0.00  0.00    +0.000 A 
ATOM     20  C   UNL     1       2.354   4.654  20.455  0.00  0.00    +0.000 A 
ATOM     21  C   UNL     1       1.860   5.954  20.634  0.00  0.00    +0.000 A 
BRANCH  19  22
ATOM     22  S   UNL     1       3.835   2.751  19.126  0.00  0.00    +0.000 S 
ATOM     23  O   UNL     1       4.919   2.500  20.046  0.00  0.00    +0.000 OA
ATOM     24  O   UNL     1       2.726   1.844  18.962  0.00  0.00    +0.000 OA
BRANCH  22  25
ATOM     25  N   UNL     1       4.538   2.901  17.608  0.00  0.00    +0.000 NA
ATOM     26  H   UNL     1       3.818   3.082  16.908  0.00  0.00    +0.000 HD
ATOM     27  H   UNL     1       5.278   3.603  17.634  0.00  0.00    +0.000 HD
ENDBRANCH  22  25
ENDBRANCH  19  22
ENDBRANCH   2  16
TORSDOF 5
ENDMDL
MODEL 7
REMARK VINA RESULT:      -6.7      3.001      4.023
REMARK  Name = 
REMARK  7 active torsions:
REMARK  status: ('A' for Active; 'I' for Inactive)
REMARK    1  A    between atoms: C_1  and  N_2
REMARK    2  A    between atoms: C_3  and  N_4
REMARK    3  A    between atoms: C_5  and  N_6
REMARK    4  A    between atoms: N_7  and  C_8
REMARK    5  A    between atoms: C_11  and  S_12
REMARK    6  A    between atoms: S_12  and  N_13
REMARK    7  A    between atoms: N_20  and  C_21
REMARK                            x       y       z     vdW  Elec       q    Type
REMARK                         _______ _______ _______ _____ _____    ______ ____
ROOT
ATOM      1  N   UNL     1       0.758   8.651  20.322  0.00  0.00    +0.000 NA
ATOM      2  N   UNL     1       1.784   8.443  19.642  0.00  0.00    +0.000 NA
ENDROOT
BRANCH   1   6
ATOM      3  C   UNL     1      -1.036  12.601  17.967  0.00  0.00    +0.000 C 
ATOM      4  N   UNL     1      -0.660  11.860  19.165  0.00  0.00    +0.000 N 
ATOM      5  C   UNL     1      -0.075  10.601  19.099  0.00  0.00    +0.000 A 
ATOM      6  C   UNL     1       0.219   9.930  20.244  0.00  0.00    +0.000 A 
ATOM      7  C   UNL     1      -0.017  10.610  21.559  0.00  0.00    +0.000 A 
ATOM      8  O   UNL     1       0.244  10.027  22.612  0.00  0.00    +0.000 OA
ATOM      9  N   UNL     1      -0.521  11.892  21.518  0.00  0.00    +0.000 N 
ATOM     10  C   UNL     1      -0.716  12.622  22.758  0.00  0.00    +0.000 C 
ATOM     11  C   UNL     1      -0.890  12.541  20.357  0.00  0.00    +0.000 A 
ATOM     12  O   UNL     1      -1.397  13.665  20.377  0.00  0.00    +0.000 OA
BRANCH   5  13
ATOM     13  N   UNL     1       0.209  10.027  17.856  0.00  0.00    +0.000 N 
ATOM     14  H   UNL     1      -0.612   9.897  17.279  0.00  0.00    +0.000 HD
ATOM     15  H   UNL     1       0.699   9.137  17.976  0.00  0.00    +0.000 HD
ENDBRANCH   5  13
ENDBRANCH   1   6
BRANCH   2  16
ATOM     16  C   UNL     1       2.243   7.112  19.667  0.00  0.00    +0.000 A 
ATOM     17  C   UNL     1       1.710   6.290  20.672  0.00  0.00    +0.000 A 
ATOM     18  C   UNL     1       2.090   4.955  20.795  0.00  0.00    +0.000 A 
ATOM     19  C   UNL     1       3.002   4.415  19.889  0.00  0.00    +0.000 A 
ATOM     20  C   UNL     1       3.544   5.210  18.868  0.00  0.00    +0.000 A 
ATOM     21  C   UNL     1       3.153   6.551  18.757  0.00  0.00    +0.000 A 
BRANCH  19  22
ATOM     22  S   UNL     1       3.493   2.727  20.059  0.00  0.00    +0.000 S 
ATOM     23  O   UNL     1       3.489   2.364  21.457  0.00  0.00    +0.000 OA
ATOM     24  O   UNL     1       2.832   1.939  19.048  0.00  0.00    +0.000 OA
BRANCH  22  25
ATOM     25  N   UNL     1       5.107   2.807  19.603  0.00  0.00    +0.000 NA
ATOM     26  H   UNL     1       5.274   3.659  19.068  0.00  0.00    +0.000 HD
ATOM     27  H   UNL     1       5.707   2.707  20.422  0.00  0.00    +0.000 HD
ENDBRANCH  22  25
ENDBRANCH  19  22
ENDBRANCH   2  16
TORSDOF 5
ENDMDL
MODEL 8
REMARK VINA RESULT:      -6.7      3.578      8.159
REMARK  Name = 
REMARK  7 active torsions:
REMARK  status: ('A' for Active; 'I' for Inactive)
REMARK    1  A    between atoms: C_1  and  N_2
REMARK    2  A    between atoms: C_3  and  N_4
REMARK    3  A    between atoms: C_5  and  N_6
REMARK    4  A    between atoms: N_7  and  C_8
REMARK    5  A    between atoms: C_11  and  S_12
REMARK    6  A    between atoms: S_12  and  N_13
REMARK    7  A    between atoms: N_20  and  C_21
REMARK                            x       y       z     vdW  Elec       q    Type
REMARK                         _______ _______ _______ _____ _____    ______ ____
ROOT
ATOM      1  N   UNL     1       2.025   6.954  19.089  0.00  0.00    +0.000 NA
ATOM      2  N   UNL     1       2.166   7.853  19.944  0.00  0.00    +0.000 NA
ENDROOT
BRANCH   1   6
ATOM      3  C   UNL     1       6.112   4.322  18.227  0.00  0.00    +0.000 C 
ATOM      4  N   UNL     1       4.809   4.537  18.845  0.00  0.00    +0.000 N 
ATOM      5  C   UNL     1       4.048   5.672  18.585  0.00  0.00    +0.000 A 
ATOM      6  C   UNL     1       2.858   5.849  19.218  0.00  0.00    +0.000 A 
ATOM      7  C   UNL     1       2.353   4.765  20.122  0.00  0.00    +0.000 A 
ATOM      8  O   UNL     1       1.276   4.898  20.705  0.00  0.00    +0.000 OA
ATOM      9  N   UNL     1       3.140   3.640  20.249  0.00  0.00    +0.000 N 
ATOM     10  C   UNL     1       2.675   2.533  21.065  0.00  0.00    +0.000 C 
ATOM     11  C   UNL     1       4.383   3.496  19.665  0.00  0.00    +0.000 A 
ATOM     12  O   UNL     1       5.078   2.496  19.861  0.00  0.00    +0.000 OA
BRANCH   5  13
ATOM     13  N   UNL     1       4.508   6.626  17.675  0.00  0.00    +0.000 N 
ATOM     14  H   UNL     1       3.862   7.394  17.540  0.00  0.00    +0.000 HD
ATOM     15  H   UNL     1       4.725   6.189  16.775  0.00  0.00    +0.000 HD
ENDBRANCH   5  13
ENDBRANCH   1   6
BRANCH   2  16
ATOM     16  C   UNL     1       1.239   8.908  19.841  0.00  0.00    +0.000 A 
ATOM     17  C   UNL     1       1.063   9.459  18.562  0.00  0.00    +0.000 A 
ATOM     18  C   UNL     1       0.173  10.507  18.340  0.00  0.00    +0.000 A 
ATOM     19  C   UNL     1      -0.576  11.009  19.403  0.00  0.00    +0.000 A 
ATOM     20  C   UNL     1      -0.429  10.472  20.691  0.00  0.00    +0.000 A 
ATOM     21  C   UNL     1       0.470   9.418  20.900  0.00  0.00    +0.000 A 
BRANCH  19  22
ATOM     22  S   UNL     1      -1.691  12.348  19.119  0.00  0.00    +0.000 S 
ATOM     23  O   UNL     1      -3.027  11.831  18.936  0.00  0.00    +0.000 OA
ATOM     24  O   UNL     1      -1.389  13.418  20.038  0.00  0.00    +0.000 OA
BRANCH  22  25
ATOM     25  N   UNL     1      -1.186  12.880  17.608  0.00  0.00    +0.000 NA
ATOM     26  H   UNL     1      -1.313  13.889  17.535  0.00  0.00    +0.000 HD
ATOM     27  H   UNL     1      -0.231  12.567  17.430  0.00  0.00    +0.000 HD
ENDBRANCH  22  25
ENDBRANCH  19  22
ENDBRANCH   2  16
TORSDOF 5
ENDMDL
MODEL 9
REMARK VINA RESULT:      -6.7      3.451      8.426
REMARK  Name = 
REMARK  7 active torsions:
REMARK  status: ('A' for Active; 'I' for Inactive)
REMARK    1  A    between atoms: C_1  and  N_2
REMARK    2  A    between atoms: C_3  and  N_4
REMARK    3  A    between atoms: C_5  and  N_6
REMARK    4  A    between atoms: N_7  and  C_8
REMARK    5  A    between atoms: C_11  and  S_12
REMARK    6  A    between atoms: S_12  and  N_13
REMARK    7  A    between atoms: N_20  and  C_21
REMARK                            x       y       z     vdW  Elec       q    Type
REMARK                         _______ _______ _______ _____ _____    ______ ____
ROOT
ATOM      1  N   UNL     1       1.646   7.794  19.762  0.00  0.00    +0.000 NA
ATOM      2  N   UNL     1       1.839   8.156  20.941  0.00  0.00    +0.000 NA
ENDROOT
BRANCH   1   6
ATOM      3  C   UNL     1       3.752   3.329  19.772  0.00  0.00    +0.000 C 
ATOM      4  N   UNL     1       3.535   4.664  19.228  0.00  0.00    +0.000 N 
ATOM      5  C   UNL     1       2.696   5.585  19.847  0.00  0.00    +0.000 A 
ATOM      6  C   UNL     1       2.492   6.803  19.279  0.00  0.00    +0.000 A 
ATOM      7  C   UNL     1       3.251   7.156  18.035  0.00  0.00    +0.000 A 
ATOM      8  O   UNL     1       3.088   8.254  17.501  0.00  0.00    +0.000 OA
ATOM      9  N   UNL     1       4.124   6.207  17.545  0.00  0.00    +0.000 N 
ATOM     10  C   UNL     1       4.929   6.515  16.376  0.00  0.00    +0.000 C 
ATOM     11  C   UNL     1       4.272   4.944  18.081  0.00  0.00    +0.000 A 
ATOM     12  O   UNL     1       5.019   4.107  17.567  0.00  0.00    +0.000 OA
BRANCH   5  13
ATOM     13  N   UNL     1       2.066   5.257  21.050  0.00  0.00    +0.000 N 
ATOM     14  H   UNL     1       1.185   5.737  21.184  0.00  0.00    +0.000 HD
ATOM     15  H   UNL     1       2.689   5.438  21.842  0.00  0.00    +0.000 HD
ENDBRANCH   5  13
ENDBRANCH   1   6
BRANCH   2  16
ATOM     16  C   UNL     1       0.902   9.088  21.428  0.00  0.00    +0.000 A 
ATOM     17  C   UNL     1       0.433  10.038  20.507  0.00  0.00    +0.000 A 
ATOM     18  C   UNL     1      -0.495  11.009  20.876  0.00  0.00    +0.000 A 
ATOM     19  C   UNL     1      -0.988  11.028  22.180  0.00  0.00    +0.000 A 
ATOM     20  C   UNL     1      -0.545  10.085  23.119  0.00  0.00    +0.000 A 
ATOM     21  C   UNL     1       0.389   9.114  22.735  0.00  0.00    +0.000 A 
BRANCH  19  22
ATOM     22  S   UNL     1      -2.153  12.271  22.646  0.00  0.00    +0.000 S 
ATOM     23  O   UNL     1      -2.597  12.978  21.468  0.00  0.00    +0.000 OA
ATOM     24  O   UNL     1      -3.067  11.721  23.616  0.00  0.00    +0.000 OA
BRANCH  22  25
ATOM     25  N   UNL     1      -1.170  13.340  23.490  0.00  0.00    +0.000 NA
ATOM     26  H   UNL     1      -1.357  14.296  23.186  0.00  0.00    +0.000 HD
ATOM     27  H   UNL     1      -1.279  13.195  24.494  0.00  0.00    +0.000 HD
ENDBRANCH  22  25
ENDBRANCH  19  22
ENDBRANCH   2  16
TORSDOF 5
ENDMDL
