MODEL 1
REMARK VINA RESULT:      -7.8      0.000      0.000
REMARK  Name = 
REMARK  3 active torsions:
REMARK  status: ('A' for Active; 'I' for Inactive)
REMARK    1  A    between atoms: C_2  and  C_12
REMARK    2  A    between atoms: N_3  and  C_4
REMARK    3  A    between atoms: C_4  and  C_5
REMARK                            x       y       z     vdW  Elec       q    Type
REMARK                         _______ _______ _______ _____ _____    ______ ____
ROOT
ATOM      1  O   UNL     1       7.195   4.368  18.375  0.00  0.00    +0.000 OA
ATOM      2  C   UNL     1       6.371   4.809  17.578  0.00  0.00    +0.000 C 
ATOM      3  N   UNL     1       5.243   5.501  17.958  0.00  0.00    +0.000 N 
ATOM      4  H   UNL     1       4.570   5.705  17.225  0.00  0.00    +0.000 HD
ENDROOT
BRANCH   2   5
ATOM      5  C   UNL     1       6.515   4.632  16.125  0.00  0.00    +0.000 A 
ATOM      6  C   UNL     1       5.786   3.718  15.326  0.00  0.00    +0.000 A 
ATOM      7  C   UNL     1       6.245   3.911  14.048  0.00  0.00    +0.000 A 
ATOM      8  C   UNL     1       5.937   3.349  12.777  0.00  0.00    +0.000 A 
ATOM      9  C   UNL     1       6.596   3.780  11.686  0.00  0.00    +0.000 A 
ATOM     10  C   UNL     1       7.625   4.804  11.776  0.00  0.00    +0.000 A 
ATOM     11  C   UNL     1       7.911   5.333  12.977  0.00  0.00    +0.000 A 
ATOM     12  N   UNL     1       7.226   4.901  14.116  0.00  0.00    +0.000 N 
ATOM     13  N   UNL     1       7.388   5.349  15.391  0.00  0.00    +0.000 NA
ENDBRANCH   2   5
BRANCH   3  14
ATOM     14  C   UNL     1       4.904   5.676  19.347  0.00  0.00    +0.000 C 
BRANCH  14  15
ATOM     15  C   UNL     1       3.711   4.850  19.753  0.00  0.00    +0.000 A 
ATOM     16  C   UNL     1       3.784   3.448  19.775  0.00  0.00    +0.000 A 
ATOM     17  C   UNL     1       2.694   2.690  20.210  0.00  0.00    +0.000 A 
ATOM     18  C   UNL     1       1.533   3.331  20.624  0.00  0.00    +0.000 A 
ATOM     19  F   UNL     1       0.492   2.602  21.047  0.00  0.00    +0.000 F 
ATOM     20  C   UNL     1       1.439   4.716  20.611  0.00  0.00    +0.000 A 
ATOM     21  C   UNL     1       2.526   5.477  20.178  0.00  0.00    +0.000 A 
ENDBRANCH  14  15
ENDBRANCH   3  14
TORSDOF 3
ENDMDL
MODEL 2
REMARK VINA RESULT:      -7.3      5.040      8.880
REMARK  Name = 
REMARK  3 active torsions:
REMARK  status: ('A' for Active; 'I' for Inactive)
REMARK    1  A    between atoms: C_2  and  C_12
REMARK    2  A    between atoms: N_3  and  C_4
REMARK    3  A    between atoms: C_4  and  C_5
REMARK                            x       y       z     vdW  Elec       q    Type
REMARK                         _______ _______ _______ _____ _____    ______ ____
ROOT
ATOM      1  O   UNL     1       1.890   8.357  18.317  0.00  0.00    +0.000 OA
ATOM      2  C   UNL     1       1.763   8.224  19.532  0.00  0.00    +0.000 C 
ATOM      3  N   UNL     1       2.412   7.252  20.260  0.00  0.00    +0.000 N 
ATOM      4  H   UNL     1       2.133   7.156  21.232  0.00  0.00    +0.000 HD
ENDROOT
BRANCH   2   5
ATOM      5  C   UNL     1       0.892   9.102  20.327  0.00  0.00    +0.000 A 
ATOM      6  C   UNL     1       0.518   8.895  21.678  0.00  0.00    +0.000 A 
ATOM      7  C   UNL     1      -0.283   9.961  21.998  0.00  0.00    +0.000 A 
ATOM      8  C   UNL     1      -0.972  10.381  23.171  0.00  0.00    +0.000 A 
ATOM      9  C   UNL     1      -1.693  11.517  23.144  0.00  0.00    +0.000 A 
ATOM     10  C   UNL     1      -1.791  12.324  21.938  0.00  0.00    +0.000 A 
ATOM     11  C   UNL     1      -1.139  11.924  20.834  0.00  0.00    +0.000 A 
ATOM     12  N   UNL     1      -0.379  10.753  20.852  0.00  0.00    +0.000 N 
ATOM     13  N   UNL     1       0.349  10.229  19.828  0.00  0.00    +0.000 NA
ENDBRANCH   2   5
BRANCH   3  14
ATOM     14  C   UNL     1       3.225   6.252  19.618  0.00  0.00    +0.000 C 
BRANCH  14  15
ATOM     15  C   UNL     1       2.463   4.979  19.353  0.00  0.00    +0.000 A 
ATOM     16  C   UNL     1       1.588   4.454  20.317  0.00  0.00    +0.000 A 
ATOM     17  C   UNL     1       0.840   3.307  20.043  0.00  0.00    +0.000 A 
ATOM     18  C   UNL     1       0.963   2.686  18.806  0.00  0.00    +0.000 A 
ATOM     19  F   UNL     1       0.240   1.590  18.543  0.00  0.00    +0.000 F 
ATOM     20  C   UNL     1       1.823   3.188  17.838  0.00  0.00    +0.000 A 
ATOM     21  C   UNL     1       2.571   4.334  18.108  0.00  0.00    +0.000 A 
ENDBRANCH  14  15
ENDBRANCH   3  14
TORSDOF 3
ENDMDL
MODEL 3
REMARK VINA RESULT:      -7.2      4.992      8.687
REMARK  Name = 
REMARK  3 active torsions:
REMARK  status: ('A' for Active; 'I' for Inactive)
REMARK    1  A    between atoms: C_2  and  C_12
REMARK    2  A    between atoms: N_3  and  C_4
REMARK    3  A    between atoms: C_4  and  C_5
REMARK                            x       y       z     vdW  Elec       q    Type
REMARK                         _______ _______ _______ _____ _____    ______ ____
ROOT
ATOM      1  O   UNL     1       2.009   9.502  17.330  0.00  0.00    +0.000 OA
ATOM      2  C   UNL     1       1.948   8.908  18.404  0.00  0.00    +0.000 C 
ATOM      3  N   UNL     1       2.611   7.728  18.656  0.00  0.00    +0.000 N 
ATOM      4  H   UNL     1       2.386   7.261  19.529  0.00  0.00    +0.000 HD
ENDROOT
BRANCH   2   5
ATOM      5  C   UNL     1       1.147   9.409  19.530  0.00  0.00    +0.000 A 
ATOM      6  C   UNL     1       1.001   8.777  20.789  0.00  0.00    +0.000 A 
ATOM      7  C   UNL     1       0.182   9.603  21.515  0.00  0.00    +0.000 A 
ATOM      8  C   UNL     1      -0.348   9.580  22.837  0.00  0.00    +0.000 A 
ATOM      9  C   UNL     1      -1.147  10.583  23.246  0.00  0.00    +0.000 A 
ATOM     10  C   UNL     1      -1.489  11.688  22.365  0.00  0.00    +0.000 A 
ATOM     11  C   UNL     1      -0.987  11.705  21.119  0.00  0.00    +0.000 A 
ATOM     12  N   UNL     1      -0.148  10.676  20.686  0.00  0.00    +0.000 N 
ATOM     13  N   UNL     1       0.451  10.561  19.468  0.00  0.00    +0.000 NA
ENDBRANCH   2   5
BRANCH   3  14
ATOM     14  C   UNL     1       3.360   7.055  17.626  0.00  0.00    +0.000 C 
BRANCH  14  15
ATOM     15  C   UNL     1       3.150   5.563  17.648  0.00  0.00    +0.000 A 
ATOM     16  C   UNL     1       4.199   4.686  17.329  0.00  0.00    +0.000 A 
ATOM     17  C   UNL     1       4.015   3.304  17.409  0.00  0.00    +0.000 A 
ATOM     18  C   UNL     1       2.785   2.797  17.810  0.00  0.00    +0.000 A 
ATOM     19  F   UNL     1       2.613   1.472  17.892  0.00  0.00    +0.000 F 
ATOM     20  C   UNL     1       1.733   3.645  18.131  0.00  0.00    +0.000 A 
ATOM     21  C   UNL     1       1.914   5.027  18.053  0.00  0.00    +0.000 A 
ENDBRANCH  14  15
ENDBRANCH   3  14
TORSDOF 3
ENDMDL
MODEL 4
REMARK VINA RESULT:      -7.2      0.662      1.257
REMARK  Name = 
REMARK  3 active torsions:
REMARK  status: ('A' for Active; 'I' for Inactive)
REMARK    1  A    between atoms: C_2  and  C_12
REMARK    2  A    between atoms: N_3  and  C_4
REMARK    3  A    between atoms: C_4  and  C_5
REMARK                            x       y       z     vdW  Elec       q    Type
REMARK                         _______ _______ _______ _____ _____    ______ ____
ROOT
ATOM      1  O   UNL     1       7.049   6.460  17.788  0.00  0.00    +0.000 OA
ATOM      2  C   UNL     1       6.221   5.695  17.299  0.00  0.00    +0.000 C 
ATOM      3  N   UNL     1       5.127   5.223  17.988  0.00  0.00    +0.000 N 
ATOM      4  H   UNL     1       4.583   4.498  17.528  0.00  0.00    +0.000 HD
ENDROOT
BRANCH   2   5
ATOM      5  C   UNL     1       6.329   5.206  15.917  0.00  0.00    +0.000 A 
ATOM      6  C   UNL     1       5.437   4.306  15.284  0.00  0.00    +0.000 A 
ATOM      7  C   UNL     1       5.924   4.149  14.012  0.00  0.00    +0.000 A 
ATOM      8  C   UNL     1       5.514   3.412  12.865  0.00  0.00    +0.000 A 
ATOM      9  C   UNL     1       6.244   3.483  11.737  0.00  0.00    +0.000 A 
ATOM     10  C   UNL     1       7.450   4.292  11.664  0.00  0.00    +0.000 A 
ATOM     11  C   UNL     1       7.833   4.986  12.748  0.00  0.00    +0.000 A 
ATOM     12  N   UNL     1       7.078   4.929  13.922  0.00  0.00    +0.000 N 
ATOM     13  N   UNL     1       7.323   5.585  15.090  0.00  0.00    +0.000 NA
ENDBRANCH   2   5
BRANCH   3  14
ATOM     14  C   UNL     1       4.929   5.529  19.381  0.00  0.00    +0.000 C 
BRANCH  14  15
ATOM     15  C   UNL     1       3.758   4.784  19.969  0.00  0.00    +0.000 A 
ATOM     16  C   UNL     1       2.522   5.424  20.156  0.00  0.00    +0.000 A 
ATOM     17  C   UNL     1       1.425   4.712  20.646  0.00  0.00    +0.000 A 
ATOM     18  C   UNL     1       1.560   3.363  20.947  0.00  0.00    +0.000 A 
ATOM     19  F   UNL     1       0.504   2.681  21.411  0.00  0.00    +0.000 F 
ATOM     20  C   UNL     1       2.773   2.710  20.770  0.00  0.00    +0.000 A 
ATOM     21  C   UNL     1       3.871   3.417  20.280  0.00  0.00    +0.000 A 
ENDBRANCH  14  15
ENDBRANCH   3  14
TORSDOF 3
ENDMDL
MODEL 5
REMARK VINA RESULT:      -7.1      5.151      8.871
REMARK  Name = 
REMARK  3 active torsions:
REMARK  status: ('A' for Active; 'I' for Inactive)
REMARK    1  A    between atoms: C_2  and  C_12
REMARK    2  A    between atoms: N_3  and  C_4
REMARK    3  A    between atoms: C_4  and  C_5
REMARK                            x       y       z     vdW  Elec       q    Type
REMARK                         _______ _______ _______ _____ _____    ______ ____
ROOT
ATOM      1  O   UNL     1       1.946   8.495  18.082  0.00  0.00    +0.000 OA
ATOM      2  C   UNL     1       1.738   8.386  19.287  0.00  0.00    +0.000 C 
ATOM      3  N   UNL     1       2.317   7.414  20.072  0.00  0.00    +0.000 N 
ATOM      4  H   UNL     1       1.974   7.340  21.025  0.00  0.00    +0.000 HD
ENDROOT
BRANCH   2   5
ATOM      5  C   UNL     1       0.836   9.295  20.010  0.00  0.00    +0.000 A 
ATOM      6  C   UNL     1       0.008  10.282  19.422  0.00  0.00    +0.000 A 
ATOM      7  C   UNL     1      -0.654  10.869  20.470  0.00  0.00    +0.000 A 
ATOM      8  C   UNL     1      -1.628  11.901  20.588  0.00  0.00    +0.000 A 
ATOM      9  C   UNL     1      -2.083  12.244  21.808  0.00  0.00    +0.000 A 
ATOM     10  C   UNL     1      -1.595  11.589  23.011  0.00  0.00    +0.000 A 
ATOM     11  C   UNL     1      -0.676  10.617  22.894  0.00  0.00    +0.000 A 
ATOM     12  N   UNL     1      -0.204  10.244  21.634  0.00  0.00    +0.000 N 
ATOM     13  N   UNL     1       0.706   9.271  21.351  0.00  0.00    +0.000 NA
ENDBRANCH   2   5
BRANCH   3  14
ATOM     14  C   UNL     1       3.148   6.387  19.500  0.00  0.00    +0.000 C 
BRANCH  14  15
ATOM     15  C   UNL     1       2.399   5.097  19.287  0.00  0.00    +0.000 A 
ATOM     16  C   UNL     1       1.596   4.557  20.305  0.00  0.00    +0.000 A 
ATOM     17  C   UNL     1       0.857   3.394  20.081  0.00  0.00    +0.000 A 
ATOM     18  C   UNL     1       0.918   2.770  18.841  0.00  0.00    +0.000 A 
ATOM     19  F   UNL     1       0.203   1.658  18.626  0.00  0.00    +0.000 F 
ATOM     20  C   UNL     1       1.704   3.285  17.820  0.00  0.00    +0.000 A 
ATOM     21  C   UNL     1       2.443   4.449  18.040  0.00  0.00    +0.000 A 
ENDBRANCH  14  15
ENDBRANCH   3  14
TORSDOF 3
ENDMDL
MODEL 6
REMARK VINA RESULT:      -7.1      1.003      1.208
REMARK  Name = 
REMARK  3 active torsions:
REMARK  status: ('A' for Active; 'I' for Inactive)
REMARK    1  A    between atoms: C_2  and  C_12
REMARK    2  A    between atoms: N_3  and  C_4
REMARK    3  A    between atoms: C_4  and  C_5
REMARK                            x       y       z     vdW  Elec       q    Type
REMARK                         _______ _______ _______ _____ _____    ______ ____
ROOT
ATOM      1  O   UNL     1       6.082   4.665  18.269  0.00  0.00    +0.000 OA
ATOM      2  C   UNL     1       5.531   5.181  17.300  0.00  0.00    +0.000 C 
ATOM      3  N   UNL     1       4.471   6.054  17.405  0.00  0.00    +0.000 N 
ATOM      4  H   UNL     1       4.015   6.316  16.537  0.00  0.00    +0.000 HD
ENDROOT
BRANCH   2   5
ATOM      5  C   UNL     1       5.958   4.906  15.920  0.00  0.00    +0.000 A 
ATOM      6  C   UNL     1       5.396   3.934  15.057  0.00  0.00    +0.000 A 
ATOM      7  C   UNL     1       6.099   4.044  13.884  0.00  0.00    +0.000 A 
ATOM      8  C   UNL     1       6.045   3.393  12.619  0.00  0.00    +0.000 A 
ATOM      9  C   UNL     1       6.908   3.755  11.652  0.00  0.00    +0.000 A 
ATOM     10  C   UNL     1       7.903   4.792  11.872  0.00  0.00    +0.000 A 
ATOM     11  C   UNL     1       7.949   5.404  13.067  0.00  0.00    +0.000 A 
ATOM     12  N   UNL     1       7.052   5.045  14.075  0.00  0.00    +0.000 N 
ATOM     13  N   UNL     1       6.961   5.580  15.324  0.00  0.00    +0.000 NA
ENDBRANCH   2   5
BRANCH   3  14
ATOM     14  C   UNL     1       3.870   6.352  18.680  0.00  0.00    +0.000 C 
BRANCH  14  15
ATOM     15  C   UNL     1       2.874   5.303  19.102  0.00  0.00    +0.000 A 
ATOM     16  C   UNL     1       2.569   5.108  20.459  0.00  0.00    +0.000 A 
ATOM     17  C   UNL     1       1.601   4.176  20.839  0.00  0.00    +0.000 A 
ATOM     18  C   UNL     1       0.937   3.440  19.867  0.00  0.00    +0.000 A 
ATOM     19  F   UNL     1       0.004   2.552  20.234  0.00  0.00    +0.000 F 
ATOM     20  C   UNL     1       1.222   3.616  18.519  0.00  0.00    +0.000 A 
ATOM     21  C   UNL     1       2.188   4.547  18.135  0.00  0.00    +0.000 A 
ENDBRANCH  14  15
ENDBRANCH   3  14
TORSDOF 3
ENDMDL
MODEL 7
REMARK VINA RESULT:      -7.1      3.041      7.505
REMARK  Name = 
REMARK  3 active torsions:
REMARK  status: ('A' for Active; 'I' for Inactive)
REMARK    1  A    between atoms: C_2  and  C_12
REMARK    2  A    between atoms: N_3  and  C_4
REMARK    3  A    between atoms: C_4  and  C_5
REMARK                            x       y       z     vdW  Elec       q    Type
REMARK                         _______ _______ _______ _____ _____    ______ ____
ROOT
ATOM      1  O   UNL     1       4.535   6.834  16.791  0.00  0.00    +0.000 OA
ATOM      2  C   UNL     1       4.873   5.773  17.311  0.00  0.00    +0.000 C 
ATOM      3  N   UNL     1       6.069   5.145  17.043  0.00  0.00    +0.000 N 
ATOM      4  H   UNL     1       6.185   4.213  17.429  0.00  0.00    +0.000 HD
ENDROOT
BRANCH   2   5
ATOM      5  C   UNL     1       4.016   5.067  18.275  0.00  0.00    +0.000 A 
ATOM      6  C   UNL     1       2.628   5.275  18.458  0.00  0.00    +0.000 A 
ATOM      7  C   UNL     1       2.257   4.396  19.444  0.00  0.00    +0.000 A 
ATOM      8  C   UNL     1       1.031   4.074  20.091  0.00  0.00    +0.000 A 
ATOM      9  C   UNL     1       1.017   3.130  21.049  0.00  0.00    +0.000 A 
ATOM     10  C   UNL     1       2.230   2.434  21.446  0.00  0.00    +0.000 A 
ATOM     11  C   UNL     1       3.385   2.741  20.833  0.00  0.00    +0.000 A 
ATOM     12  N   UNL     1       3.411   3.712  19.829  0.00  0.00    +0.000 N 
ATOM     13  N   UNL     1       4.491   4.118  19.106  0.00  0.00    +0.000 NA
ENDBRANCH   2   5
BRANCH   3  14
ATOM     14  C   UNL     1       6.977   5.655  16.049  0.00  0.00    +0.000 C 
BRANCH  14  15
ATOM     15  C   UNL     1       6.802   4.980  14.713  0.00  0.00    +0.000 A 
ATOM     16  C   UNL     1       7.651   5.286  13.638  0.00  0.00    +0.000 A 
ATOM     17  C   UNL     1       7.522   4.614  12.421  0.00  0.00    +0.000 A 
ATOM     18  C   UNL     1       6.546   3.636  12.277  0.00  0.00    +0.000 A 
ATOM     19  F   UNL     1       6.429   2.988  11.111  0.00  0.00    +0.000 F 
ATOM     20  C   UNL     1       5.695   3.316  13.326  0.00  0.00    +0.000 A 
ATOM     21  C   UNL     1       5.823   3.985  14.545  0.00  0.00    +0.000 A 
ENDBRANCH  14  15
ENDBRANCH   3  14
TORSDOF 3
ENDMDL
MODEL 8
REMARK VINA RESULT:      -7.0      2.842      3.432
REMARK  Name = 
REMARK  3 active torsions:
REMARK  status: ('A' for Active; 'I' for Inactive)
REMARK    1  A    between atoms: C_2  and  C_12
REMARK    2  A    between atoms: N_3  and  C_4
REMARK    3  A    between atoms: C_4  and  C_5
REMARK                            x       y       z     vdW  Elec       q    Type
REMARK                         _______ _______ _______ _____ _____    ______ ____
ROOT
ATOM      1  O   UNL     1       6.035   5.863  18.534  0.00  0.00    +0.000 OA
ATOM      2  C   UNL     1       5.222   5.626  17.645  0.00  0.00    +0.000 C 
ATOM      3  N   UNL     1       3.859   5.717  17.820  0.00  0.00    +0.000 N 
ATOM      4  H   UNL     1       3.282   5.374  17.057  0.00  0.00    +0.000 HD
ENDROOT
BRANCH   2   5
ATOM      5  C   UNL     1       5.636   5.213  16.296  0.00  0.00    +0.000 A 
ATOM      6  C   UNL     1       4.991   4.242  15.491  0.00  0.00    +0.000 A 
ATOM      7  C   UNL     1       5.715   4.199  14.328  0.00  0.00    +0.000 A 
ATOM      8  C   UNL     1       5.613   3.468  13.110  0.00  0.00    +0.000 A 
ATOM      9  C   UNL     1       6.520   3.674  12.138  0.00  0.00    +0.000 A 
ATOM     10  C   UNL     1       7.611   4.620  12.305  0.00  0.00    +0.000 A 
ATOM     11  C   UNL     1       7.703   5.307  13.456  0.00  0.00    +0.000 A 
ATOM     12  N   UNL     1       6.762   5.111  14.468  0.00  0.00    +0.000 N 
ATOM     13  N   UNL     1       6.710   5.740  15.675  0.00  0.00    +0.000 NA
ENDBRANCH   2   5
BRANCH   3  14
ATOM     14  C   UNL     1       3.287   6.014  19.108  0.00  0.00    +0.000 C 
BRANCH  14  15
ATOM     15  C   UNL     1       2.519   7.310  19.107  0.00  0.00    +0.000 A 
ATOM     16  C   UNL     1       2.406   8.077  17.936  0.00  0.00    +0.000 A 
ATOM     17  C   UNL     1       1.643   9.246  17.926  0.00  0.00    +0.000 A 
ATOM     18  C   UNL     1       0.990   9.650  19.084  0.00  0.00    +0.000 A 
ATOM     19  F   UNL     1       0.253  10.768  19.071  0.00  0.00    +0.000 F 
ATOM     20  C   UNL     1       1.087   8.907  20.254  0.00  0.00    +0.000 A 
ATOM     21  C   UNL     1       1.848   7.738  20.266  0.00  0.00    +0.000 A 
ENDBRANCH  14  15
ENDBRANCH   3  14
TORSDOF 3
ENDMDL
MODEL 9
REMARK VINA RESULT:      -7.0      4.982      8.720
REMARK  Name = 
REMARK  3 active torsions:
REMARK  status: ('A' for Active; 'I' for Inactive)
REMARK    1  A    between atoms: C_2  and  C_12
REMARK    2  A    between atoms: N_3  and  C_4
REMARK    3  A    between atoms: C_4  and  C_5
REMARK                            x       y       z     vdW  Elec       q    Type
REMARK                         _______ _______ _______ _____ _____    ______ ____
ROOT
ATOM      1  O   UNL     1       2.121   9.407  17.336  0.00  0.00    +0.000 OA
ATOM      2  C   UNL     1       1.927   8.856  18.416  0.00  0.00    +0.000 C 
ATOM      3  N   UNL     1       2.443   7.621  18.740  0.00  0.00    +0.000 N 
ATOM      4  H   UNL     1       2.113   7.208  19.607  0.00  0.00    +0.000 HD
ENDROOT
BRANCH   2   5
ATOM      5  C   UNL     1       1.112   9.472  19.474  0.00  0.00    +0.000 A 
ATOM      6  C   UNL     1       0.358  10.665  19.350  0.00  0.00    +0.000 A 
ATOM      7  C   UNL     1      -0.239  10.843  20.572  0.00  0.00    +0.000 A 
ATOM      8  C   UNL     1      -1.125  11.812  21.123  0.00  0.00    +0.000 A 
ATOM      9  C   UNL     1      -1.532  11.684  22.399  0.00  0.00    +0.000 A 
ATOM     10  C   UNL     1      -1.080  10.582  23.233  0.00  0.00    +0.000 A 
ATOM     11  C   UNL     1      -0.245   9.671  22.709  0.00  0.00    +0.000 A 
ATOM     12  N   UNL     1       0.177   9.786  21.383  0.00  0.00    +0.000 N 
ATOM     13  N   UNL     1       1.001   8.939  20.706  0.00  0.00    +0.000 NA
ENDBRANCH   2   5
BRANCH   3  14
ATOM     14  C   UNL     1       3.181   6.842  17.780  0.00  0.00    +0.000 C 
BRANCH  14  15
ATOM     15  C   UNL     1       3.108   5.364  18.065  0.00  0.00    +0.000 A 
ATOM     16  C   UNL     1       1.922   4.648  17.835  0.00  0.00    +0.000 A 
ATOM     17  C   UNL     1       1.878   3.268  18.044  0.00  0.00    +0.000 A 
ATOM     18  C   UNL     1       3.018   2.602  18.480  0.00  0.00    +0.000 A 
ATOM     19  F   UNL     1       2.975   1.278  18.673  0.00  0.00    +0.000 F 
ATOM     20  C   UNL     1       4.201   3.290  18.713  0.00  0.00    +0.000 A 
ATOM     21  C   UNL     1       4.249   4.669  18.504  0.00  0.00    +0.000 A 
ENDBRANCH  14  15
ENDBRANCH   3  14
TORSDOF 3
ENDMDL
