MODEL 1
REMARK VINA RESULT:      -8.7      0.000      0.000
REMARK  Name = 
REMARK  6 active torsions:
REMARK  status: ('A' for Active; 'I' for Inactive)
REMARK    1  A    between atoms: C_1  and  C_2
REMARK    2  A    between atoms: C_2  and  C_3
REMARK    3  A    between atoms: N_22  and  C_23
REMARK    4  A    between atoms: C_23  and  C_24
REMARK    5  A    between atoms: C_24  and  C_25
REMARK    6  A    between atoms: C_25  and  N_26
REMARK                            x       y       z     vdW  Elec       q    Type
REMARK                         _______ _______ _______ _____ _____    ______ ____
ROOT
ATOM      1  C   UNL     1       2.519   5.942  19.492  0.00  0.00    +0.000 A 
ATOM      2  C   UNL     1       2.073   7.204  19.419  0.00  0.00    +0.000 A 
ATOM      3  C   UNL     1       1.322   7.973  20.448  0.00  0.00    +0.000 A 
ATOM      4  O   UNL     1       1.039   7.565  21.560  0.00  0.00    +0.000 OA
ATOM      5  N   UNL     1       1.074   9.204  19.834  0.00  0.00    +0.000 N 
ATOM      6  C   UNL     1       0.353  10.226  20.415  0.00  0.00    +0.000 A 
ATOM      7  N   UNL     1      -0.256  11.208  19.786  0.00  0.00    +0.000 NA
ATOM      8  C   UNL     1      -0.945  11.985  20.714  0.00  0.00    +0.000 A 
ATOM      9  C   UNL     1      -1.831  13.044  20.436  0.00  0.00    +0.000 A 
ATOM     10  C   UNL     1      -2.436  13.739  21.493  0.00  0.00    +0.000 A 
ATOM     11  C   UNL     1      -2.162  13.404  22.817  0.00  0.00    +0.000 A 
ATOM     12  C   UNL     1      -1.297  12.355  23.118  0.00  0.00    +0.000 A 
ATOM     13  C   UNL     1      -0.717  11.655  22.052  0.00  0.00    +0.000 A 
ATOM     14  S   UNL     1       0.319  10.309  22.124  0.00  0.00    +0.000 S 
ATOM     15  N   UNL     1       1.509   9.191  18.482  0.00  0.00    +0.000 N 
ATOM     16  C   UNL     1       2.261   8.053  18.278  0.00  0.00    +0.000 A 
ATOM     17  C   UNL     1       3.084   7.674  17.302  0.00  0.00    +0.000 A 
ATOM     18  C   UNL     1       3.716   6.321  17.374  0.00  0.00    +0.000 A 
ATOM     19  O   UNL     1       4.509   6.013  16.487  0.00  0.00    +0.000 OA
ATOM     20  N   UNL     1       3.343   5.486  18.446  0.00  0.00    +0.000 N 
ATOM     21  H   UNL     1       1.904  10.068  18.146  0.00  0.00    +0.000 HD
ENDROOT
BRANCH   1  23
ATOM     22  C   UNL     1       0.950   4.157  20.326  0.00  0.00    +0.000 C 
ATOM     23  C   UNL     1       2.136   5.064  20.670  0.00  0.00    +0.000 C 
ENDBRANCH   1  23
BRANCH  20  24
ATOM     24  C   UNL     1       3.996   4.172  18.510  0.00  0.00    +0.000 C 
BRANCH  24  25
ATOM     25  C   UNL     1       5.337   4.128  19.243  0.00  0.00    +0.000 C 
BRANCH  25  26
ATOM     26  C   UNL     1       6.024   5.488  19.351  0.00  0.00    +0.000 C 
BRANCH  26  27
ATOM     27  N   UNL     1       7.459   5.401  19.009  0.00  0.00    +0.000 NA
ATOM     28  C   UNL     1       8.100   6.714  18.770  0.00  0.00    +0.000 C 
ATOM     29  C   UNL     1       7.594   7.408  17.499  0.00  0.00    +0.000 C 
ATOM     30  O   UNL     1       7.803   6.583  16.344  0.00  0.00    +0.000 OA
ATOM     31  C   UNL     1       7.185   5.298  16.502  0.00  0.00    +0.000 C 
ATOM     32  C   UNL     1       7.659   4.590  17.785  0.00  0.00    +0.000 C 
ENDBRANCH  26  27
ENDBRANCH  25  26
ENDBRANCH  24  25
ENDBRANCH  20  24
TORSDOF 5
ENDMDL
MODEL 2
REMARK VINA RESULT:      -8.7      3.193      8.703
REMARK  Name = 
REMARK  6 active torsions:
REMARK  status: ('A' for Active; 'I' for Inactive)
REMARK    1  A    between atoms: C_1  and  C_2
REMARK    2  A    between atoms: C_2  and  C_3
REMARK    3  A    between atoms: N_22  and  C_23
REMARK    4  A    between atoms: C_23  and  C_24
REMARK    5  A    between atoms: C_24  and  C_25
REMARK    6  A    between atoms: C_25  and  N_26
REMARK                            x       y       z     vdW  Elec       q    Type
REMARK                         _______ _______ _______ _____ _____    ______ ____
ROOT
ATOM      1  C   UNL     1       0.099  10.366  19.920  0.00  0.00    +0.000 A 
ATOM      2  C   UNL     1       0.939   9.323  19.853  0.00  0.00    +0.000 A 
ATOM      3  C   UNL     1       1.716   8.845  18.678  0.00  0.00    +0.000 A 
ATOM      4  O   UNL     1       1.736   9.382  17.585  0.00  0.00    +0.000 OA
ATOM      5  N   UNL     1       2.380   7.710  19.152  0.00  0.00    +0.000 N 
ATOM      6  C   UNL     1       3.191   6.908  18.377  0.00  0.00    +0.000 A 
ATOM      7  N   UNL     1       3.504   5.652  18.615  0.00  0.00    +0.000 NA
ATOM      8  C   UNL     1       4.269   5.167  17.557  0.00  0.00    +0.000 A 
ATOM      9  C   UNL     1       4.688   3.837  17.361  0.00  0.00    +0.000 A 
ATOM     10  C   UNL     1       5.472   3.514  16.243  0.00  0.00    +0.000 A 
ATOM     11  C   UNL     1       5.854   4.494  15.331  0.00  0.00    +0.000 A 
ATOM     12  C   UNL     1       5.445   5.815  15.499  0.00  0.00    +0.000 A 
ATOM     13  C   UNL     1       4.644   6.119  16.607  0.00  0.00    +0.000 A 
ATOM     14  S   UNL     1       3.959   7.619  17.024  0.00  0.00    +0.000 S 
ATOM     15  N   UNL     1       1.970   7.403  20.477  0.00  0.00    +0.000 N 
ATOM     16  C   UNL     1       1.234   8.463  20.962  0.00  0.00    +0.000 A 
ATOM     17  C   UNL     1       0.828   8.800  22.185  0.00  0.00    +0.000 A 
ATOM     18  C   UNL     1      -0.016  10.022  22.355  0.00  0.00    +0.000 A 
ATOM     19  O   UNL     1      -0.338  10.339  23.499  0.00  0.00    +0.000 OA
ATOM     20  N   UNL     1      -0.400  10.715  21.189  0.00  0.00    +0.000 N 
ATOM     21  H   UNL     1       2.704   7.038  21.083  0.00  0.00    +0.000 HD
ENDROOT
BRANCH   1  23
ATOM     22  C   UNL     1      -1.503  10.501  17.981  0.00  0.00    +0.000 C 
ATOM     23  C   UNL     1      -0.279  11.124  18.660  0.00  0.00    +0.000 C 
ENDBRANCH   1  23
BRANCH  20  24
ATOM     24  C   UNL     1      -1.207  11.926  21.384  0.00  0.00    +0.000 C 
BRANCH  24  25
ATOM     25  C   UNL     1      -0.486  13.113  22.024  0.00  0.00    +0.000 C 
BRANCH  25  26
ATOM     26  C   UNL     1       0.354  13.926  21.041  0.00  0.00    +0.000 C 
BRANCH  26  27
ATOM     27  N   UNL     1       1.801  13.732  21.273  0.00  0.00    +0.000 NA
ATOM     28  C   UNL     1       2.489  14.929  21.807  0.00  0.00    +0.000 C 
ATOM     29  C   UNL     1       2.561  16.081  20.797  0.00  0.00    +0.000 C 
ATOM     30  O   UNL     1       3.228  15.672  19.596  0.00  0.00    +0.000 OA
ATOM     31  C   UNL     1       2.595  14.524  19.012  0.00  0.00    +0.000 C 
ATOM     32  C   UNL     1       2.488  13.360  20.015  0.00  0.00    +0.000 C 
ENDBRANCH  26  27
ENDBRANCH  25  26
ENDBRANCH  24  25
ENDBRANCH  20  24
TORSDOF 5
ENDMDL
MODEL 3
REMARK VINA RESULT:      -8.6      3.435     10.574
REMARK  Name = 
REMARK  6 active torsions:
REMARK  status: ('A' for Active; 'I' for Inactive)
REMARK    1  A    between atoms: C_1  and  C_2
REMARK    2  A    between atoms: C_2  and  C_3
REMARK    3  A    between atoms: N_22  and  C_23
REMARK    4  A    between atoms: C_23  and  C_24
REMARK    5  A    between atoms: C_24  and  C_25
REMARK    6  A    between atoms: C_25  and  N_26
REMARK                            x       y       z     vdW  Elec       q    Type
REMARK                         _______ _______ _______ _____ _____    ______ ____
ROOT
ATOM      1  C   UNL     1      -0.721  11.132  19.972  0.00  0.00    +0.000 A 
ATOM      2  C   UNL     1       0.099  10.086  20.147  0.00  0.00    +0.000 A 
ATOM      3  C   UNL     1       0.893   9.360  19.119  0.00  0.00    +0.000 A 
ATOM      4  O   UNL     1       0.947   9.655  17.939  0.00  0.00    +0.000 OA
ATOM      5  N   UNL     1       1.523   8.341  19.838  0.00  0.00    +0.000 N 
ATOM      6  C   UNL     1       2.335   7.382  19.270  0.00  0.00    +0.000 A 
ATOM      7  N   UNL     1       2.618   6.200  19.775  0.00  0.00    +0.000 NA
ATOM      8  C   UNL     1       3.396   5.491  18.863  0.00  0.00    +0.000 A 
ATOM      9  C   UNL     1       3.793   4.144  18.961  0.00  0.00    +0.000 A 
ATOM     10  C   UNL     1       4.595   3.581  17.957  0.00  0.00    +0.000 A 
ATOM     11  C   UNL     1       5.016   4.342  16.869  0.00  0.00    +0.000 A 
ATOM     12  C   UNL     1       4.630   5.674  16.745  0.00  0.00    +0.000 A 
ATOM     13  C   UNL     1       3.811   6.216  17.744  0.00  0.00    +0.000 A 
ATOM     14  S   UNL     1       3.147   7.781  17.818  0.00  0.00    +0.000 S 
ATOM     15  N   UNL     1       1.078   8.326  21.187  0.00  0.00    +0.000 N 
ATOM     16  C   UNL     1       0.352   9.475  21.420  0.00  0.00    +0.000 A 
ATOM     17  C   UNL     1      -0.074  10.067  22.534  0.00  0.00    +0.000 A 
ATOM     18  C   UNL     1      -0.897  11.310  22.421  0.00  0.00    +0.000 A 
ATOM     19  O   UNL     1      -1.238  11.866  23.464  0.00  0.00    +0.000 OA
ATOM     20  N   UNL     1      -1.241  11.747  21.126  0.00  0.00    +0.000 N 
ATOM     21  H   UNL     1       1.790   8.086  21.875  0.00  0.00    +0.000 HD
ENDROOT
BRANCH   1  23
ATOM     22  C   UNL     1      -2.290  10.895  18.016  0.00  0.00    +0.000 C 
ATOM     23  C   UNL     1      -1.056  11.614  18.572  0.00  0.00    +0.000 C 
ENDBRANCH   1  23
BRANCH  20  24
ATOM     24  C   UNL     1      -2.028  12.984  21.041  0.00  0.00    +0.000 C 
BRANCH  24  25
ATOM     25  C   UNL     1      -3.546  12.809  21.011  0.00  0.00    +0.000 C 
BRANCH  25  26
ATOM     26  C   UNL     1      -4.246  13.283  22.283  0.00  0.00    +0.000 C 
BRANCH  26  27
ATOM     27  N   UNL     1      -5.431  12.456  22.592  0.00  0.00    +0.000 NA
ATOM     28  C   UNL     1      -6.475  12.489  21.543  0.00  0.00    +0.000 C 
ATOM     29  C   UNL     1      -7.162  13.855  21.422  0.00  0.00    +0.000 C 
ATOM     30  O   UNL     1      -7.757  14.245  22.667  0.00  0.00    +0.000 OA
ATOM     31  C   UNL     1      -6.789  14.256  23.726  0.00  0.00    +0.000 C 
ATOM     32  C   UNL     1      -6.067  12.902  23.854  0.00  0.00    +0.000 C 
ENDBRANCH  26  27
ENDBRANCH  25  26
ENDBRANCH  24  25
ENDBRANCH  20  24
TORSDOF 5
ENDMDL
MODEL 4
REMARK VINA RESULT:      -8.6      3.354     10.484
REMARK  Name = 
REMARK  6 active torsions:
REMARK  status: ('A' for Active; 'I' for Inactive)
REMARK    1  A    between atoms: C_1  and  C_2
REMARK    2  A    between atoms: C_2  and  C_3
REMARK    3  A    between atoms: N_22  and  C_23
REMARK    4  A    between atoms: C_23  and  C_24
REMARK    5  A    between atoms: C_24  and  C_25
REMARK    6  A    between atoms: C_25  and  N_26
REMARK                            x       y       z     vdW  Elec       q    Type
REMARK                         _______ _______ _______ _____ _____    ______ ____
ROOT
ATOM      1  C   UNL     1      -0.612  11.045  19.982  0.00  0.00    +0.000 A 
ATOM      2  C   UNL     1       0.207   9.993  20.121  0.00  0.00    +0.000 A 
ATOM      3  C   UNL     1       1.006   9.307  19.070  0.00  0.00    +0.000 A 
ATOM      4  O   UNL     1       1.069   9.649  17.902  0.00  0.00    +0.000 OA
ATOM      5  N   UNL     1       1.632   8.260  19.752  0.00  0.00    +0.000 N 
ATOM      6  C   UNL     1       2.447   7.324  19.151  0.00  0.00    +0.000 A 
ATOM      7  N   UNL     1       2.727   6.123  19.610  0.00  0.00    +0.000 NA
ATOM      8  C   UNL     1       3.510   5.451  18.675  0.00  0.00    +0.000 A 
ATOM      9  C   UNL     1       3.906   4.100  18.722  0.00  0.00    +0.000 A 
ATOM     10  C   UNL     1       4.714   3.578  17.701  0.00  0.00    +0.000 A 
ATOM     11  C   UNL     1       5.143   4.381  16.647  0.00  0.00    +0.000 A 
ATOM     12  C   UNL     1       4.758   5.718  16.574  0.00  0.00    +0.000 A 
ATOM     13  C   UNL     1       3.932   6.220  17.588  0.00  0.00    +0.000 A 
ATOM     14  S   UNL     1       3.269   7.781  17.721  0.00  0.00    +0.000 S 
ATOM     15  N   UNL     1       1.179   8.192  21.096  0.00  0.00    +0.000 N 
ATOM     16  C   UNL     1       0.452   9.331  21.370  0.00  0.00    +0.000 A 
ATOM     17  C   UNL     1       0.019   9.879  22.504  0.00  0.00    +0.000 A 
ATOM     18  C   UNL     1      -0.803  11.125  22.436  0.00  0.00    +0.000 A 
ATOM     19  O   UNL     1      -1.151  11.639  23.497  0.00  0.00    +0.000 OA
ATOM     20  N   UNL     1      -1.139  11.614  21.157  0.00  0.00    +0.000 N 
ATOM     21  H   UNL     1       1.887   7.924  21.778  0.00  0.00    +0.000 HD
ENDROOT
BRANCH   1  23
ATOM     22  C   UNL     1      -2.157  10.873  18.001  0.00  0.00    +0.000 C 
ATOM     23  C   UNL     1      -0.938  11.582  18.600  0.00  0.00    +0.000 C 
ENDBRANCH   1  23
BRANCH  20  24
ATOM     24  C   UNL     1      -1.925  12.854  21.116  0.00  0.00    +0.000 C 
BRANCH  24  25
ATOM     25  C   UNL     1      -3.438  12.681  20.984  0.00  0.00    +0.000 C 
BRANCH  25  26
ATOM     26  C   UNL     1      -4.189  12.798  22.309  0.00  0.00    +0.000 C 
BRANCH  26  27
ATOM     27  N   UNL     1      -5.302  13.765  22.220  0.00  0.00    +0.000 NA
ATOM     28  C   UNL     1      -6.073  13.910  23.476  0.00  0.00    +0.000 C 
ATOM     29  C   UNL     1      -6.876  12.653  23.837  0.00  0.00    +0.000 C 
ATOM     30  O   UNL     1      -7.784  12.303  22.784  0.00  0.00    +0.000 OA
ATOM     31  C   UNL     1      -7.095  12.125  21.538  0.00  0.00    +0.000 C 
ATOM     32  C   UNL     1      -6.262  13.365  21.165  0.00  0.00    +0.000 C 
ENDBRANCH  26  27
ENDBRANCH  25  26
ENDBRANCH  24  25
ENDBRANCH  20  24
TORSDOF 5
ENDMDL
MODEL 5
REMARK VINA RESULT:      -8.5      3.417     10.132
REMARK  Name = 
REMARK  6 active torsions:
REMARK  status: ('A' for Active; 'I' for Inactive)
REMARK    1  A    between atoms: C_1  and  C_2
REMARK    2  A    between atoms: C_2  and  C_3
REMARK    3  A    between atoms: N_22  and  C_23
REMARK    4  A    between atoms: C_23  and  C_24
REMARK    5  A    between atoms: C_24  and  C_25
REMARK    6  A    between atoms: C_25  and  N_26
REMARK                            x       y       z     vdW  Elec       q    Type
REMARK                         _______ _______ _______ _____ _____    ______ ____
ROOT
ATOM      1  C   UNL     1      -0.628  10.962  19.949  0.00  0.00    +0.000 A 
ATOM      2  C   UNL     1       0.205   9.923  20.106  0.00  0.00    +0.000 A 
ATOM      3  C   UNL     1       0.995   9.214  19.064  0.00  0.00    +0.000 A 
ATOM      4  O   UNL     1       1.034   9.520  17.885  0.00  0.00    +0.000 OA
ATOM      5  N   UNL     1       1.642   8.194  19.767  0.00  0.00    +0.000 N 
ATOM      6  C   UNL     1       2.457   7.248  19.182  0.00  0.00    +0.000 A 
ATOM      7  N   UNL     1       2.757   6.065  19.672  0.00  0.00    +0.000 NA
ATOM      8  C   UNL     1       3.533   5.372  18.746  0.00  0.00    +0.000 A 
ATOM      9  C   UNL     1       3.943   4.028  18.828  0.00  0.00    +0.000 A 
ATOM     10  C   UNL     1       4.741   3.482  17.810  0.00  0.00    +0.000 A 
ATOM     11  C   UNL     1       5.144   4.258  16.726  0.00  0.00    +0.000 A 
ATOM     12  C   UNL     1       4.743   5.587  16.618  0.00  0.00    +0.000 A 
ATOM     13  C   UNL     1       3.929   6.112  17.629  0.00  0.00    +0.000 A 
ATOM     14  S   UNL     1       3.251   7.669  17.725  0.00  0.00    +0.000 S 
ATOM     15  N   UNL     1       1.211   8.162  21.120  0.00  0.00    +0.000 N 
ATOM     16  C   UNL     1       0.476   9.302  21.370  0.00  0.00    +0.000 A 
ATOM     17  C   UNL     1       0.056   9.880  22.494  0.00  0.00    +0.000 A 
ATOM     18  C   UNL     1      -0.781  11.116  22.401  0.00  0.00    +0.000 A 
ATOM     19  O   UNL     1      -1.116  11.658  23.452  0.00  0.00    +0.000 OA
ATOM     20  N   UNL     1      -1.142  11.562  21.114  0.00  0.00    +0.000 N 
ATOM     21  H   UNL     1       1.932   7.923  21.798  0.00  0.00    +0.000 HD
ENDROOT
BRANCH   1  23
ATOM     22  C   UNL     1      -2.136  10.644  17.957  0.00  0.00    +0.000 C 
ATOM     23  C   UNL     1      -0.981  11.453  18.556  0.00  0.00    +0.000 C 
ENDBRANCH   1  23
BRANCH  20  24
ATOM     24  C   UNL     1      -1.941  12.791  21.048  0.00  0.00    +0.000 C 
BRANCH  24  25
ATOM     25  C   UNL     1      -3.451  12.617  21.221  0.00  0.00    +0.000 C 
BRANCH  25  26
ATOM     26  C   UNL     1      -4.234  12.702  19.912  0.00  0.00    +0.000 C 
BRANCH  26  27
ATOM     27  N   UNL     1      -5.679  12.892  20.155  0.00  0.00    +0.000 NA
ATOM     28  C   UNL     1      -6.443  11.627  20.248  0.00  0.00    +0.000 C 
ATOM     29  C   UNL     1      -6.521  10.873  18.914  0.00  0.00    +0.000 C 
ATOM     30  O   UNL     1      -7.115  11.689  17.895  0.00  0.00    +0.000 OA
ATOM     31  C   UNL     1      -6.406  12.927  17.738  0.00  0.00    +0.000 C 
ATOM     32  C   UNL     1      -6.292  13.692  19.069  0.00  0.00    +0.000 C 
ENDBRANCH  26  27
ENDBRANCH  25  26
ENDBRANCH  24  25
ENDBRANCH  20  24
TORSDOF 5
ENDMDL
MODEL 6
REMARK VINA RESULT:      -8.5      3.174     10.315
REMARK  Name = 
REMARK  6 active torsions:
REMARK  status: ('A' for Active; 'I' for Inactive)
REMARK    1  A    between atoms: C_1  and  C_2
REMARK    2  A    between atoms: C_2  and  C_3
REMARK    3  A    between atoms: N_22  and  C_23
REMARK    4  A    between atoms: C_23  and  C_24
REMARK    5  A    between atoms: C_24  and  C_25
REMARK    6  A    between atoms: C_25  and  N_26
REMARK                            x       y       z     vdW  Elec       q    Type
REMARK                         _______ _______ _______ _____ _____    ______ ____
ROOT
ATOM      1  C   UNL     1       0.093  10.544  19.845  0.00  0.00    +0.000 A 
ATOM      2  C   UNL     1       0.890   9.466  19.835  0.00  0.00    +0.000 A 
ATOM      3  C   UNL     1       1.678   8.917  18.698  0.00  0.00    +0.000 A 
ATOM      4  O   UNL     1       1.749   9.417  17.589  0.00  0.00    +0.000 OA
ATOM      5  N   UNL     1       2.281   7.773  19.227  0.00  0.00    +0.000 N 
ATOM      6  C   UNL     1       3.078   6.914  18.501  0.00  0.00    +0.000 A 
ATOM      7  N   UNL     1       3.333   5.655  18.788  0.00  0.00    +0.000 NA
ATOM      8  C   UNL     1       4.105   5.104  17.768  0.00  0.00    +0.000 A 
ATOM      9  C   UNL     1       4.474   3.752  17.626  0.00  0.00    +0.000 A 
ATOM     10  C   UNL     1       5.273   3.361  16.542  0.00  0.00    +0.000 A 
ATOM     11  C   UNL     1       5.719   4.294  15.609  0.00  0.00    +0.000 A 
ATOM     12  C   UNL     1       5.361   5.635  15.723  0.00  0.00    +0.000 A 
ATOM     13  C   UNL     1       4.544   6.008  16.798  0.00  0.00    +0.000 A 
ATOM     14  S   UNL     1       3.911   7.548  17.147  0.00  0.00    +0.000 S 
ATOM     15  N   UNL     1       1.825   7.527  20.549  0.00  0.00    +0.000 N 
ATOM     16  C   UNL     1       1.120   8.632  20.979  0.00  0.00    +0.000 A 
ATOM     17  C   UNL     1       0.696   9.025  22.179  0.00  0.00    +0.000 A 
ATOM     18  C   UNL     1      -0.101  10.285  22.286  0.00  0.00    +0.000 A 
ATOM     19  O   UNL     1      -0.439  10.654  23.409  0.00  0.00    +0.000 OA
ATOM     20  N   UNL     1      -0.424  10.954  21.088  0.00  0.00    +0.000 N 
ATOM     21  H   UNL     1       2.526   7.154  21.186  0.00  0.00    +0.000 HD
ENDROOT
BRANCH   1  23
ATOM     22  C   UNL     1      -1.435  10.662  17.847  0.00  0.00    +0.000 C 
ATOM     23  C   UNL     1      -0.220  11.274  18.552  0.00  0.00    +0.000 C 
ENDBRANCH   1  23
BRANCH  20  24
ATOM     24  C   UNL     1      -1.185  12.203  21.221  0.00  0.00    +0.000 C 
BRANCH  24  25
ATOM     25  C   UNL     1      -2.674  12.117  20.884  0.00  0.00    +0.000 C 
BRANCH  25  26
ATOM     26  C   UNL     1      -3.521  13.194  21.559  0.00  0.00    +0.000 C 
BRANCH  26  27
ATOM     27  N   UNL     1      -4.421  12.618  22.580  0.00  0.00    +0.000 NA
ATOM     28  C   UNL     1      -5.851  12.935  22.366  0.00  0.00    +0.000 C 
ATOM     29  C   UNL     1      -6.175  14.420  22.573  0.00  0.00    +0.000 C 
ATOM     30  O   UNL     1      -5.806  14.849  23.891  0.00  0.00    +0.000 OA
ATOM     31  C   UNL     1      -4.420  14.590  24.155  0.00  0.00    +0.000 C 
ATOM     32  C   UNL     1      -4.063  13.109  23.931  0.00  0.00    +0.000 C 
ENDBRANCH  26  27
ENDBRANCH  25  26
ENDBRANCH  24  25
ENDBRANCH  20  24
TORSDOF 5
ENDMDL
MODEL 7
REMARK VINA RESULT:      -8.4      3.073     10.082
REMARK  Name = 
REMARK  6 active torsions:
REMARK  status: ('A' for Active; 'I' for Inactive)
REMARK    1  A    between atoms: C_1  and  C_2
REMARK    2  A    between atoms: C_2  and  C_3
REMARK    3  A    between atoms: N_22  and  C_23
REMARK    4  A    between atoms: C_23  and  C_24
REMARK    5  A    between atoms: C_24  and  C_25
REMARK    6  A    between atoms: C_25  and  N_26
REMARK                            x       y       z     vdW  Elec       q    Type
REMARK                         _______ _______ _______ _____ _____    ______ ____
ROOT
ATOM      1  C   UNL     1       0.080  10.457  19.947  0.00  0.00    +0.000 A 
ATOM      2  C   UNL     1       0.907   9.404  19.884  0.00  0.00    +0.000 A 
ATOM      3  C   UNL     1       1.681   8.914  18.712  0.00  0.00    +0.000 A 
ATOM      4  O   UNL     1       1.711   9.450  17.618  0.00  0.00    +0.000 OA
ATOM      5  N   UNL     1       2.329   7.772  19.189  0.00  0.00    +0.000 N 
ATOM      6  C   UNL     1       3.132   6.959  18.417  0.00  0.00    +0.000 A 
ATOM      7  N   UNL     1       3.429   5.699  18.657  0.00  0.00    +0.000 NA
ATOM      8  C   UNL     1       4.191   5.203  17.602  0.00  0.00    +0.000 A 
ATOM      9  C   UNL     1       4.593   3.868  17.408  0.00  0.00    +0.000 A 
ATOM     10  C   UNL     1       5.376   3.534  16.294  0.00  0.00    +0.000 A 
ATOM     11  C   UNL     1       5.773   4.508  15.382  0.00  0.00    +0.000 A 
ATOM     12  C   UNL     1       5.381   5.834  15.546  0.00  0.00    +0.000 A 
ATOM     13  C   UNL     1       4.580   6.149  16.652  0.00  0.00    +0.000 A 
ATOM     14  S   UNL     1       3.914   7.659  17.065  0.00  0.00    +0.000 S 
ATOM     15  N   UNL     1       1.912   7.471  20.513  0.00  0.00    +0.000 N 
ATOM     16  C   UNL     1       1.188   8.541  20.995  0.00  0.00    +0.000 A 
ATOM     17  C   UNL     1       0.782   8.884  22.216  0.00  0.00    +0.000 A 
ATOM     18  C   UNL     1      -0.047  10.117  22.382  0.00  0.00    +0.000 A 
ATOM     19  O   UNL     1      -0.368  10.440  23.525  0.00  0.00    +0.000 OA
ATOM     20  N   UNL     1      -0.418  10.813  21.214  0.00  0.00    +0.000 N 
ATOM     21  H   UNL     1       2.639   7.098  21.121  0.00  0.00    +0.000 HD
ENDROOT
BRANCH   1  23
ATOM     22  C   UNL     1      -1.539  10.636  18.027  0.00  0.00    +0.000 C 
ATOM     23  C   UNL     1      -0.285  11.218  18.686  0.00  0.00    +0.000 C 
ENDBRANCH   1  23
BRANCH  20  24
ATOM     24  C   UNL     1      -1.210  12.035  21.406  0.00  0.00    +0.000 C 
BRANCH  24  25
ATOM     25  C   UNL     1      -0.429  13.277  21.837  0.00  0.00    +0.000 C 
BRANCH  25  26
ATOM     26  C   UNL     1      -1.071  14.035  22.997  0.00  0.00    +0.000 C 
BRANCH  26  27
ATOM     27  N   UNL     1      -2.542  14.093  22.861  0.00  0.00    +0.000 NA
ATOM     28  C   UNL     1      -3.054  15.418  22.442  0.00  0.00    +0.000 C 
ATOM     29  C   UNL     1      -2.870  16.499  23.515  0.00  0.00    +0.000 C 
ATOM     30  O   UNL     1      -3.519  16.127  24.738  0.00  0.00    +0.000 OA
ATOM     31  C   UNL     1      -3.050  14.857  25.212  0.00  0.00    +0.000 C 
ATOM     32  C   UNL     1      -3.201  13.757  24.144  0.00  0.00    +0.000 C 
ENDBRANCH  26  27
ENDBRANCH  25  26
ENDBRANCH  24  25
ENDBRANCH  20  24
TORSDOF 5
ENDMDL
MODEL 8
REMARK VINA RESULT:      -8.3      3.244     10.236
REMARK  Name = 
REMARK  6 active torsions:
REMARK  status: ('A' for Active; 'I' for Inactive)
REMARK    1  A    between atoms: C_1  and  C_2
REMARK    2  A    between atoms: C_2  and  C_3
REMARK    3  A    between atoms: N_22  and  C_23
REMARK    4  A    between atoms: C_23  and  C_24
REMARK    5  A    between atoms: C_24  and  C_25
REMARK    6  A    between atoms: C_25  and  N_26
REMARK                            x       y       z     vdW  Elec       q    Type
REMARK                         _______ _______ _______ _____ _____    ______ ____
ROOT
ATOM      1  C   UNL     1      -0.042  10.667  19.977  0.00  0.00    +0.000 A 
ATOM      2  C   UNL     1       0.748   9.583  19.978  0.00  0.00    +0.000 A 
ATOM      3  C   UNL     1       1.531   9.017  18.846  0.00  0.00    +0.000 A 
ATOM      4  O   UNL     1       1.604   9.505  17.732  0.00  0.00    +0.000 OA
ATOM      5  N   UNL     1       2.126   7.874  19.386  0.00  0.00    +0.000 N 
ATOM      6  C   UNL     1       2.916   7.002  18.668  0.00  0.00    +0.000 A 
ATOM      7  N   UNL     1       3.162   5.744  18.968  0.00  0.00    +0.000 NA
ATOM      8  C   UNL     1       3.929   5.177  17.954  0.00  0.00    +0.000 A 
ATOM      9  C   UNL     1       4.287   3.821  17.825  0.00  0.00    +0.000 A 
ATOM     10  C   UNL     1       5.083   3.413  16.745  0.00  0.00    +0.000 A 
ATOM     11  C   UNL     1       5.535   4.333  15.803  0.00  0.00    +0.000 A 
ATOM     12  C   UNL     1       5.187   5.678  15.902  0.00  0.00    +0.000 A 
ATOM     13  C   UNL     1       4.374   6.068  16.974  0.00  0.00    +0.000 A 
ATOM     14  S   UNL     1       3.753   7.616  17.308  0.00  0.00    +0.000 S 
ATOM     15  N   UNL     1       1.668   7.645  20.711  0.00  0.00    +0.000 N 
ATOM     16  C   UNL     1       0.972   8.760  21.131  0.00  0.00    +0.000 A 
ATOM     17  C   UNL     1       0.552   9.168  22.326  0.00  0.00    +0.000 A 
ATOM     18  C   UNL     1      -0.236  10.435  22.421  0.00  0.00    +0.000 A 
ATOM     19  O   UNL     1      -0.571  10.817  23.540  0.00  0.00    +0.000 OA
ATOM     20  N   UNL     1      -0.555  11.094  21.216  0.00  0.00    +0.000 N 
ATOM     21  H   UNL     1       2.367   7.273  21.352  0.00  0.00    +0.000 HD
ENDROOT
BRANCH   1  23
ATOM     22  C   UNL     1      -1.614  10.825  18.016  0.00  0.00    +0.000 C 
ATOM     23  C   UNL     1      -0.350  11.386  18.677  0.00  0.00    +0.000 C 
ENDBRANCH   1  23
BRANCH  20  24
ATOM     24  C   UNL     1      -1.307  12.350  21.337  0.00  0.00    +0.000 C 
BRANCH  24  25
ATOM     25  C   UNL     1      -2.826  12.211  21.438  0.00  0.00    +0.000 C 
BRANCH  25  26
ATOM     26  C   UNL     1      -3.593  13.170  20.527  0.00  0.00    +0.000 C 
BRANCH  26  27
ATOM     27  N   UNL     1      -4.721  13.807  21.237  0.00  0.00    +0.000 NA
ATOM     28  C   UNL     1      -5.683  12.846  21.820  0.00  0.00    +0.000 C 
ATOM     29  C   UNL     1      -6.475  12.070  20.760  0.00  0.00    +0.000 C 
ATOM     30  O   UNL     1      -7.192  12.963  19.897  0.00  0.00    +0.000 OA
ATOM     31  C   UNL     1      -6.311  13.911  19.279  0.00  0.00    +0.000 C 
ATOM     32  C   UNL     1      -5.486  14.687  20.322  0.00  0.00    +0.000 C 
ENDBRANCH  26  27
ENDBRANCH  25  26
ENDBRANCH  24  25
ENDBRANCH  20  24
TORSDOF 5
ENDMDL
MODEL 9
REMARK VINA RESULT:      -8.3      3.121      9.010
REMARK  Name = 
REMARK  6 active torsions:
REMARK  status: ('A' for Active; 'I' for Inactive)
REMARK    1  A    between atoms: C_1  and  C_2
REMARK    2  A    between atoms: C_2  and  C_3
REMARK    3  A    between atoms: N_22  and  C_23
REMARK    4  A    between atoms: C_23  and  C_24
REMARK    5  A    between atoms: C_24  and  C_25
REMARK    6  A    between atoms: C_25  and  N_26
REMARK                            x       y       z     vdW  Elec       q    Type
REMARK                         _______ _______ _______ _____ _____    ______ ____
ROOT
ATOM      1  C   UNL     1       0.152  10.371  19.899  0.00  0.00    +0.000 A 
ATOM      2  C   UNL     1       0.981   9.319  19.833  0.00  0.00    +0.000 A 
ATOM      3  C   UNL     1       1.756   8.833  18.660  0.00  0.00    +0.000 A 
ATOM      4  O   UNL     1       1.786   9.372  17.567  0.00  0.00    +0.000 OA
ATOM      5  N   UNL     1       2.406   7.691  19.135  0.00  0.00    +0.000 N 
ATOM      6  C   UNL     1       3.211   6.881  18.361  0.00  0.00    +0.000 A 
ATOM      7  N   UNL     1       3.510   5.622  18.599  0.00  0.00    +0.000 NA
ATOM      8  C   UNL     1       4.273   5.129  17.543  0.00  0.00    +0.000 A 
ATOM      9  C   UNL     1       4.678   3.795  17.347  0.00  0.00    +0.000 A 
ATOM     10  C   UNL     1       5.462   3.465  16.231  0.00  0.00    +0.000 A 
ATOM     11  C   UNL     1       5.858   4.443  15.321  0.00  0.00    +0.000 A 
ATOM     12  C   UNL     1       5.463   5.768  15.489  0.00  0.00    +0.000 A 
ATOM     13  C   UNL     1       4.661   6.079  16.595  0.00  0.00    +0.000 A 
ATOM     14  S   UNL     1       3.992   7.586  17.012  0.00  0.00    +0.000 S 
ATOM     15  N   UNL     1       1.989   7.387  20.458  0.00  0.00    +0.000 N 
ATOM     16  C   UNL     1       1.263   8.455  20.942  0.00  0.00    +0.000 A 
ATOM     17  C   UNL     1       0.856   8.794  22.164  0.00  0.00    +0.000 A 
ATOM     18  C   UNL     1       0.025  10.025  22.333  0.00  0.00    +0.000 A 
ATOM     19  O   UNL     1      -0.297  10.345  23.476  0.00  0.00    +0.000 OA
ATOM     20  N   UNL     1      -0.347  10.723  21.166  0.00  0.00    +0.000 N 
ATOM     21  H   UNL     1       2.717   7.014  21.066  0.00  0.00    +0.000 HD
ENDROOT
BRANCH   1  23
ATOM     22  C   UNL     1      -1.464  10.547  17.975  0.00  0.00    +0.000 C 
ATOM     23  C   UNL     1      -0.214  11.134  18.638  0.00  0.00    +0.000 C 
ENDBRANCH   1  23
BRANCH  20  24
ATOM     24  C   UNL     1      -1.142  11.943  21.360  0.00  0.00    +0.000 C 
BRANCH  24  25
ATOM     25  C   UNL     1      -0.420  13.110  22.035  0.00  0.00    +0.000 C 
BRANCH  25  26
ATOM     26  C   UNL     1      -0.319  14.359  21.162  0.00  0.00    +0.000 C 
BRANCH  26  27
ATOM     27  N   UNL     1       0.334  14.067  19.869  0.00  0.00    +0.000 NA
ATOM     28  C   UNL     1       1.812  14.141  19.914  0.00  0.00    +0.000 C 
ATOM     29  C   UNL     1       2.336  15.567  20.129  0.00  0.00    +0.000 C 
ATOM     30  O   UNL     1       1.867  16.449  19.100  0.00  0.00    +0.000 OA
ATOM     31  C   UNL     1       0.434  16.441  19.019  0.00  0.00    +0.000 C 
ATOM     32  C   UNL     1      -0.118  15.017  18.826  0.00  0.00    +0.000 C 
ENDBRANCH  26  27
ENDBRANCH  25  26
ENDBRANCH  24  25
ENDBRANCH  20  24
TORSDOF 5
ENDMDL
