MODEL 1
REMARK VINA RESULT:      -7.0      0.000      0.000
REMARK  Name = 
REMARK  6 active torsions:
REMARK  status: ('A' for Active; 'I' for Inactive)
REMARK    1  A    between atoms: C_1  and  C_2
REMARK    2  A    between atoms: C_2  and  C_3
REMARK    3  A    between atoms: C_2  and  N_4
REMARK    4  A    between atoms: C_12  and  N_13
REMARK    5  A    between atoms: N_13  and  C_14
REMARK    6  A    between atoms: C_14  and  C_15
REMARK                            x       y       z     vdW  Elec       q    Type
REMARK                         _______ _______ _______ _____ _____    ______ ____
ROOT
ATOM      1  N   UNL     1      -1.569  12.375  22.033  0.00  0.00    +0.000 NA
ATOM      2  C   UNL     1      -1.518  12.381  20.542  0.00  0.00    +0.000 C 
ATOM      3  C   UNL     1      -0.163  11.962  19.919  0.00  0.00    +0.000 C 
ATOM      4  N   UNL     1       0.222  10.660  20.452  0.00  0.00    +0.000 N 
ATOM      5  C   UNL     1       0.926   9.773  19.673  0.00  0.00    +0.000 A 
ATOM      6  N   UNL     1       0.959   9.962  18.349  0.00  0.00    +0.000 NA
ATOM      7  C   UNL     1       1.579   9.032  17.608  0.00  0.00    +0.000 A 
ATOM      8  C   UNL     1       2.203   7.932  18.141  0.00  0.00    +0.000 A 
ATOM      9  C   UNL     1       2.140   7.810  19.508  0.00  0.00    +0.000 A 
ATOM     10  N   UNL     1       1.503   8.712  20.266  0.00  0.00    +0.000 NA
ATOM     11  C   UNL     1       0.242  10.546  21.906  0.00  0.00    +0.000 C 
ATOM     12  C   UNL     1      -1.111  11.033  22.480  0.00  0.00    +0.000 C 
ENDROOT
BRANCH   1  14
ATOM     13  C   UNL     1      -0.762  14.681  21.630  0.00  0.00    +0.000 C 
ATOM     14  C   UNL     1      -0.845  13.516  22.637  0.00  0.00    +0.000 C 
ATOM     15  C   UNL     1      -1.519  14.082  23.900  0.00  0.00    +0.000 C 
ENDBRANCH   1  14
BRANCH   9  16
ATOM     16  N   UNL     1       2.653   6.735  20.197  0.00  0.00    +0.000 N 
ATOM     17  H   UNL     1       2.904   7.000  21.143  0.00  0.00    +0.000 HD
BRANCH  16  18
ATOM     18  C   UNL     1       3.452   5.700  19.578  0.00  0.00    +0.000 C 
BRANCH  18  19
ATOM     19  C   UNL     1       2.570   4.514  19.286  0.00  0.00    +0.000 A 
ATOM     20  C   UNL     1       1.491   4.188  20.121  0.00  0.00    +0.000 A 
ATOM     21  C   UNL     1       0.746   3.032  19.884  0.00  0.00    +0.000 A 
ATOM     22  C   UNL     1       1.060   2.204  18.806  0.00  0.00    +0.000 A 
ATOM     23  C   UNL     1       2.113   2.533  17.956  0.00  0.00    +0.000 A 
ATOM     24  C   UNL     1       2.860   3.684  18.192  0.00  0.00    +0.000 A 
ENDBRANCH  18  19
ENDBRANCH  16  18
ENDBRANCH   9  16
TORSDOF 4
ENDMDL
MODEL 2
REMARK VINA RESULT:      -6.9      5.827      8.574
REMARK  Name = 
REMARK  6 active torsions:
REMARK  status: ('A' for Active; 'I' for Inactive)
REMARK    1  A    between atoms: C_1  and  C_2
REMARK    2  A    between atoms: C_2  and  C_3
REMARK    3  A    between atoms: C_2  and  N_4
REMARK    4  A    between atoms: C_12  and  N_13
REMARK    5  A    between atoms: N_13  and  C_14
REMARK    6  A    between atoms: C_14  and  C_15
REMARK                            x       y       z     vdW  Elec       q    Type
REMARK                         _______ _______ _______ _____ _____    ______ ____
ROOT
ATOM      1  N   UNL     1       1.496   4.581  19.903  0.00  0.00    +0.000 NA
ATOM      2  C   UNL     1       2.855   4.663  20.513  0.00  0.00    +0.000 C 
ATOM      3  C   UNL     1       3.983   3.943  19.732  0.00  0.00    +0.000 C 
ATOM      4  N   UNL     1       3.994   4.431  18.358  0.00  0.00    +0.000 N 
ATOM      5  C   UNL     1       5.177   4.520  17.664  0.00  0.00    +0.000 A 
ATOM      6  N   UNL     1       6.328   4.485  18.344  0.00  0.00    +0.000 NA
ATOM      7  C   UNL     1       7.462   4.663  17.650  0.00  0.00    +0.000 A 
ATOM      8  C   UNL     1       7.495   4.840  16.290  0.00  0.00    +0.000 A 
ATOM      9  C   UNL     1       6.276   4.851  15.655  0.00  0.00    +0.000 A 
ATOM     10  N   UNL     1       5.130   4.702  16.331  0.00  0.00    +0.000 NA
ATOM     11  C   UNL     1       2.722   4.365  17.646  0.00  0.00    +0.000 C 
ATOM     12  C   UNL     1       1.621   5.046  18.496  0.00  0.00    +0.000 C 
ENDROOT
BRANCH   1  14
ATOM     13  C   UNL     1       1.091   2.401  18.800  0.00  0.00    +0.000 C 
ATOM     14  C   UNL     1       0.872   3.249  20.069  0.00  0.00    +0.000 C 
ATOM     15  C   UNL     1       1.448   2.434  21.240  0.00  0.00    +0.000 C 
ENDBRANCH   1  14
BRANCH   9  16
ATOM     16  N   UNL     1       6.126   5.083  14.307  0.00  0.00    +0.000 N 
ATOM     17  H   UNL     1       5.169   4.913  14.017  0.00  0.00    +0.000 HD
BRANCH  16  18
ATOM     18  C   UNL     1       7.160   4.810  13.332  0.00  0.00    +0.000 C 
BRANCH  18  19
ATOM     19  C   UNL     1       6.692   3.701  12.426  0.00  0.00    +0.000 A 
ATOM     20  C   UNL     1       5.325   3.450  12.230  0.00  0.00    +0.000 A 
ATOM     21  C   UNL     1       4.916   2.360  11.461  0.00  0.00    +0.000 A 
ATOM     22  C   UNL     1       5.864   1.523  10.871  0.00  0.00    +0.000 A 
ATOM     23  C   UNL     1       7.223   1.779  11.037  0.00  0.00    +0.000 A 
ATOM     24  C   UNL     1       7.633   2.864  11.807  0.00  0.00    +0.000 A 
ENDBRANCH  18  19
ENDBRANCH  16  18
ENDBRANCH   9  16
TORSDOF 4
ENDMDL
MODEL 3
REMARK VINA RESULT:      -6.8      3.856      5.830
REMARK  Name = 
REMARK  6 active torsions:
REMARK  status: ('A' for Active; 'I' for Inactive)
REMARK    1  A    between atoms: C_1  and  C_2
REMARK    2  A    between atoms: C_2  and  C_3
REMARK    3  A    between atoms: C_2  and  N_4
REMARK    4  A    between atoms: C_12  and  N_13
REMARK    5  A    between atoms: N_13  and  C_14
REMARK    6  A    between atoms: C_14  and  C_15
REMARK                            x       y       z     vdW  Elec       q    Type
REMARK                         _______ _______ _______ _____ _____    ______ ____
ROOT
ATOM      1  N   UNL     1       1.005  10.066  19.513  0.00  0.00    +0.000 NA
ATOM      2  C   UNL     1       1.472   9.159  20.602  0.00  0.00    +0.000 C 
ATOM      3  C   UNL     1       1.525   7.653  20.240  0.00  0.00    +0.000 C 
ATOM      4  N   UNL     1       2.328   7.484  19.034  0.00  0.00    +0.000 N 
ATOM      5  C   UNL     1       3.084   6.349  18.860  0.00  0.00    +0.000 A 
ATOM      6  N   UNL     1       3.345   5.577  19.921  0.00  0.00    +0.000 NA
ATOM      7  C   UNL     1       4.158   4.527  19.736  0.00  0.00    +0.000 A 
ATOM      8  C   UNL     1       4.695   4.192  18.519  0.00  0.00    +0.000 A 
ATOM      9  C   UNL     1       4.374   5.021  17.471  0.00  0.00    +0.000 A 
ATOM     10  N   UNL     1       3.586   6.091  17.638  0.00  0.00    +0.000 NA
ATOM     11  C   UNL     1       1.939   8.297  17.888  0.00  0.00    +0.000 C 
ATOM     12  C   UNL     1       1.843   9.782  18.319  0.00  0.00    +0.000 C 
ENDROOT
BRANCH   1  14
ATOM     13  C   UNL     1      -1.186  11.005  20.183  0.00  0.00    +0.000 C 
ATOM     14  C   UNL     1      -0.455   9.985  19.286  0.00  0.00    +0.000 C 
ATOM     15  C   UNL     1      -0.878  10.299  17.840  0.00  0.00    +0.000 C 
ENDBRANCH   1  14
BRANCH   9  16
ATOM     16  N   UNL     1       4.881   4.868  16.201  0.00  0.00    +0.000 N 
ATOM     17  H   UNL     1       4.570   3.993  15.793  0.00  0.00    +0.000 HD
BRANCH  16  18
ATOM     18  C   UNL     1       6.187   5.345  15.802  0.00  0.00    +0.000 C 
BRANCH  18  19
ATOM     19  C   UNL     1       6.498   4.816  14.426  0.00  0.00    +0.000 A 
ATOM     20  C   UNL     1       7.560   5.335  13.670  0.00  0.00    +0.000 A 
ATOM     21  C   UNL     1       7.770   4.895  12.363  0.00  0.00    +0.000 A 
ATOM     22  C   UNL     1       6.935   3.926  11.806  0.00  0.00    +0.000 A 
ATOM     23  C   UNL     1       5.894   3.386  12.557  0.00  0.00    +0.000 A 
ATOM     24  C   UNL     1       5.680   3.826  13.860  0.00  0.00    +0.000 A 
ENDBRANCH  18  19
ENDBRANCH  16  18
ENDBRANCH   9  16
TORSDOF 4
ENDMDL
MODEL 4
REMARK VINA RESULT:      -6.8      1.086      1.467
REMARK  Name = 
REMARK  6 active torsions:
REMARK  status: ('A' for Active; 'I' for Inactive)
REMARK    1  A    between atoms: C_1  and  C_2
REMARK    2  A    between atoms: C_2  and  C_3
REMARK    3  A    between atoms: C_2  and  N_4
REMARK    4  A    between atoms: C_12  and  N_13
REMARK    5  A    between atoms: N_13  and  C_14
REMARK    6  A    between atoms: C_14  and  C_15
REMARK                            x       y       z     vdW  Elec       q    Type
REMARK                         _______ _______ _______ _____ _____    ______ ____
ROOT
ATOM      1  N   UNL     1      -1.274  12.695  20.500  0.00  0.00    +0.000 NA
ATOM      2  C   UNL     1      -0.784  12.449  19.113  0.00  0.00    +0.000 C 
ATOM      3  C   UNL     1       0.595  11.748  19.007  0.00  0.00    +0.000 C 
ATOM      4  N   UNL     1       0.558  10.511  19.778  0.00  0.00    +0.000 N 
ATOM      5  C   UNL     1       1.285   9.419  19.370  0.00  0.00    +0.000 A 
ATOM      6  N   UNL     1       1.744   9.381  18.113  0.00  0.00    +0.000 NA
ATOM      7  C   UNL     1       2.374   8.265  17.719  0.00  0.00    +0.000 A 
ATOM      8  C   UNL     1       2.598   7.192  18.544  0.00  0.00    +0.000 A 
ATOM      9  C   UNL     1       2.111   7.305  19.824  0.00  0.00    +0.000 A 
ATOM     10  N   UNL     1       1.455   8.400  20.232  0.00  0.00    +0.000 NA
ATOM     11  C   UNL     1       0.125  10.636  21.165  0.00  0.00    +0.000 C 
ATOM     12  C   UNL     1      -1.224  11.394  21.217  0.00  0.00    +0.000 C 
ENDROOT
BRANCH   1  14
ATOM     13  C   UNL     1      -1.021  15.157  20.580  0.00  0.00    +0.000 C 
ATOM     14  C   UNL     1      -0.565  13.808  21.171  0.00  0.00    +0.000 C 
ATOM     15  C   UNL     1      -0.827  13.888  22.686  0.00  0.00    +0.000 C 
ENDBRANCH   1  14
BRANCH   9  16
ATOM     16  N   UNL     1       2.190   6.297  20.757  0.00  0.00    +0.000 N 
ATOM     17  H   UNL     1       3.151   6.152  21.049  0.00  0.00    +0.000 HD
BRANCH  16  18
ATOM     18  C   UNL     1       1.330   5.133  20.747  0.00  0.00    +0.000 C 
BRANCH  18  19
ATOM     19  C   UNL     1       1.977   4.060  19.909  0.00  0.00    +0.000 A 
ATOM     20  C   UNL     1       1.425   3.666  18.681  0.00  0.00    +0.000 A 
ATOM     21  C   UNL     1       1.988   2.606  17.968  0.00  0.00    +0.000 A 
ATOM     22  C   UNL     1       3.110   1.943  18.466  0.00  0.00    +0.000 A 
ATOM     23  C   UNL     1       3.680   2.343  19.672  0.00  0.00    +0.000 A 
ATOM     24  C   UNL     1       3.119   3.399  20.386  0.00  0.00    +0.000 A 
ENDBRANCH  18  19
ENDBRANCH  16  18
ENDBRANCH   9  16
TORSDOF 4
ENDMDL
MODEL 5
REMARK VINA RESULT:      -6.8      5.856      8.325
REMARK  Name = 
REMARK  6 active torsions:
REMARK  status: ('A' for Active; 'I' for Inactive)
REMARK    1  A    between atoms: C_1  and  C_2
REMARK    2  A    between atoms: C_2  and  C_3
REMARK    3  A    between atoms: C_2  and  N_4
REMARK    4  A    between atoms: C_12  and  N_13
REMARK    5  A    between atoms: N_13  and  C_14
REMARK    6  A    between atoms: C_14  and  C_15
REMARK                            x       y       z     vdW  Elec       q    Type
REMARK                         _______ _______ _______ _____ _____    ______ ____
ROOT
ATOM      1  N   UNL     1       1.546   4.273  19.404  0.00  0.00    +0.000 NA
ATOM      2  C   UNL     1       2.586   5.093  20.091  0.00  0.00    +0.000 C 
ATOM      3  C   UNL     1       4.049   4.808  19.666  0.00  0.00    +0.000 C 
ATOM      4  N   UNL     1       4.154   4.933  18.217  0.00  0.00    +0.000 N 
ATOM      5  C   UNL     1       5.316   5.393  17.645  0.00  0.00    +0.000 A 
ATOM      6  N   UNL     1       6.205   6.033  18.412  0.00  0.00    +0.000 NA
ATOM      7  C   UNL     1       7.287   6.547  17.808  0.00  0.00    +0.000 A 
ATOM      8  C   UNL     1       7.536   6.416  16.466  0.00  0.00    +0.000 A 
ATOM      9  C   UNL     1       6.587   5.736  15.741  0.00  0.00    +0.000 A 
ATOM     10  N   UNL     1       5.486   5.237  16.319  0.00  0.00    +0.000 NA
ATOM     11  C   UNL     1       3.206   4.145  17.437  0.00  0.00    +0.000 C 
ATOM     12  C   UNL     1       1.768   4.423  17.942  0.00  0.00    +0.000 C 
ENDROOT
BRANCH   1  14
ATOM     13  C   UNL     1       1.117   2.849  21.384  0.00  0.00    +0.000 C 
ATOM     14  C   UNL     1       1.502   2.876  19.891  0.00  0.00    +0.000 C 
ATOM     15  C   UNL     1       0.471   1.996  19.162  0.00  0.00    +0.000 C 
ENDBRANCH   1  14
BRANCH   9  16
ATOM     16  N   UNL     1       6.649   5.573  14.376  0.00  0.00    +0.000 N 
ATOM     17  H   UNL     1       5.775   5.848  13.941  0.00  0.00    +0.000 HD
BRANCH  16  18
ATOM     18  C   UNL     1       7.388   4.508  13.734  0.00  0.00    +0.000 C 
BRANCH  18  19
ATOM     19  C   UNL     1       6.468   3.780  12.788  0.00  0.00    +0.000 A 
ATOM     20  C   UNL     1       5.098   4.077  12.734  0.00  0.00    +0.000 A 
ATOM     21  C   UNL     1       4.250   3.326  11.918  0.00  0.00    +0.000 A 
ATOM     22  C   UNL     1       4.763   2.288  11.141  0.00  0.00    +0.000 A 
ATOM     23  C   UNL     1       6.126   2.003  11.167  0.00  0.00    +0.000 A 
ATOM     24  C   UNL     1       6.974   2.748  11.983  0.00  0.00    +0.000 A 
ENDBRANCH  18  19
ENDBRANCH  16  18
ENDBRANCH   9  16
TORSDOF 4
ENDMDL
MODEL 6
REMARK VINA RESULT:      -6.8      0.743      1.224
REMARK  Name = 
REMARK  6 active torsions:
REMARK  status: ('A' for Active; 'I' for Inactive)
REMARK    1  A    between atoms: C_1  and  C_2
REMARK    2  A    between atoms: C_2  and  C_3
REMARK    3  A    between atoms: C_2  and  N_4
REMARK    4  A    between atoms: C_12  and  N_13
REMARK    5  A    between atoms: N_13  and  C_14
REMARK    6  A    between atoms: C_14  and  C_15
REMARK                            x       y       z     vdW  Elec       q    Type
REMARK                         _______ _______ _______ _____ _____    ______ ____
ROOT
ATOM      1  N   UNL     1      -1.413  13.368  21.452  0.00  0.00    +0.000 NA
ATOM      2  C   UNL     1      -1.021  13.351  20.013  0.00  0.00    +0.000 C 
ATOM      3  C   UNL     1       0.330  12.661  19.697  0.00  0.00    +0.000 C 
ATOM      4  N   UNL     1       0.316  11.313  20.253  0.00  0.00    +0.000 N 
ATOM      5  C   UNL     1       0.989  10.296  19.621  0.00  0.00    +0.000 A 
ATOM      6  N   UNL     1       1.363  10.462  18.347  0.00  0.00    +0.000 NA
ATOM      7  C   UNL     1       1.939   9.420  17.730  0.00  0.00    +0.000 A 
ATOM      8  C   UNL     1       2.192   8.222  18.348  0.00  0.00    +0.000 A 
ATOM      9  C   UNL     1       1.794   8.126  19.660  0.00  0.00    +0.000 A 
ATOM     10  N   UNL     1       1.192   9.145  20.288  0.00  0.00    +0.000 NA
ATOM     11  C   UNL     1      -0.021  11.210  21.669  0.00  0.00    +0.000 C 
ATOM     12  C   UNL     1      -1.346  11.965  21.939  0.00  0.00    +0.000 C 
ENDROOT
BRANCH   1  14
ATOM     13  C   UNL     1      -0.726  15.742  21.603  0.00  0.00    +0.000 C 
ATOM     14  C   UNL     1      -0.635  14.345  22.247  0.00  0.00    +0.000 C 
ATOM     15  C   UNL     1      -1.131  14.502  23.696  0.00  0.00    +0.000 C 
ENDBRANCH   1  14
BRANCH   9  16
ATOM     16  N   UNL     1       1.911   6.976  20.406  0.00  0.00    +0.000 N 
ATOM     17  H   UNL     1       1.638   7.141  21.369  0.00  0.00    +0.000 HD
BRANCH  16  18
ATOM     18  C   UNL     1       2.941   5.984  20.183  0.00  0.00    +0.000 C 
BRANCH  18  19
ATOM     19  C   UNL     1       2.296   4.718  19.681  0.00  0.00    +0.000 A 
ATOM     20  C   UNL     1       2.435   4.312  18.345  0.00  0.00    +0.000 A 
ATOM     21  C   UNL     1       1.753   3.187  17.880  0.00  0.00    +0.000 A 
ATOM     22  C   UNL     1       0.941   2.453  18.744  0.00  0.00    +0.000 A 
ATOM     23  C   UNL     1       0.816   2.833  20.079  0.00  0.00    +0.000 A 
ATOM     24  C   UNL     1       1.494   3.956  20.544  0.00  0.00    +0.000 A 
ENDBRANCH  18  19
ENDBRANCH  16  18
ENDBRANCH   9  16
TORSDOF 4
ENDMDL
MODEL 7
REMARK VINA RESULT:      -6.7      5.796      8.453
REMARK  Name = 
REMARK  6 active torsions:
REMARK  status: ('A' for Active; 'I' for Inactive)
REMARK    1  A    between atoms: C_1  and  C_2
REMARK    2  A    between atoms: C_2  and  C_3
REMARK    3  A    between atoms: C_2  and  N_4
REMARK    4  A    between atoms: C_12  and  N_13
REMARK    5  A    between atoms: N_13  and  C_14
REMARK    6  A    between atoms: C_14  and  C_15
REMARK                            x       y       z     vdW  Elec       q    Type
REMARK                         _______ _______ _______ _____ _____    ______ ____
ROOT
ATOM      1  N   UNL     1       1.433   4.603  19.997  0.00  0.00    +0.000 NA
ATOM      2  C   UNL     1       2.777   4.732  20.632  0.00  0.00    +0.000 C 
ATOM      3  C   UNL     1       3.937   4.021  19.890  0.00  0.00    +0.000 C 
ATOM      4  N   UNL     1       3.965   4.477  18.506  0.00  0.00    +0.000 N 
ATOM      5  C   UNL     1       5.160   4.579  17.834  0.00  0.00    +0.000 A 
ATOM      6  N   UNL     1       6.298   4.589  18.538  0.00  0.00    +0.000 NA
ATOM      7  C   UNL     1       7.441   4.778  17.862  0.00  0.00    +0.000 A 
ATOM      8  C   UNL     1       7.498   4.923  16.499  0.00  0.00    +0.000 A 
ATOM      9  C   UNL     1       6.292   4.890  15.840  0.00  0.00    +0.000 A 
ATOM     10  N   UNL     1       5.136   4.729  16.497  0.00  0.00    +0.000 NA
ATOM     11  C   UNL     1       2.710   4.364  17.771  0.00  0.00    +0.000 C 
ATOM     12  C   UNL     1       1.576   5.038  18.582  0.00  0.00    +0.000 C 
ENDROOT
BRANCH   1  14
ATOM     13  C   UNL     1       0.947   2.449  18.875  0.00  0.00    +0.000 C 
ATOM     14  C   UNL     1       0.838   3.261  20.182  0.00  0.00    +0.000 C 
ATOM     15  C   UNL     1       1.526   2.420  21.272  0.00  0.00    +0.000 C 
ENDBRANCH   1  14
BRANCH   9  16
ATOM     16  N   UNL     1       6.165   5.087  14.484  0.00  0.00    +0.000 N 
ATOM     17  H   UNL     1       5.187   5.145  14.219  0.00  0.00    +0.000 HD
BRANCH  16  18
ATOM     18  C   UNL     1       7.071   4.521  13.508  0.00  0.00    +0.000 C 
BRANCH  18  19
ATOM     19  C   UNL     1       6.296   3.595  12.607  0.00  0.00    +0.000 A 
ATOM     20  C   UNL     1       6.915   2.502  11.982  0.00  0.00    +0.000 A 
ATOM     21  C   UNL     1       6.200   1.714  11.079  0.00  0.00    +0.000 A 
ATOM     22  C   UNL     1       4.863   2.000  10.804  0.00  0.00    +0.000 A 
ATOM     23  C   UNL     1       4.232   3.067  11.438  0.00  0.00    +0.000 A 
ATOM     24  C   UNL     1       4.943   3.856  12.338  0.00  0.00    +0.000 A 
ENDBRANCH  18  19
ENDBRANCH  16  18
ENDBRANCH   9  16
TORSDOF 4
ENDMDL
MODEL 8
REMARK VINA RESULT:      -6.7      2.493      4.518
REMARK  Name = 
REMARK  6 active torsions:
REMARK  status: ('A' for Active; 'I' for Inactive)
REMARK    1  A    between atoms: C_1  and  C_2
REMARK    2  A    between atoms: C_2  and  C_3
REMARK    3  A    between atoms: C_2  and  N_4
REMARK    4  A    between atoms: C_12  and  N_13
REMARK    5  A    between atoms: N_13  and  C_14
REMARK    6  A    between atoms: C_14  and  C_15
REMARK                            x       y       z     vdW  Elec       q    Type
REMARK                         _______ _______ _______ _____ _____    ______ ____
ROOT
ATOM      1  N   UNL     1       0.663  10.975  21.292  0.00  0.00    +0.000 NA
ATOM      2  C   UNL     1       0.801   9.815  22.219  0.00  0.00    +0.000 C 
ATOM      3  C   UNL     1       0.543   8.422  21.589  0.00  0.00    +0.000 C 
ATOM      4  N   UNL     1       1.400   8.265  20.420  0.00  0.00    +0.000 N 
ATOM      5  C   UNL     1       1.889   7.026  20.082  0.00  0.00    +0.000 A 
ATOM      6  N   UNL     1       1.861   6.049  20.995  0.00  0.00    +0.000 NA
ATOM      7  C   UNL     1       2.425   4.878  20.665  0.00  0.00    +0.000 A 
ATOM      8  C   UNL     1       2.989   4.629  19.439  0.00  0.00    +0.000 A 
ATOM      9  C   UNL     1       2.970   5.674  18.546  0.00  0.00    +0.000 A 
ATOM     10  N   UNL     1       2.436   6.860  18.863  0.00  0.00    +0.000 NA
ATOM     11  C   UNL     1       1.322   9.327  19.423  0.00  0.00    +0.000 C 
ATOM     12  C   UNL     1       1.527  10.698  20.115  0.00  0.00    +0.000 C 
ENDROOT
BRANCH   1  14
ATOM     13  C   UNL     1      -1.475  11.794  22.236  0.00  0.00    +0.000 C 
ATOM     14  C   UNL     1      -0.747  11.290  20.973  0.00  0.00    +0.000 C 
ATOM     15  C   UNL     1      -0.913  12.391  19.910  0.00  0.00    +0.000 C 
ENDBRANCH   1  14
BRANCH   9  16
ATOM     16  N   UNL     1       3.551   5.615  17.300  0.00  0.00    +0.000 N 
ATOM     17  H   UNL     1       2.843   5.605  16.573  0.00  0.00    +0.000 HD
BRANCH  16  18
ATOM     18  C   UNL     1       4.776   4.895  17.025  0.00  0.00    +0.000 C 
BRANCH  18  19
ATOM     19  C   UNL     1       5.935   5.677  17.588  0.00  0.00    +0.000 A 
ATOM     20  C   UNL     1       6.317   6.908  17.035  0.00  0.00    +0.000 A 
ATOM     21  C   UNL     1       7.451   7.568  17.513  0.00  0.00    +0.000 A 
ATOM     22  C   UNL     1       8.199   7.014  18.551  0.00  0.00    +0.000 A 
ATOM     23  C   UNL     1       7.813   5.805  19.124  0.00  0.00    +0.000 A 
ATOM     24  C   UNL     1       6.685   5.143  18.647  0.00  0.00    +0.000 A 
ENDBRANCH  18  19
ENDBRANCH  16  18
ENDBRANCH   9  16
TORSDOF 4
ENDMDL
MODEL 9
REMARK VINA RESULT:      -6.7      2.301      4.155
REMARK  Name = 
REMARK  6 active torsions:
REMARK  status: ('A' for Active; 'I' for Inactive)
REMARK    1  A    between atoms: C_1  and  C_2
REMARK    2  A    between atoms: C_2  and  C_3
REMARK    3  A    between atoms: C_2  and  N_4
REMARK    4  A    between atoms: C_12  and  N_13
REMARK    5  A    between atoms: N_13  and  C_14
REMARK    6  A    between atoms: C_14  and  C_15
REMARK                            x       y       z     vdW  Elec       q    Type
REMARK                         _______ _______ _______ _____ _____    ______ ____
ROOT
ATOM      1  N   UNL     1       0.799   9.134  19.224  0.00  0.00    +0.000 NA
ATOM      2  C   UNL     1       1.327   8.988  17.837  0.00  0.00    +0.000 C 
ATOM      3  C   UNL     1       2.806   8.536  17.729  0.00  0.00    +0.000 C 
ATOM      4  N   UNL     1       2.981   7.305  18.490  0.00  0.00    +0.000 N 
ATOM      5  C   UNL     1       3.887   6.358  18.076  0.00  0.00    +0.000 A 
ATOM      6  N   UNL     1       4.348   6.410  16.821  0.00  0.00    +0.000 NA
ATOM      7  C   UNL     1       5.162   5.423  16.420  0.00  0.00    +0.000 A 
ATOM      8  C   UNL     1       5.566   4.397  17.236  0.00  0.00    +0.000 A 
ATOM      9  C   UNL     1       5.064   4.414  18.515  0.00  0.00    +0.000 A 
ATOM     10  N   UNL     1       4.229   5.376  18.930  0.00  0.00    +0.000 NA
ATOM     11  C   UNL     1       2.531   7.341  19.877  0.00  0.00    +0.000 C 
ATOM     12  C   UNL     1       1.071   7.855  19.931  0.00  0.00    +0.000 C 
ENDROOT
BRANCH   1  14
ATOM     13  C   UNL     1       0.940  11.602  19.089  0.00  0.00    +0.000 C 
ATOM     14  C   UNL     1       1.304  10.346  19.906  0.00  0.00    +0.000 C 
ATOM     15  C   UNL     1       0.716  10.559  21.312  0.00  0.00    +0.000 C 
ENDBRANCH   1  14
BRANCH   9  16
ATOM     16  N   UNL     1       5.314   3.427  19.441  0.00  0.00    +0.000 N 
ATOM     17  H   UNL     1       6.304   3.376  19.654  0.00  0.00    +0.000 HD
BRANCH  16  18
ATOM     18  C   UNL     1       4.571   2.187  19.502  0.00  0.00    +0.000 C 
BRANCH  18  19
ATOM     19  C   UNL     1       3.110   2.506  19.691  0.00  0.00    +0.000 A 
ATOM     20  C   UNL     1       2.618   2.960  20.923  0.00  0.00    +0.000 A 
ATOM     21  C   UNL     1       1.248   3.159  21.101  0.00  0.00    +0.000 A 
ATOM     22  C   UNL     1       0.363   2.923  20.049  0.00  0.00    +0.000 A 
ATOM     23  C   UNL     1       0.844   2.497  18.813  0.00  0.00    +0.000 A 
ATOM     24  C   UNL     1       2.210   2.294  18.635  0.00  0.00    +0.000 A 
ENDBRANCH  18  19
ENDBRANCH  16  18
ENDBRANCH   9  16
TORSDOF 4
ENDMDL
