MODEL 1
REMARK VINA RESULT:      -7.0      0.000      0.000
REMARK  Name = 
REMARK  6 active torsions:
REMARK  status: ('A' for Active; 'I' for Inactive)
REMARK    1  A    between atoms: C_1  and  N_2
REMARK    2  A    between atoms: N_2  and  C_3
REMARK    3  A    between atoms: N_2  and  S_12
REMARK    4  A    between atoms: C_3  and  C_4
REMARK    5  A    between atoms: N_6  and  N_7
REMARK    6  A    between atoms: S_12  and  C_15
REMARK                            x       y       z     vdW  Elec       q    Type
REMARK                         _______ _______ _______ _____ _____    ______ ____
ROOT
ATOM      1  C   UNL     1       2.796   2.471  21.557  0.00  0.00    +0.000 C 
ATOM      2  N   UNL     1       3.204   3.345  20.419  0.00  0.00    +0.000 NA
ENDROOT
BRANCH   2   3
ATOM      3  S   UNL     1       1.880   3.751  19.384  0.00  0.00    +0.000 S 
ATOM      4  O   UNL     1       2.180   3.219  18.069  0.00  0.00    +0.000 OA
ATOM      5  O   UNL     1       0.663   3.394  20.080  0.00  0.00    +0.000 OA
BRANCH   3   6
ATOM      6  C   UNL     1       2.000   5.515  19.282  0.00  0.00    +0.000 A 
ATOM      7  C   UNL     1       1.720   6.270  20.426  0.00  0.00    +0.000 A 
ATOM      8  C   UNL     1       1.766   7.660  20.357  0.00  0.00    +0.000 A 
ATOM      9  C   UNL     1       2.100   8.288  19.156  0.00  0.00    +0.000 A 
ATOM     10  C   UNL     1       2.404   7.528  18.024  0.00  0.00    +0.000 A 
ATOM     11  C   UNL     1       2.361   6.136  18.083  0.00  0.00    +0.000 A 
ENDBRANCH   3   6
ENDBRANCH   2   3
BRANCH   2  12
ATOM     12  C   UNL     1       4.322   2.739  19.628  0.00  0.00    +0.000 C 
BRANCH  12  13
ATOM     13  C   UNL     1       5.149   3.773  18.877  0.00  0.00    +0.000 C 
ATOM     14  O   UNL     1       5.765   4.654  19.473  0.00  0.00    +0.000 OA
ATOM     15  N   UNL     1       5.140   3.622  17.509  0.00  0.00    +0.000 N 
ATOM     16  H   UNL     1       4.518   2.966  17.056  0.00  0.00    +0.000 HD
BRANCH  15  17
ATOM     17  N   UNL     1       5.807   4.489  16.709  0.00  0.00    +0.000 N 
ATOM     18  C   UNL     1       7.137   4.431  16.445  0.00  0.00    +0.000 A 
ATOM     19  N   UNL     1       7.432   5.336  15.536  0.00  0.00    +0.000 NA
ATOM     20  N   UNL     1       6.261   5.991  15.201  0.00  0.00    +0.000 NA
ATOM     21  C   UNL     1       5.289   5.461  15.915  0.00  0.00    +0.000 A 
ENDBRANCH  15  17
ENDBRANCH  12  13
ENDBRANCH   2  12
TORSDOF 5
ENDMDL
MODEL 2
REMARK VINA RESULT:      -6.7      2.921      6.309
REMARK  Name = 
REMARK  6 active torsions:
REMARK  status: ('A' for Active; 'I' for Inactive)
REMARK    1  A    between atoms: C_1  and  N_2
REMARK    2  A    between atoms: N_2  and  C_3
REMARK    3  A    between atoms: N_2  and  S_12
REMARK    4  A    between atoms: C_3  and  C_4
REMARK    5  A    between atoms: N_6  and  N_7
REMARK    6  A    between atoms: S_12  and  C_15
REMARK                            x       y       z     vdW  Elec       q    Type
REMARK                         _______ _______ _______ _____ _____    ______ ____
ROOT
ATOM      1  C   UNL     1       7.946   4.404  17.565  0.00  0.00    +0.000 C 
ATOM      2  N   UNL     1       6.477   4.646  17.465  0.00  0.00    +0.000 NA
ENDROOT
BRANCH   2   3
ATOM      3  S   UNL     1       6.082   5.886  16.326  0.00  0.00    +0.000 S 
ATOM      4  O   UNL     1       4.663   6.150  16.450  0.00  0.00    +0.000 OA
ATOM      5  O   UNL     1       7.061   6.941  16.481  0.00  0.00    +0.000 OA
BRANCH   3   6
ATOM      6  C   UNL     1       6.337   5.074  14.773  0.00  0.00    +0.000 A 
ATOM      7  C   UNL     1       7.451   5.433  14.007  0.00  0.00    +0.000 A 
ATOM      8  C   UNL     1       7.647   4.839  12.762  0.00  0.00    +0.000 A 
ATOM      9  C   UNL     1       6.740   3.887  12.294  0.00  0.00    +0.000 A 
ATOM     10  C   UNL     1       5.643   3.514  13.075  0.00  0.00    +0.000 A 
ATOM     11  C   UNL     1       5.439   4.103  14.322  0.00  0.00    +0.000 A 
ENDBRANCH   3   6
ENDBRANCH   2   3
BRANCH   2  12
ATOM     12  C   UNL     1       5.871   4.948  18.801  0.00  0.00    +0.000 C 
BRANCH  12  13
ATOM     13  C   UNL     1       4.742   3.999  19.172  0.00  0.00    +0.000 C 
ATOM     14  O   UNL     1       4.958   2.960  19.793  0.00  0.00    +0.000 OA
ATOM     15  N   UNL     1       3.496   4.411  18.761  0.00  0.00    +0.000 N 
ATOM     16  H   UNL     1       3.380   5.204  18.143  0.00  0.00    +0.000 HD
BRANCH  15  17
ATOM     17  N   UNL     1       2.398   3.651  18.995  0.00  0.00    +0.000 N 
ATOM     18  C   UNL     1       1.565   3.800  20.055  0.00  0.00    +0.000 A 
ATOM     19  N   UNL     1       0.537   2.991  19.909  0.00  0.00    +0.000 NA
ATOM     20  N   UNL     1       0.710   2.306  18.720  0.00  0.00    +0.000 NA
ATOM     21  C   UNL     1       1.836   2.722  18.178  0.00  0.00    +0.000 A 
ENDBRANCH  15  17
ENDBRANCH  12  13
ENDBRANCH   2  12
TORSDOF 5
ENDMDL
MODEL 3
REMARK VINA RESULT:      -6.6      1.261      1.308
REMARK  Name = 
REMARK  6 active torsions:
REMARK  status: ('A' for Active; 'I' for Inactive)
REMARK    1  A    between atoms: C_1  and  N_2
REMARK    2  A    between atoms: N_2  and  C_3
REMARK    3  A    between atoms: N_2  and  S_12
REMARK    4  A    between atoms: C_3  and  C_4
REMARK    5  A    between atoms: N_6  and  N_7
REMARK    6  A    between atoms: S_12  and  C_15
REMARK                            x       y       z     vdW  Elec       q    Type
REMARK                         _______ _______ _______ _____ _____    ______ ____
ROOT
ATOM      1  C   UNL     1       3.884   2.226  20.759  0.00  0.00    +0.000 C 
ATOM      2  N   UNL     1       3.493   3.138  19.644  0.00  0.00    +0.000 NA
ENDROOT
BRANCH   2   3
ATOM      3  S   UNL     1       1.838   3.628  19.735  0.00  0.00    +0.000 S 
ATOM      4  O   UNL     1       1.173   3.127  18.548  0.00  0.00    +0.000 OA
ATOM      5  O   UNL     1       1.362   3.298  21.061  0.00  0.00    +0.000 OA
BRANCH   3   6
ATOM      6  C   UNL     1       1.951   5.389  19.574  0.00  0.00    +0.000 A 
ATOM      7  C   UNL     1       1.595   6.183  20.670  0.00  0.00    +0.000 A 
ATOM      8  C   UNL     1       1.634   7.570  20.552  0.00  0.00    +0.000 A 
ATOM      9  C   UNL     1       2.036   8.156  19.351  0.00  0.00    +0.000 A 
ATOM     10  C   UNL     1       2.414   7.358  18.268  0.00  0.00    +0.000 A 
ATOM     11  C   UNL     1       2.379   5.968  18.377  0.00  0.00    +0.000 A 
ENDBRANCH   3   6
ENDBRANCH   2   3
BRANCH   2  12
ATOM     12  C   UNL     1       3.790   2.537  18.305  0.00  0.00    +0.000 C 
BRANCH  12  13
ATOM     13  C   UNL     1       4.516   3.493  17.370  0.00  0.00    +0.000 C 
ATOM     14  O   UNL     1       4.017   3.847  16.305  0.00  0.00    +0.000 OA
ATOM     15  N   UNL     1       5.744   3.912  17.829  0.00  0.00    +0.000 N 
ATOM     16  H   UNL     1       6.171   3.497  18.647  0.00  0.00    +0.000 HD
BRANCH  15  17
ATOM     17  N   UNL     1       6.517   4.743  17.088  0.00  0.00    +0.000 N 
ATOM     18  C   UNL     1       6.980   4.465  15.844  0.00  0.00    +0.000 A 
ATOM     19  N   UNL     1       7.585   5.531  15.364  0.00  0.00    +0.000 NA
ATOM     20  N   UNL     1       7.505   6.524  16.323  0.00  0.00    +0.000 NA
ATOM     21  C   UNL     1       6.851   6.033  17.355  0.00  0.00    +0.000 A 
ENDBRANCH  15  17
ENDBRANCH  12  13
ENDBRANCH   2  12
TORSDOF 5
ENDMDL
MODEL 4
REMARK VINA RESULT:      -6.5      1.842      2.073
REMARK  Name = 
REMARK  6 active torsions:
REMARK  status: ('A' for Active; 'I' for Inactive)
REMARK    1  A    between atoms: C_1  and  N_2
REMARK    2  A    between atoms: N_2  and  C_3
REMARK    3  A    between atoms: N_2  and  S_12
REMARK    4  A    between atoms: C_3  and  C_4
REMARK    5  A    between atoms: N_6  and  N_7
REMARK    6  A    between atoms: S_12  and  C_15
REMARK                            x       y       z     vdW  Elec       q    Type
REMARK                         _______ _______ _______ _____ _____    ______ ____
ROOT
ATOM      1  C   UNL     1       4.201   2.125  19.852  0.00  0.00    +0.000 C 
ATOM      2  N   UNL     1       3.852   3.288  18.986  0.00  0.00    +0.000 NA
ENDROOT
BRANCH   2   3
ATOM      3  S   UNL     1       2.153   3.607  18.954  0.00  0.00    +0.000 S 
ATOM      4  O   UNL     1       1.695   3.377  17.598  0.00  0.00    +0.000 OA
ATOM      5  O   UNL     1       1.562   2.910  20.076  0.00  0.00    +0.000 OA
BRANCH   3   6
ATOM      6  C   UNL     1       2.085   5.353  19.248  0.00  0.00    +0.000 A 
ATOM      7  C   UNL     1       1.695   5.802  20.513  0.00  0.00    +0.000 A 
ATOM      8  C   UNL     1       1.593   7.170  20.754  0.00  0.00    +0.000 A 
ATOM      9  C   UNL     1       1.889   8.080  19.738  0.00  0.00    +0.000 A 
ATOM     10  C   UNL     1       2.303   7.626  18.483  0.00  0.00    +0.000 A 
ATOM     11  C   UNL     1       2.409   6.258  18.233  0.00  0.00    +0.000 A 
ENDBRANCH   3   6
ENDBRANCH   2   3
BRANCH   2  12
ATOM     12  C   UNL     1       4.381   3.123  17.595  0.00  0.00    +0.000 C 
BRANCH  12  13
ATOM     13  C   UNL     1       5.443   4.152  17.236  0.00  0.00    +0.000 C 
ATOM     14  O   UNL     1       6.073   4.080  16.183  0.00  0.00    +0.000 OA
ATOM     15  N   UNL     1       5.615   5.141  18.177  0.00  0.00    +0.000 N 
ATOM     16  H   UNL     1       5.170   5.090  19.083  0.00  0.00    +0.000 HD
BRANCH  15  17
ATOM     17  N   UNL     1       6.548   6.109  18.006  0.00  0.00    +0.000 N 
ATOM     18  C   UNL     1       6.406   7.188  17.195  0.00  0.00    +0.000 A 
ATOM     19  N   UNL     1       7.436   7.989  17.362  0.00  0.00    +0.000 NA
ATOM     20  N   UNL     1       8.262   7.415  18.311  0.00  0.00    +0.000 NA
ATOM     21  C   UNL     1       7.707   6.284  18.693  0.00  0.00    +0.000 A 
ENDBRANCH  15  17
ENDBRANCH  12  13
ENDBRANCH   2  12
TORSDOF 5
ENDMDL
MODEL 5
REMARK VINA RESULT:      -6.4      2.941      6.654
REMARK  Name = 
REMARK  6 active torsions:
REMARK  status: ('A' for Active; 'I' for Inactive)
REMARK    1  A    between atoms: C_1  and  N_2
REMARK    2  A    between atoms: N_2  and  C_3
REMARK    3  A    between atoms: N_2  and  S_12
REMARK    4  A    between atoms: C_3  and  C_4
REMARK    5  A    between atoms: N_6  and  N_7
REMARK    6  A    between atoms: S_12  and  C_15
REMARK                            x       y       z     vdW  Elec       q    Type
REMARK                         _______ _______ _______ _____ _____    ______ ____
ROOT
ATOM      1  C   UNL     1       6.183   4.584  18.216  0.00  0.00    +0.000 C 
ATOM      2  N   UNL     1       5.429   4.775  16.943  0.00  0.00    +0.000 NA
ENDROOT
BRANCH   2   3
ATOM      3  S   UNL     1       6.204   5.890  15.872  0.00  0.00    +0.000 S 
ATOM      4  O   UNL     1       5.267   6.965  15.616  0.00  0.00    +0.000 OA
ATOM      5  O   UNL     1       7.524   6.152  16.403  0.00  0.00    +0.000 OA
BRANCH   3   6
ATOM      6  C   UNL     1       6.350   4.948  14.379  0.00  0.00    +0.000 A 
ATOM      7  C   UNL     1       7.451   5.180  13.549  0.00  0.00    +0.000 A 
ATOM      8  C   UNL     1       7.564   4.483  12.348  0.00  0.00    +0.000 A 
ATOM      9  C   UNL     1       6.587   3.553  11.988  0.00  0.00    +0.000 A 
ATOM     10  C   UNL     1       5.502   3.307  12.833  0.00  0.00    +0.000 A 
ATOM     11  C   UNL     1       5.381   4.000  14.037  0.00  0.00    +0.000 A 
ENDBRANCH   3   6
ENDBRANCH   2   3
BRANCH   2  12
ATOM     12  C   UNL     1       4.011   5.186  17.193  0.00  0.00    +0.000 C 
BRANCH  12  13
ATOM     13  C   UNL     1       3.563   4.939  18.625  0.00  0.00    +0.000 C 
ATOM     14  O   UNL     1       3.630   5.820  19.478  0.00  0.00    +0.000 OA
ATOM     15  N   UNL     1       3.084   3.669  18.859  0.00  0.00    +0.000 N 
ATOM     16  H   UNL     1       3.167   2.939  18.164  0.00  0.00    +0.000 HD
BRANCH  15  17
ATOM     17  N   UNL     1       2.677   3.296  20.096  0.00  0.00    +0.000 N 
ATOM     18  C   UNL     1       1.402   3.383  20.551  0.00  0.00    +0.000 A 
ATOM     19  N   UNL     1       1.330   2.819  21.738  0.00  0.00    +0.000 NA
ATOM     20  N   UNL     1       2.592   2.351  22.055  0.00  0.00    +0.000 NA
ATOM     21  C   UNL     1       3.391   2.642  21.049  0.00  0.00    +0.000 A 
ENDBRANCH  15  17
ENDBRANCH  12  13
ENDBRANCH   2  12
TORSDOF 5
ENDMDL
MODEL 6
REMARK VINA RESULT:      -6.4      2.962      6.703
REMARK  Name = 
REMARK  6 active torsions:
REMARK  status: ('A' for Active; 'I' for Inactive)
REMARK    1  A    between atoms: C_1  and  N_2
REMARK    2  A    between atoms: N_2  and  C_3
REMARK    3  A    between atoms: N_2  and  S_12
REMARK    4  A    between atoms: C_3  and  C_4
REMARK    5  A    between atoms: N_6  and  N_7
REMARK    6  A    between atoms: S_12  and  C_15
REMARK                            x       y       z     vdW  Elec       q    Type
REMARK                         _______ _______ _______ _____ _____    ______ ____
ROOT
ATOM      1  C   UNL     1       6.385   4.534  18.129  0.00  0.00    +0.000 C 
ATOM      2  N   UNL     1       5.581   4.685  16.882  0.00  0.00    +0.000 NA
ENDROOT
BRANCH   2   3
ATOM      3  S   UNL     1       6.245   5.861  15.801  0.00  0.00    +0.000 S 
ATOM      4  O   UNL     1       5.237   6.885  15.605  0.00  0.00    +0.000 OA
ATOM      5  O   UNL     1       7.569   6.191  16.283  0.00  0.00    +0.000 OA
BRANCH   3   6
ATOM      6  C   UNL     1       6.381   4.955  14.286  0.00  0.00    +0.000 A 
ATOM      7  C   UNL     1       5.376   4.038  13.964  0.00  0.00    +0.000 A 
ATOM      8  C   UNL     1       5.485   3.282  12.799  0.00  0.00    +0.000 A 
ATOM      9  C   UNL     1       6.586   3.452  11.958  0.00  0.00    +0.000 A 
ATOM     10  C   UNL     1       7.574   4.388  12.272  0.00  0.00    +0.000 A 
ATOM     11  C   UNL     1       7.474   5.150  13.436  0.00  0.00    +0.000 A 
ENDBRANCH   3   6
ENDBRANCH   2   3
BRANCH   2  12
ATOM     12  C   UNL     1       4.147   4.996  17.179  0.00  0.00    +0.000 C 
BRANCH  12  13
ATOM     13  C   UNL     1       3.514   4.015  18.154  0.00  0.00    +0.000 C 
ATOM     14  O   UNL     1       3.351   2.834  17.858  0.00  0.00    +0.000 OA
ATOM     15  N   UNL     1       3.160   4.566  19.365  0.00  0.00    +0.000 N 
ATOM     16  H   UNL     1       3.193   5.565  19.518  0.00  0.00    +0.000 HD
BRANCH  15  17
ATOM     17  N   UNL     1       2.559   3.818  20.321  0.00  0.00    +0.000 N 
ATOM     18  C   UNL     1       1.218   3.716  20.496  0.00  0.00    +0.000 A 
ATOM     19  N   UNL     1       0.973   2.814  21.423  0.00  0.00    +0.000 NA
ATOM     20  N   UNL     1       2.189   2.318  21.854  0.00  0.00    +0.000 NA
ATOM     21  C   UNL     1       3.136   2.930  21.173  0.00  0.00    +0.000 A 
ENDBRANCH  15  17
ENDBRANCH  12  13
ENDBRANCH   2  12
TORSDOF 5
ENDMDL
MODEL 7
REMARK VINA RESULT:      -6.3      0.816      1.403
REMARK  Name = 
REMARK  6 active torsions:
REMARK  status: ('A' for Active; 'I' for Inactive)
REMARK    1  A    between atoms: C_1  and  N_2
REMARK    2  A    between atoms: N_2  and  C_3
REMARK    3  A    between atoms: N_2  and  S_12
REMARK    4  A    between atoms: C_3  and  C_4
REMARK    5  A    between atoms: N_6  and  N_7
REMARK    6  A    between atoms: S_12  and  C_15
REMARK                            x       y       z     vdW  Elec       q    Type
REMARK                         _______ _______ _______ _____ _____    ______ ____
ROOT
ATOM      1  C   UNL     1       3.602   2.007  21.155  0.00  0.00    +0.000 C 
ATOM      2  N   UNL     1       3.452   3.044  20.093  0.00  0.00    +0.000 NA
ENDROOT
BRANCH   2   3
ATOM      3  S   UNL     1       1.804   3.499  19.834  0.00  0.00    +0.000 S 
ATOM      4  O   UNL     1       1.381   2.898  18.585  0.00  0.00    +0.000 OA
ATOM      5  O   UNL     1       1.090   3.252  21.068  0.00  0.00    +0.000 OA
BRANCH   3   6
ATOM      6  C   UNL     1       1.926   5.246  19.568  0.00  0.00    +0.000 A 
ATOM      7  C   UNL     1       2.252   5.705  18.288  0.00  0.00    +0.000 A 
ATOM      8  C   UNL     1       2.396   7.072  18.066  0.00  0.00    +0.000 A 
ATOM      9  C   UNL     1       2.205   7.972  19.115  0.00  0.00    +0.000 A 
ATOM     10  C   UNL     1       1.854   7.510  20.386  0.00  0.00    +0.000 A 
ATOM     11  C   UNL     1       1.707   6.142  20.618  0.00  0.00    +0.000 A 
ENDBRANCH   3   6
ENDBRANCH   2   3
BRANCH   2  12
ATOM     12  C   UNL     1       4.087   2.617  18.805  0.00  0.00    +0.000 C 
BRANCH  12  13
ATOM     13  C   UNL     1       5.136   3.598  18.304  0.00  0.00    +0.000 C 
ATOM     14  O   UNL     1       5.843   4.233  19.083  0.00  0.00    +0.000 OA
ATOM     15  N   UNL     1       5.213   3.694  16.933  0.00  0.00    +0.000 N 
ATOM     16  H   UNL     1       4.528   3.253  16.334  0.00  0.00    +0.000 HD
BRANCH  15  17
ATOM     17  N   UNL     1       6.082   4.551  16.343  0.00  0.00    +0.000 N 
ATOM     18  C   UNL     1       6.530   5.704  16.899  0.00  0.00    +0.000 A 
ATOM     19  N   UNL     1       7.454   6.225  16.120  0.00  0.00    +0.000 NA
ATOM     20  N   UNL     1       7.609   5.383  15.035  0.00  0.00    +0.000 NA
ATOM     21  C   UNL     1       6.778   4.373  15.190  0.00  0.00    +0.000 A 
ENDBRANCH  15  17
ENDBRANCH  12  13
ENDBRANCH   2  12
TORSDOF 5
ENDMDL
MODEL 8
REMARK VINA RESULT:      -6.3      2.857      6.612
REMARK  Name = 
REMARK  6 active torsions:
REMARK  status: ('A' for Active; 'I' for Inactive)
REMARK    1  A    between atoms: C_1  and  N_2
REMARK    2  A    between atoms: N_2  and  C_3
REMARK    3  A    between atoms: N_2  and  S_12
REMARK    4  A    between atoms: C_3  and  C_4
REMARK    5  A    between atoms: N_6  and  N_7
REMARK    6  A    between atoms: S_12  and  C_15
REMARK                            x       y       z     vdW  Elec       q    Type
REMARK                         _______ _______ _______ _____ _____    ______ ____
ROOT
ATOM      1  C   UNL     1       4.490   3.688  16.681  0.00  0.00    +0.000 C 
ATOM      2  N   UNL     1       4.901   5.103  16.450  0.00  0.00    +0.000 NA
ENDROOT
BRANCH   2   3
ATOM      3  S   UNL     1       6.603   5.267  16.190  0.00  0.00    +0.000 S 
ATOM      4  O   UNL     1       6.921   6.678  16.289  0.00  0.00    +0.000 OA
ATOM      5  O   UNL     1       7.263   4.287  17.024  0.00  0.00    +0.000 OA
BRANCH   3   6
ATOM      6  C   UNL     1       6.777   4.803  14.490  0.00  0.00    +0.000 A 
ATOM      7  C   UNL     1       7.717   5.480  13.706  0.00  0.00    +0.000 A 
ATOM      8  C   UNL     1       7.840   5.162  12.356  0.00  0.00    +0.000 A 
ATOM      9  C   UNL     1       7.036   4.166  11.798  0.00  0.00    +0.000 A 
ATOM     10  C   UNL     1       6.117   3.475  12.592  0.00  0.00    +0.000 A 
ATOM     11  C   UNL     1       5.987   3.787  13.945  0.00  0.00    +0.000 A 
ENDBRANCH   3   6
ENDBRANCH   2   3
BRANCH   2  12
ATOM     12  C   UNL     1       4.451   6.001  17.561  0.00  0.00    +0.000 C 
BRANCH  12  13
ATOM     13  C   UNL     1       4.370   5.292  18.905  0.00  0.00    +0.000 C 
ATOM     14  O   UNL     1       5.306   5.321  19.700  0.00  0.00    +0.000 OA
ATOM     15  N   UNL     1       3.178   4.642  19.132  0.00  0.00    +0.000 N 
ATOM     16  H   UNL     1       2.488   4.536  18.400  0.00  0.00    +0.000 HD
BRANCH  15  17
ATOM     17  N   UNL     1       2.974   3.942  20.274  0.00  0.00    +0.000 N 
ATOM     18  C   UNL     1       2.118   4.304  21.262  0.00  0.00    +0.000 A 
ATOM     19  N   UNL     1       2.068   3.343  22.159  0.00  0.00    +0.000 NA
ATOM     20  N   UNL     1       2.911   2.332  21.737  0.00  0.00    +0.000 NA
ATOM     21  C   UNL     1       3.445   2.708  20.593  0.00  0.00    +0.000 A 
ENDBRANCH  15  17
ENDBRANCH  12  13
ENDBRANCH   2  12
TORSDOF 5
ENDMDL
MODEL 9
REMARK VINA RESULT:      -6.3      3.657      6.050
REMARK  Name = 
REMARK  6 active torsions:
REMARK  status: ('A' for Active; 'I' for Inactive)
REMARK    1  A    between atoms: C_1  and  N_2
REMARK    2  A    between atoms: N_2  and  C_3
REMARK    3  A    between atoms: N_2  and  S_12
REMARK    4  A    between atoms: C_3  and  C_4
REMARK    5  A    between atoms: N_6  and  N_7
REMARK    6  A    between atoms: S_12  and  C_15
REMARK                            x       y       z     vdW  Elec       q    Type
REMARK                         _______ _______ _______ _____ _____    ______ ____
ROOT
ATOM      1  C   UNL     1       1.799   4.399  17.866  0.00  0.00    +0.000 C 
ATOM      2  N   UNL     1       3.017   5.085  18.386  0.00  0.00    +0.000 NA
ENDROOT
BRANCH   2   3
ATOM      3  S   UNL     1       4.440   4.113  18.245  0.00  0.00    +0.000 S 
ATOM      4  O   UNL     1       4.586   3.378  19.486  0.00  0.00    +0.000 OA
ATOM      5  O   UNL     1       4.372   3.432  16.971  0.00  0.00    +0.000 OA
BRANCH   3   6
ATOM      6  C   UNL     1       5.729   5.326  18.193  0.00  0.00    +0.000 A 
ATOM      7  C   UNL     1       5.629   6.366  17.263  0.00  0.00    +0.000 A 
ATOM      8  C   UNL     1       6.653   7.307  17.175  0.00  0.00    +0.000 A 
ATOM      9  C   UNL     1       7.761   7.212  18.018  0.00  0.00    +0.000 A 
ATOM     10  C   UNL     1       7.843   6.186  18.963  0.00  0.00    +0.000 A 
ATOM     11  C   UNL     1       6.823   5.240  19.059  0.00  0.00    +0.000 A 
ENDBRANCH   3   6
ENDBRANCH   2   3
BRANCH   2  12
ATOM     12  C   UNL     1       2.834   5.545  19.800  0.00  0.00    +0.000 C 
BRANCH  12  13
ATOM     13  C   UNL     1       2.277   6.958  19.899  0.00  0.00    +0.000 C 
ATOM     14  O   UNL     1       2.457   7.780  19.004  0.00  0.00    +0.000 OA
ATOM     15  N   UNL     1       1.571   7.210  21.053  0.00  0.00    +0.000 N 
ATOM     16  H   UNL     1       1.558   6.548  21.818  0.00  0.00    +0.000 HD
BRANCH  15  17
ATOM     17  N   UNL     1       1.043   8.435  21.292  0.00  0.00    +0.000 N 
ATOM     18  C   UNL     1       1.511   9.314  22.213  0.00  0.00    +0.000 A 
ATOM     19  N   UNL     1       0.854  10.448  22.096  0.00  0.00    +0.000 NA
ATOM     20  N   UNL     1      -0.059  10.298  21.069  0.00  0.00    +0.000 NA
ATOM     21  C   UNL     1       0.074   9.078  20.590  0.00  0.00    +0.000 A 
ENDBRANCH  15  17
ENDBRANCH  12  13
ENDBRANCH   2  12
TORSDOF 5
ENDMDL
