MODEL 1
REMARK VINA RESULT:      -7.5      0.000      0.000
REMARK  Name = 
REMARK  6 active torsions:
REMARK  status: ('A' for Active; 'I' for Inactive)
REMARK    1  A    between atoms: C_1  and  N_2
REMARK    2  A    between atoms: C_6  and  SE_7
REMARK    3  A    between atoms: SE_7  and  C_8
REMARK    4  A    between atoms: C_8  and  C_9
REMARK    5  A    between atoms: C_12  and  N_13
REMARK    6  A    between atoms: C_17  and  N_18
REMARK                            x       y       z     vdW  Elec       q    Type
REMARK                         _______ _______ _______ _____ _____    ______ ____
ROOT
ATOM      1  C   UNL     1       5.452   5.233  18.028  0.00  0.00    +0.000 A 
ATOM      2  C   UNL     1       4.628   4.746  16.994  0.00  0.00    +0.000 A 
ATOM      3  C   UNL     1       5.109   4.589  15.695  0.00  0.00    +0.000 A 
ATOM      4  C   UNL     1       6.433   4.918  15.383  0.00  0.00    +0.000 A 
ATOM      5  C   UNL     1       7.267   5.405  16.403  0.00  0.00    +0.000 A 
ATOM      6  C   UNL     1       6.813   5.563  17.731  0.00  0.00    +0.000 A 
ENDROOT
BRANCH   4   7
ATOM      7  N   UNL     1       6.933   4.755  14.054  0.00  0.00    +0.000 N 
ATOM      8  O   UNL     1       6.461   3.936  13.325  0.00  0.00    +0.000 OA
ATOM      9  O   UNL     1       7.929   5.497  13.619  0.00  0.00    +0.000 OA
ENDBRANCH   4   7
BRANCH   6  10
ATOM     10  N   UNL     1       7.751   6.025  18.716  0.00  0.00    +0.000 N 
ATOM     11  O   UNL     1       8.175   7.139  18.698  0.00  0.00    +0.000 OA
ATOM     12  O   UNL     1       8.101   5.241  19.714  0.00  0.00    +0.000 OA
ENDBRANCH   6  10
BRANCH   1  13
ATOM     13  C   UNL     1       4.824   5.347  19.406  0.00  0.00    +0.000 C 
BRANCH  13  14
ATOM     14 SE   UNL     1       2.918   5.832  19.396  0.00  0.00    +0.000 Se
BRANCH  14  20
ATOM     15  C   UNL     1       1.480   2.943  18.370  0.00  0.00    +0.000 C 
ATOM     16  N   UNL     1       1.757   3.189  19.779  0.00  0.00    +0.000 N 
ATOM     17  N   UNL     1       1.473   2.358  20.765  0.00  0.00    +0.000 NA
ATOM     18  N   UNL     1       1.849   2.916  21.908  0.00  0.00    +0.000 NA
ATOM     19  N   UNL     1       2.379   4.111  21.673  0.00  0.00    +0.000 NA
ATOM     20  C   UNL     1       2.323   4.269  20.339  0.00  0.00    +0.000 A 
ENDBRANCH  14  20
ENDBRANCH  13  14
ENDBRANCH   1  13
TORSDOF 5
ENDMDL
MODEL 2
REMARK VINA RESULT:      -7.5      0.871      1.654
REMARK  Name = 
REMARK  6 active torsions:
REMARK  status: ('A' for Active; 'I' for Inactive)
REMARK    1  A    between atoms: C_1  and  N_2
REMARK    2  A    between atoms: C_6  and  SE_7
REMARK    3  A    between atoms: SE_7  and  C_8
REMARK    4  A    between atoms: C_8  and  C_9
REMARK    5  A    between atoms: C_12  and  N_13
REMARK    6  A    between atoms: C_17  and  N_18
REMARK                            x       y       z     vdW  Elec       q    Type
REMARK                         _______ _______ _______ _____ _____    ______ ____
ROOT
ATOM      1  C   UNL     1       5.568   4.728  17.728  0.00  0.00    +0.000 A 
ATOM      2  C   UNL     1       4.872   4.193  16.627  0.00  0.00    +0.000 A 
ATOM      3  C   UNL     1       5.405   4.233  15.339  0.00  0.00    +0.000 A 
ATOM      4  C   UNL     1       6.657   4.815  15.107  0.00  0.00    +0.000 A 
ATOM      5  C   UNL     1       7.364   5.354  16.195  0.00  0.00    +0.000 A 
ATOM      6  C   UNL     1       6.856   5.317  17.512  0.00  0.00    +0.000 A 
ENDROOT
BRANCH   4   7
ATOM      7  N   UNL     1       7.211   4.855  13.791  0.00  0.00    +0.000 N 
ATOM      8  O   UNL     1       6.747   4.188  12.917  0.00  0.00    +0.000 OA
ATOM      9  O   UNL     1       8.251   5.618  13.526  0.00  0.00    +0.000 OA
ENDBRANCH   4   7
BRANCH   6  10
ATOM     10  N   UNL     1       7.670   5.853  18.567  0.00  0.00    +0.000 N 
ATOM     11  O   UNL     1       8.060   5.168  19.461  0.00  0.00    +0.000 OA
ATOM     12  O   UNL     1       8.071   7.106  18.520  0.00  0.00    +0.000 OA
ENDBRANCH   6  10
BRANCH   1  13
ATOM     13  C   UNL     1       4.896   4.614  19.083  0.00  0.00    +0.000 C 
BRANCH  13  14
ATOM     14 SE   UNL     1       3.236   5.655  19.262  0.00  0.00    +0.000 Se
BRANCH  14  20
ATOM     15  C   UNL     1       2.088   3.445  21.556  0.00  0.00    +0.000 C 
ATOM     16  N   UNL     1       1.696   3.351  20.157  0.00  0.00    +0.000 N 
ATOM     17  N   UNL     1       0.902   2.425  19.651  0.00  0.00    +0.000 NA
ATOM     18  N   UNL     1       0.779   2.641  18.348  0.00  0.00    +0.000 NA
ATOM     19  N   UNL     1       1.491   3.705  17.999  0.00  0.00    +0.000 NA
ATOM     20  C   UNL     1       2.055   4.146  19.137  0.00  0.00    +0.000 A 
ENDBRANCH  14  20
ENDBRANCH  13  14
ENDBRANCH   1  13
TORSDOF 5
ENDMDL
MODEL 3
REMARK VINA RESULT:      -7.5      0.846      1.642
REMARK  Name = 
REMARK  6 active torsions:
REMARK  status: ('A' for Active; 'I' for Inactive)
REMARK    1  A    between atoms: C_1  and  N_2
REMARK    2  A    between atoms: C_6  and  SE_7
REMARK    3  A    between atoms: SE_7  and  C_8
REMARK    4  A    between atoms: C_8  and  C_9
REMARK    5  A    between atoms: C_12  and  N_13
REMARK    6  A    between atoms: C_17  and  N_18
REMARK                            x       y       z     vdW  Elec       q    Type
REMARK                         _______ _______ _______ _____ _____    ______ ____
ROOT
ATOM      1  C   UNL     1       5.427   5.092  17.743  0.00  0.00    +0.000 A 
ATOM      2  C   UNL     1       4.677   4.614  16.651  0.00  0.00    +0.000 A 
ATOM      3  C   UNL     1       5.228   4.527  15.373  0.00  0.00    +0.000 A 
ATOM      4  C   UNL     1       6.553   4.920  15.142  0.00  0.00    +0.000 A 
ATOM      5  C   UNL     1       7.313   5.399  16.222  0.00  0.00    +0.000 A 
ATOM      6  C   UNL     1       6.787   5.487  17.529  0.00  0.00    +0.000 A 
ENDROOT
BRANCH   4   7
ATOM      7  N   UNL     1       7.124   4.829  13.836  0.00  0.00    +0.000 N 
ATOM      8  O   UNL     1       8.038   5.532  13.524  0.00  0.00    +0.000 OA
ATOM      9  O   UNL     1       6.644   3.978  12.954  0.00  0.00    +0.000 OA
ENDBRANCH   4   7
BRANCH   6  10
ATOM     10  N   UNL     1       7.654   5.947  18.578  0.00  0.00    +0.000 N 
ATOM     11  O   UNL     1       8.037   7.075  18.619  0.00  0.00    +0.000 OA
ATOM     12  O   UNL     1       7.979   5.141  19.567  0.00  0.00    +0.000 OA
ENDBRANCH   6  10
BRANCH   1  13
ATOM     13  C   UNL     1       4.727   5.127  19.089  0.00  0.00    +0.000 C 
BRANCH  13  14
ATOM     14 SE   UNL     1       2.958   5.988  19.067  0.00  0.00    +0.000 Se
BRANCH  14  20
ATOM     15  C   UNL     1       2.140   3.727  21.452  0.00  0.00    +0.000 C 
ATOM     16  N   UNL     1       1.720   3.549  20.068  0.00  0.00    +0.000 N 
ATOM     17  N   UNL     1       1.022   2.525  19.611  0.00  0.00    +0.000 NA
ATOM     18  N   UNL     1       0.838   2.689  18.309  0.00  0.00    +0.000 NA
ATOM     19  N   UNL     1       1.412   3.818  17.910  0.00  0.00    +0.000 NA
ATOM     20  C   UNL     1       1.955   4.352  19.018  0.00  0.00    +0.000 A 
ENDBRANCH  14  20
ENDBRANCH  13  14
ENDBRANCH   1  13
TORSDOF 5
ENDMDL
MODEL 4
REMARK VINA RESULT:      -7.4      1.313      1.829
REMARK  Name = 
REMARK  6 active torsions:
REMARK  status: ('A' for Active; 'I' for Inactive)
REMARK    1  A    between atoms: C_1  and  N_2
REMARK    2  A    between atoms: C_6  and  SE_7
REMARK    3  A    between atoms: SE_7  and  C_8
REMARK    4  A    between atoms: C_8  and  C_9
REMARK    5  A    between atoms: C_12  and  N_13
REMARK    6  A    between atoms: C_17  and  N_18
REMARK                            x       y       z     vdW  Elec       q    Type
REMARK                         _______ _______ _______ _____ _____    ______ ____
ROOT
ATOM      1  C   UNL     1       5.417   4.531  17.940  0.00  0.00    +0.000 A 
ATOM      2  C   UNL     1       4.780   3.975  16.813  0.00  0.00    +0.000 A 
ATOM      3  C   UNL     1       5.339   4.075  15.539  0.00  0.00    +0.000 A 
ATOM      4  C   UNL     1       6.556   4.740  15.347  0.00  0.00    +0.000 A 
ATOM      5  C   UNL     1       7.203   5.300  16.462  0.00  0.00    +0.000 A 
ATOM      6  C   UNL     1       6.669   5.205  17.766  0.00  0.00    +0.000 A 
ENDROOT
BRANCH   4   7
ATOM      7  N   UNL     1       7.136   4.841  14.046  0.00  0.00    +0.000 N 
ATOM      8  O   UNL     1       6.734   4.164  13.148  0.00  0.00    +0.000 OA
ATOM      9  O   UNL     1       8.130   5.673  13.820  0.00  0.00    +0.000 OA
ENDBRANCH   4   7
BRANCH   6  10
ATOM     10  N   UNL     1       7.424   5.769  18.849  0.00  0.00    +0.000 N 
ATOM     11  O   UNL     1       8.024   6.791  18.723  0.00  0.00    +0.000 OA
ATOM     12  O   UNL     1       7.399   5.202  20.037  0.00  0.00    +0.000 OA
ENDBRANCH   6  10
BRANCH   1  13
ATOM     13  C   UNL     1       4.723   4.347  19.277  0.00  0.00    +0.000 C 
BRANCH  13  14
ATOM     14 SE   UNL     1       4.411   2.472  19.784  0.00  0.00    +0.000 Se
BRANCH  14  20
ATOM     15  C   UNL     1       1.628   2.909  21.663  0.00  0.00    +0.000 C 
ATOM     16  N   UNL     1       1.539   2.657  20.231  0.00  0.00    +0.000 N 
ATOM     17  N   UNL     1       0.415   2.557  19.545  0.00  0.00    +0.000 NA
ATOM     18  N   UNL     1       0.716   2.309  18.278  0.00  0.00    +0.000 NA
ATOM     19  N   UNL     1       2.033   2.247  18.131  0.00  0.00    +0.000 NA
ATOM     20  C   UNL     1       2.540   2.471  19.355  0.00  0.00    +0.000 A 
ENDBRANCH  14  20
ENDBRANCH  13  14
ENDBRANCH   1  13
TORSDOF 5
ENDMDL
MODEL 5
REMARK VINA RESULT:      -7.3      2.612      3.507
REMARK  Name = 
REMARK  6 active torsions:
REMARK  status: ('A' for Active; 'I' for Inactive)
REMARK    1  A    between atoms: C_1  and  N_2
REMARK    2  A    between atoms: C_6  and  SE_7
REMARK    3  A    between atoms: SE_7  and  C_8
REMARK    4  A    between atoms: C_8  and  C_9
REMARK    5  A    between atoms: C_12  and  N_13
REMARK    6  A    between atoms: C_17  and  N_18
REMARK                            x       y       z     vdW  Elec       q    Type
REMARK                         _______ _______ _______ _____ _____    ______ ____
ROOT
ATOM      1  C   UNL     1       2.992   4.682  17.642  0.00  0.00    +0.000 A 
ATOM      2  C   UNL     1       3.891   4.013  16.788  0.00  0.00    +0.000 A 
ATOM      3  C   UNL     1       5.209   4.441  16.640  0.00  0.00    +0.000 A 
ATOM      4  C   UNL     1       5.676   5.560  17.341  0.00  0.00    +0.000 A 
ATOM      5  C   UNL     1       4.792   6.238  18.197  0.00  0.00    +0.000 A 
ATOM      6  C   UNL     1       3.454   5.821  18.377  0.00  0.00    +0.000 A 
ENDROOT
BRANCH   4   7
ATOM      7  N   UNL     1       7.027   6.001  17.198  0.00  0.00    +0.000 N 
ATOM      8  O   UNL     1       7.692   6.241  18.160  0.00  0.00    +0.000 OA
ATOM      9  O   UNL     1       7.554   6.161  16.003  0.00  0.00    +0.000 OA
ENDBRANCH   4   7
BRANCH   6  10
ATOM     10  N   UNL     1       2.638   6.550  19.307  0.00  0.00    +0.000 N 
ATOM     11  O   UNL     1       2.314   6.080  20.353  0.00  0.00    +0.000 OA
ATOM     12  O   UNL     1       2.296   7.795  19.050  0.00  0.00    +0.000 OA
ENDBRANCH   6  10
BRANCH   1  13
ATOM     13  C   UNL     1       1.587   4.116  17.734  0.00  0.00    +0.000 C 
BRANCH  13  14
ATOM     14 SE   UNL     1       1.502   2.225  18.267  0.00  0.00    +0.000 Se
BRANCH  14  20
ATOM     15  C   UNL     1       4.405   2.237  20.010  0.00  0.00    +0.000 C 
ATOM     16  N   UNL     1       3.131   2.497  20.666  0.00  0.00    +0.000 N 
ATOM     17  N   UNL     1       2.975   2.735  21.956  0.00  0.00    +0.000 NA
ATOM     18  N   UNL     1       1.683   2.910  22.198  0.00  0.00    +0.000 NA
ATOM     19  N   UNL     1       0.992   2.786  21.071  0.00  0.00    +0.000 NA
ATOM     20  C   UNL     1       1.906   2.534  20.118  0.00  0.00    +0.000 A 
ENDBRANCH  14  20
ENDBRANCH  13  14
ENDBRANCH   1  13
TORSDOF 5
ENDMDL
MODEL 6
REMARK VINA RESULT:      -7.2      1.376      2.171
REMARK  Name = 
REMARK  6 active torsions:
REMARK  status: ('A' for Active; 'I' for Inactive)
REMARK    1  A    between atoms: C_1  and  N_2
REMARK    2  A    between atoms: C_6  and  SE_7
REMARK    3  A    between atoms: SE_7  and  C_8
REMARK    4  A    between atoms: C_8  and  C_9
REMARK    5  A    between atoms: C_12  and  N_13
REMARK    6  A    between atoms: C_17  and  N_18
REMARK                            x       y       z     vdW  Elec       q    Type
REMARK                         _______ _______ _______ _____ _____    ______ ____
ROOT
ATOM      1  C   UNL     1       5.597   4.315  16.549  0.00  0.00    +0.000 A 
ATOM      2  C   UNL     1       5.096   3.950  15.284  0.00  0.00    +0.000 A 
ATOM      3  C   UNL     1       5.804   4.223  14.115  0.00  0.00    +0.000 A 
ATOM      4  C   UNL     1       7.041   4.877  14.170  0.00  0.00    +0.000 A 
ATOM      5  C   UNL     1       7.555   5.247  15.423  0.00  0.00    +0.000 A 
ATOM      6  C   UNL     1       6.866   4.974  16.626  0.00  0.00    +0.000 A 
ENDROOT
BRANCH   4   7
ATOM      7  N   UNL     1       7.774   5.154  12.975  0.00  0.00    +0.000 N 
ATOM      8  O   UNL     1       8.711   5.895  12.997  0.00  0.00    +0.000 OA
ATOM      9  O   UNL     1       7.419   4.609  11.831  0.00  0.00    +0.000 OA
ENDBRANCH   4   7
BRANCH   6  10
ATOM     10  N   UNL     1       7.491   5.351  17.863  0.00  0.00    +0.000 N 
ATOM     11  O   UNL     1       8.103   4.564  18.517  0.00  0.00    +0.000 OA
ATOM     12  O   UNL     1       7.464   6.606  18.261  0.00  0.00    +0.000 OA
ENDBRANCH   6  10
BRANCH   1  13
ATOM     13  C   UNL     1       4.746   3.953  17.752  0.00  0.00    +0.000 C 
BRANCH  13  14
ATOM     14 SE   UNL     1       3.410   5.310  18.245  0.00  0.00    +0.000 Se
BRANCH  14  20
ATOM     15  C   UNL     1       2.106   4.248  21.184  0.00  0.00    +0.000 C 
ATOM     16  N   UNL     1       1.616   3.734  19.912  0.00  0.00    +0.000 N 
ATOM     17  N   UNL     1       0.667   2.826  19.774  0.00  0.00    +0.000 NA
ATOM     18  N   UNL     1       0.495   2.590  18.481  0.00  0.00    +0.000 NA
ATOM     19  N   UNL     1       1.328   3.341  17.771  0.00  0.00    +0.000 NA
ATOM     20  C   UNL     1       2.020   4.057  18.674  0.00  0.00    +0.000 A 
ENDBRANCH  14  20
ENDBRANCH  13  14
ENDBRANCH   1  13
TORSDOF 5
ENDMDL
MODEL 7
REMARK VINA RESULT:      -7.2      1.372      1.595
REMARK  Name = 
REMARK  6 active torsions:
REMARK  status: ('A' for Active; 'I' for Inactive)
REMARK    1  A    between atoms: C_1  and  N_2
REMARK    2  A    between atoms: C_6  and  SE_7
REMARK    3  A    between atoms: SE_7  and  C_8
REMARK    4  A    between atoms: C_8  and  C_9
REMARK    5  A    between atoms: C_12  and  N_13
REMARK    6  A    between atoms: C_17  and  N_18
REMARK                            x       y       z     vdW  Elec       q    Type
REMARK                         _______ _______ _______ _____ _____    ______ ____
ROOT
ATOM      1  C   UNL     1       5.596   4.289  17.055  0.00  0.00    +0.000 A 
ATOM      2  C   UNL     1       5.089   3.806  15.833  0.00  0.00    +0.000 A 
ATOM      3  C   UNL     1       5.739   4.059  14.626  0.00  0.00    +0.000 A 
ATOM      4  C   UNL     1       6.921   4.809  14.599  0.00  0.00    +0.000 A 
ATOM      5  C   UNL     1       7.439   5.298  15.810  0.00  0.00    +0.000 A 
ATOM      6  C   UNL     1       6.810   5.048  17.050  0.00  0.00    +0.000 A 
ENDROOT
BRANCH   4   7
ATOM      7  N   UNL     1       7.594   5.068  13.365  0.00  0.00    +0.000 N 
ATOM      8  O   UNL     1       7.237   4.536  12.357  0.00  0.00    +0.000 OA
ATOM      9  O   UNL     1       8.625   5.885  13.325  0.00  0.00    +0.000 OA
ENDBRANCH   4   7
BRANCH   6  10
ATOM     10  N   UNL     1       7.438   5.550  18.239  0.00  0.00    +0.000 N 
ATOM     11  O   UNL     1       7.725   4.829  19.144  0.00  0.00    +0.000 OA
ATOM     12  O   UNL     1       7.785   6.818  18.319  0.00  0.00    +0.000 OA
ENDBRANCH   6  10
BRANCH   1  13
ATOM     13  C   UNL     1       4.812   3.938  18.307  0.00  0.00    +0.000 C 
BRANCH  13  14
ATOM     14 SE   UNL     1       3.688   2.332  18.143  0.00  0.00    +0.000 Se
BRANCH  14  20
ATOM     15  C   UNL     1       0.448   2.635  19.078  0.00  0.00    +0.000 C 
ATOM     16  N   UNL     1       1.521   2.637  20.064  0.00  0.00    +0.000 N 
ATOM     17  N   UNL     1       1.355   2.771  21.367  0.00  0.00    +0.000 NA
ATOM     18  N   UNL     1       2.547   2.743  21.948  0.00  0.00    +0.000 NA
ATOM     19  N   UNL     1       3.493   2.592  21.029  0.00  0.00    +0.000 NA
ATOM     20  C   UNL     1       2.842   2.520  19.855  0.00  0.00    +0.000 A 
ENDBRANCH  14  20
ENDBRANCH  13  14
ENDBRANCH   1  13
TORSDOF 5
ENDMDL
MODEL 8
REMARK VINA RESULT:      -7.2      1.904      2.219
REMARK  Name = 
REMARK  6 active torsions:
REMARK  status: ('A' for Active; 'I' for Inactive)
REMARK    1  A    between atoms: C_1  and  N_2
REMARK    2  A    between atoms: C_6  and  SE_7
REMARK    3  A    between atoms: SE_7  and  C_8
REMARK    4  A    between atoms: C_8  and  C_9
REMARK    5  A    between atoms: C_12  and  N_13
REMARK    6  A    between atoms: C_17  and  N_18
REMARK                            x       y       z     vdW  Elec       q    Type
REMARK                         _______ _______ _______ _____ _____    ______ ____
ROOT
ATOM      1  C   UNL     1       4.569   5.599  17.956  0.00  0.00    +0.000 A 
ATOM      2  C   UNL     1       4.893   6.622  17.044  0.00  0.00    +0.000 A 
ATOM      3  C   UNL     1       5.609   6.357  15.878  0.00  0.00    +0.000 A 
ATOM      4  C   UNL     1       6.031   5.055  15.584  0.00  0.00    +0.000 A 
ATOM      5  C   UNL     1       5.716   4.023  16.484  0.00  0.00    +0.000 A 
ATOM      6  C   UNL     1       4.982   4.258  17.667  0.00  0.00    +0.000 A 
ENDROOT
BRANCH   4   7
ATOM      7  N   UNL     1       6.761   4.776  14.388  0.00  0.00    +0.000 N 
ATOM      8  O   UNL     1       6.440   3.871  13.678  0.00  0.00    +0.000 OA
ATOM      9  O   UNL     1       7.807   5.505  14.058  0.00  0.00    +0.000 OA
ENDBRANCH   4   7
BRANCH   6  10
ATOM     10  N   UNL     1       4.669   3.134  18.504  0.00  0.00    +0.000 N 
ATOM     11  O   UNL     1       5.075   3.057  19.622  0.00  0.00    +0.000 OA
ATOM     12  O   UNL     1       3.853   2.195  18.071  0.00  0.00    +0.000 OA
ENDBRANCH   6  10
BRANCH   1  13
ATOM     13  C   UNL     1       3.773   6.003  19.184  0.00  0.00    +0.000 C 
BRANCH  13  14
ATOM     14 SE   UNL     1       1.843   5.643  19.060  0.00  0.00    +0.000 Se
BRANCH  14  20
ATOM     15  C   UNL     1       0.588   2.499  18.993  0.00  0.00    +0.000 C 
ATOM     16  N   UNL     1       1.281   3.009  20.168  0.00  0.00    +0.000 N 
ATOM     17  N   UNL     1       1.470   2.338  21.290  0.00  0.00    +0.000 NA
ATOM     18  N   UNL     1       2.122   3.118  22.142  0.00  0.00    +0.000 NA
ATOM     19  N   UNL     1       2.360   4.298  21.582  0.00  0.00    +0.000 NA
ATOM     20  C   UNL     1       1.837   4.218  20.347  0.00  0.00    +0.000 A 
ENDBRANCH  14  20
ENDBRANCH  13  14
ENDBRANCH   1  13
TORSDOF 5
ENDMDL
MODEL 9
REMARK VINA RESULT:      -7.2      1.231      1.510
REMARK  Name = 
REMARK  6 active torsions:
REMARK  status: ('A' for Active; 'I' for Inactive)
REMARK    1  A    between atoms: C_1  and  N_2
REMARK    2  A    between atoms: C_6  and  SE_7
REMARK    3  A    between atoms: SE_7  and  C_8
REMARK    4  A    between atoms: C_8  and  C_9
REMARK    5  A    between atoms: C_12  and  N_13
REMARK    6  A    between atoms: C_17  and  N_18
REMARK                            x       y       z     vdW  Elec       q    Type
REMARK                         _______ _______ _______ _____ _____    ______ ____
ROOT
ATOM      1  C   UNL     1       5.433   4.779  17.112  0.00  0.00    +0.000 A 
ATOM      2  C   UNL     1       4.754   4.334  15.961  0.00  0.00    +0.000 A 
ATOM      3  C   UNL     1       5.358   4.360  14.705  0.00  0.00    +0.000 A 
ATOM      4  C   UNL     1       6.666   4.838  14.555  0.00  0.00    +0.000 A 
ATOM      5  C   UNL     1       7.356   5.285  15.694  0.00  0.00    +0.000 A 
ATOM      6  C   UNL     1       6.776   5.259  16.981  0.00  0.00    +0.000 A 
ENDROOT
BRANCH   4   7
ATOM      7  N   UNL     1       7.292   4.862  13.272  0.00  0.00    +0.000 N 
ATOM      8  O   UNL     1       8.138   5.668  13.025  0.00  0.00    +0.000 OA
ATOM      9  O   UNL     1       6.936   4.006  12.338  0.00  0.00    +0.000 OA
ENDBRANCH   4   7
BRANCH   6  10
ATOM     10  N   UNL     1       7.574   5.695  18.092  0.00  0.00    +0.000 N 
ATOM     11  O   UNL     1       7.753   6.852  18.315  0.00  0.00    +0.000 OA
ATOM     12  O   UNL     1       8.063   4.814  18.941  0.00  0.00    +0.000 OA
ENDBRANCH   6  10
BRANCH   1  13
ATOM     13  C   UNL     1       4.680   4.689  18.427  0.00  0.00    +0.000 C 
BRANCH  13  14
ATOM     14 SE   UNL     1       2.783   4.202  18.250  0.00  0.00    +0.000 Se
BRANCH  14  20
ATOM     15  C   UNL     1       4.482   1.889  20.048  0.00  0.00    +0.000 C 
ATOM     16  N   UNL     1       3.353   2.609  20.621  0.00  0.00    +0.000 N 
ATOM     17  N   UNL     1       2.879   2.432  21.841  0.00  0.00    +0.000 NA
ATOM     18  N   UNL     1       1.843   3.243  22.012  0.00  0.00    +0.000 NA
ATOM     19  N   UNL     1       1.637   3.949  20.908  0.00  0.00    +0.000 NA
ATOM     20  C   UNL     1       2.589   3.551  20.046  0.00  0.00    +0.000 A 
ENDBRANCH  14  20
ENDBRANCH  13  14
ENDBRANCH   1  13
TORSDOF 5
ENDMDL
