MODEL 1
REMARK VINA RESULT:      -8.4      0.000      0.000
REMARK  Name = 
REMARK  7 active torsions:
REMARK  status: ('A' for Active; 'I' for Inactive)
REMARK    1  A    between atoms: C_1  and  C_2
REMARK    2  A    between atoms: C_2  and  O_3
REMARK    3  A    between atoms: O_3  and  C_4
REMARK    4  A    between atoms: C_4  and  C_6
REMARK    5  A    between atoms: C_8  and  N_9
REMARK    6  A    between atoms: C_15  and  C_16
REMARK    7  A    between atoms: C_27  and  C_28
REMARK                            x       y       z     vdW  Elec       q    Type
REMARK                         _______ _______ _______ _____ _____    ______ ____
ROOT
ATOM      1  N   UNL     1       0.871   8.875  21.838  0.00  0.00    +0.000 NA
ATOM      2  C   UNL     1       1.328   8.586  20.665  0.00  0.00    +0.000 C 
ATOM      3  N   UNL     1       1.297   9.343  19.532  0.00  0.00    +0.000 N 
ATOM      4  C   UNL     1       1.860   8.837  18.401  0.00  0.00    +0.000 C 
ATOM      5  O   UNL     1       1.873   9.400  17.321  0.00  0.00    +0.000 OA
ATOM      6  C   UNL     1       2.432   7.503  18.685  0.00  0.00    +0.000 C 
ATOM      7  C   UNL     1       3.093   6.813  17.746  0.00  0.00    +0.000 C 
ATOM      8  S   UNL     1       2.117   7.062  20.326  0.00  0.00    +0.000 S 
ATOM      9  H   UNL     1       0.860  10.255  19.525  0.00  0.00    +0.000 HD
ENDROOT
BRANCH   7  10
ATOM     10  C   UNL     1       3.639   5.509  17.901  0.00  0.00    +0.000 A 
ATOM     11  C   UNL     1       4.979   5.209  17.843  0.00  0.00    +0.000 A 
ATOM     12  N   UNL     1       5.113   3.869  18.097  0.00  0.00    +0.000 N 
ATOM     13  C   UNL     1       3.874   3.288  18.271  0.00  0.00    +0.000 A 
ATOM     14  C   UNL     1       3.527   1.960  18.547  0.00  0.00    +0.000 A 
ATOM     15  C   UNL     1       2.166   1.656  18.652  0.00  0.00    +0.000 A 
ATOM     16  C   UNL     1       1.193   2.637  18.483  0.00  0.00    +0.000 A 
ATOM     17  C   UNL     1       1.557   3.962  18.222  0.00  0.00    +0.000 A 
ATOM     18  C   UNL     1       2.923   4.299  18.121  0.00  0.00    +0.000 A 
ATOM     19  H   UNL     1       5.990   3.370  18.148  0.00  0.00    +0.000 HD
ENDBRANCH   7  10
BRANCH   1  22
ATOM     20  C   UNL     1      -1.082  11.977  22.707  0.00  0.00    +0.000 A 
ATOM     21  S   UNL     1      -1.021  10.294  23.064  0.00  0.00    +0.000 S 
ATOM     22  C   UNL     1       0.316  10.103  21.999  0.00  0.00    +0.000 A 
ATOM     23  N   UNL     1       0.714  11.226  21.437  0.00  0.00    +0.000 NA
ATOM     24  C   UNL     1      -0.047  12.302  21.852  0.00  0.00    +0.000 A 
ATOM     25  C   UNL     1       0.366  13.649  21.380  0.00  0.00    +0.000 C 
BRANCH  20  26
ATOM     26  C   UNL     1      -2.113  12.788  23.293  0.00  0.00    +0.000 C 
ATOM     27  O   UNL     1      -1.947  13.895  23.807  0.00  0.00    +0.000 OA
BRANCH  26  28
ATOM     28  O   UNL     1      -3.300  12.117  23.332  0.00  0.00    +0.000 OA
BRANCH  28  30
ATOM     29  C   UNL     1      -5.479  12.911  23.929  0.00  0.00    +0.000 C 
ATOM     30  C   UNL     1      -4.129  12.451  24.452  0.00  0.00    +0.000 C 
ENDBRANCH  28  30
ENDBRANCH  26  28
ENDBRANCH  20  26
ENDBRANCH   1  22
TORSDOF 5
ENDMDL
MODEL 2
REMARK VINA RESULT:      -7.9      0.903      1.333
REMARK  Name = 
REMARK  7 active torsions:
REMARK  status: ('A' for Active; 'I' for Inactive)
REMARK    1  A    between atoms: C_1  and  C_2
REMARK    2  A    between atoms: C_2  and  O_3
REMARK    3  A    between atoms: O_3  and  C_4
REMARK    4  A    between atoms: C_4  and  C_6
REMARK    5  A    between atoms: C_8  and  N_9
REMARK    6  A    between atoms: C_15  and  C_16
REMARK    7  A    between atoms: C_27  and  C_28
REMARK                            x       y       z     vdW  Elec       q    Type
REMARK                         _______ _______ _______ _____ _____    ______ ____
ROOT
ATOM      1  N   UNL     1       0.893   8.991  21.790  0.00  0.00    +0.000 NA
ATOM      2  C   UNL     1       1.351   8.650  20.632  0.00  0.00    +0.000 C 
ATOM      3  N   UNL     1       1.360   9.374  19.476  0.00  0.00    +0.000 N 
ATOM      4  C   UNL     1       1.916   8.812  18.367  0.00  0.00    +0.000 C 
ATOM      5  O   UNL     1       1.961   9.342  17.271  0.00  0.00    +0.000 OA
ATOM      6  C   UNL     1       2.434   7.467  18.697  0.00  0.00    +0.000 C 
ATOM      7  C   UNL     1       3.078   6.725  17.787  0.00  0.00    +0.000 C 
ATOM      8  S   UNL     1       2.085   7.088  20.347  0.00  0.00    +0.000 S 
ATOM      9  H   UNL     1       0.959  10.301  19.437  0.00  0.00    +0.000 HD
ENDROOT
BRANCH   7  10
ATOM     10  C   UNL     1       3.573   5.407  17.987  0.00  0.00    +0.000 A 
ATOM     11  C   UNL     1       4.902   5.056  17.960  0.00  0.00    +0.000 A 
ATOM     12  N   UNL     1       4.982   3.720  18.252  0.00  0.00    +0.000 N 
ATOM     13  C   UNL     1       3.720   3.190  18.422  0.00  0.00    +0.000 A 
ATOM     14  C   UNL     1       3.319   1.884  18.729  0.00  0.00    +0.000 A 
ATOM     15  C   UNL     1       1.946   1.633  18.820  0.00  0.00    +0.000 A 
ATOM     16  C   UNL     1       1.013   2.645  18.608  0.00  0.00    +0.000 A 
ATOM     17  C   UNL     1       1.431   3.947  18.316  0.00  0.00    +0.000 A 
ATOM     18  C   UNL     1       2.809   4.230  18.228  0.00  0.00    +0.000 A 
ATOM     19  H   UNL     1       5.838   3.191  18.332  0.00  0.00    +0.000 HD
ENDBRANCH   7  10
BRANCH   1  22
ATOM     20  C   UNL     1      -0.947  12.189  22.547  0.00  0.00    +0.000 A 
ATOM     21  S   UNL     1      -0.951  10.518  22.959  0.00  0.00    +0.000 S 
ATOM     22  C   UNL     1       0.383  10.243  21.908  0.00  0.00    +0.000 A 
ATOM     23  N   UNL     1       0.824  11.332  21.312  0.00  0.00    +0.000 NA
ATOM     24  C   UNL     1       0.102  12.448  21.687  0.00  0.00    +0.000 A 
ATOM     25  C   UNL     1       0.567  13.763  21.174  0.00  0.00    +0.000 C 
BRANCH  20  26
ATOM     26  C   UNL     1      -1.951  13.057  23.101  0.00  0.00    +0.000 C 
ATOM     27  O   UNL     1      -3.128  13.109  22.742  0.00  0.00    +0.000 OA
BRANCH  26  28
ATOM     28  O   UNL     1      -1.404  13.926  23.998  0.00  0.00    +0.000 OA
BRANCH  28  30
ATOM     29  C   UNL     1      -1.426  16.303  24.295  0.00  0.00    +0.000 C 
ATOM     30  C   UNL     1      -2.253  15.029  24.342  0.00  0.00    +0.000 C 
ENDBRANCH  28  30
ENDBRANCH  26  28
ENDBRANCH  20  26
ENDBRANCH   1  22
TORSDOF 5
ENDMDL
MODEL 3
REMARK VINA RESULT:      -7.8      3.354     10.345
REMARK  Name = 
REMARK  7 active torsions:
REMARK  status: ('A' for Active; 'I' for Inactive)
REMARK    1  A    between atoms: C_1  and  C_2
REMARK    2  A    between atoms: C_2  and  O_3
REMARK    3  A    between atoms: O_3  and  C_4
REMARK    4  A    between atoms: C_4  and  C_6
REMARK    5  A    between atoms: C_8  and  N_9
REMARK    6  A    between atoms: C_15  and  C_16
REMARK    7  A    between atoms: C_27  and  C_28
REMARK                            x       y       z     vdW  Elec       q    Type
REMARK                         _______ _______ _______ _____ _____    ______ ____
ROOT
ATOM      1  N   UNL     1       3.167   8.060  17.219  0.00  0.00    +0.000 NA
ATOM      2  C   UNL     1       2.429   8.412  18.217  0.00  0.00    +0.000 C 
ATOM      3  N   UNL     1       2.256   7.776  19.411  0.00  0.00    +0.000 N 
ATOM      4  C   UNL     1       1.432   8.346  20.333  0.00  0.00    +0.000 C 
ATOM      5  O   UNL     1       1.173   7.865  21.422  0.00  0.00    +0.000 OA
ATOM      6  C   UNL     1       0.894   9.616  19.802  0.00  0.00    +0.000 C 
ATOM      7  C   UNL     1       0.096  10.399  20.540  0.00  0.00    +0.000 C 
ATOM      8  S   UNL     1       1.464   9.870  18.189  0.00  0.00    +0.000 S 
ATOM      9  H   UNL     1       2.720   6.899  19.608  0.00  0.00    +0.000 HD
ENDROOT
BRANCH   7  10
ATOM     10  C   UNL     1      -0.508  11.613  20.110  0.00  0.00    +0.000 A 
ATOM     11  C   UNL     1      -1.795  11.724  19.640  0.00  0.00    +0.000 A 
ATOM     12  N   UNL     1      -2.027  13.051  19.384  0.00  0.00    +0.000 N 
ATOM     13  C   UNL     1      -0.892  13.793  19.636  0.00  0.00    +0.000 A 
ATOM     14  C   UNL     1      -0.666  15.169  19.517  0.00  0.00    +0.000 A 
ATOM     15  C   UNL     1       0.613  15.644  19.828  0.00  0.00    +0.000 A 
ATOM     16  C   UNL     1       1.623  14.777  20.237  0.00  0.00    +0.000 A 
ATOM     17  C   UNL     1       1.376  13.407  20.364  0.00  0.00    +0.000 A 
ATOM     18  C   UNL     1       0.093  12.902  20.066  0.00  0.00    +0.000 A 
ATOM     19  H   UNL     1      -2.900  13.436  19.055  0.00  0.00    +0.000 HD
ENDBRANCH   7  10
BRANCH   1  22
ATOM     20  C   UNL     1       5.737   5.316  17.462  0.00  0.00    +0.000 A 
ATOM     21  S   UNL     1       5.606   6.993  17.095  0.00  0.00    +0.000 S 
ATOM     22  C   UNL     1       3.908   6.932  17.366  0.00  0.00    +0.000 A 
ATOM     23  N   UNL     1       3.470   5.746  17.737  0.00  0.00    +0.000 NA
ATOM     24  C   UNL     1       4.498   4.828  17.828  0.00  0.00    +0.000 A 
ATOM     25  C   UNL     1       4.160   3.477  18.345  0.00  0.00    +0.000 C 
BRANCH  20  26
ATOM     26  C   UNL     1       7.016   4.668  17.359  0.00  0.00    +0.000 C 
ATOM     27  O   UNL     1       7.757   4.395  18.305  0.00  0.00    +0.000 OA
BRANCH  26  28
ATOM     28  O   UNL     1       7.379   4.505  16.055  0.00  0.00    +0.000 OA
BRANCH  28  30
ATOM     29  C   UNL     1       6.514   4.312  13.829  0.00  0.00    +0.000 C 
ATOM     30  C   UNL     1       6.414   3.806  15.258  0.00  0.00    +0.000 C 
ENDBRANCH  28  30
ENDBRANCH  26  28
ENDBRANCH  20  26
ENDBRANCH   1  22
TORSDOF 5
ENDMDL
MODEL 4
REMARK VINA RESULT:      -7.6      3.170      9.607
REMARK  Name = 
REMARK  7 active torsions:
REMARK  status: ('A' for Active; 'I' for Inactive)
REMARK    1  A    between atoms: C_1  and  C_2
REMARK    2  A    between atoms: C_2  and  O_3
REMARK    3  A    between atoms: O_3  and  C_4
REMARK    4  A    between atoms: C_4  and  C_6
REMARK    5  A    between atoms: C_8  and  N_9
REMARK    6  A    between atoms: C_15  and  C_16
REMARK    7  A    between atoms: C_27  and  C_28
REMARK                            x       y       z     vdW  Elec       q    Type
REMARK                         _______ _______ _______ _____ _____    ______ ____
ROOT
ATOM      1  N   UNL     1       2.343   7.495  17.759  0.00  0.00    +0.000 NA
ATOM      2  C   UNL     1       1.871   8.183  18.743  0.00  0.00    +0.000 C 
ATOM      3  N   UNL     1       1.856   7.866  20.070  0.00  0.00    +0.000 N 
ATOM      4  C   UNL     1       1.314   8.761  20.941  0.00  0.00    +0.000 C 
ATOM      5  O   UNL     1       1.215   8.586  22.142  0.00  0.00    +0.000 OA
ATOM      6  C   UNL     1       0.856   9.959  20.204  0.00  0.00    +0.000 C 
ATOM      7  C   UNL     1       0.332  11.013  20.843  0.00  0.00    +0.000 C 
ATOM      8  S   UNL     1       1.123   9.747  18.509  0.00  0.00    +0.000 S 
ATOM      9  H   UNL     1       2.228   6.987  20.401  0.00  0.00    +0.000 HD
ENDROOT
BRANCH   7  10
ATOM     10  C   UNL     1      -0.178  12.189  20.227  0.00  0.00    +0.000 A 
ATOM     11  C   UNL     1      -1.508  12.428  19.974  0.00  0.00    +0.000 A 
ATOM     12  N   UNL     1      -1.605  13.683  19.431  0.00  0.00    +0.000 N 
ATOM     13  C   UNL     1      -0.353  14.241  19.286  0.00  0.00    +0.000 A 
ATOM     14  C   UNL     1       0.029  15.490  18.782  0.00  0.00    +0.000 A 
ATOM     15  C   UNL     1       1.397  15.779  18.738  0.00  0.00    +0.000 A 
ATOM     16  C   UNL     1       2.343  14.855  19.174  0.00  0.00    +0.000 A 
ATOM     17  C   UNL     1       1.944  13.617  19.687  0.00  0.00    +0.000 A 
ATOM     18  C   UNL     1       0.570  13.304  19.753  0.00  0.00    +0.000 A 
ATOM     19  H   UNL     1      -2.468  14.139  19.170  0.00  0.00    +0.000 HD
ENDBRANCH   7  10
BRANCH   1  22
ATOM     20  C   UNL     1       3.415   3.950  18.445  0.00  0.00    +0.000 A 
ATOM     21  S   UNL     1       2.039   4.855  17.945  0.00  0.00    +0.000 S 
ATOM     22  C   UNL     1       2.941   6.315  18.060  0.00  0.00    +0.000 A 
ATOM     23  N   UNL     1       4.196   6.138  18.417  0.00  0.00    +0.000 NA
ATOM     24  C   UNL     1       4.490   4.802  18.608  0.00  0.00    +0.000 A 
ATOM     25  C   UNL     1       5.903   4.451  18.906  0.00  0.00    +0.000 C 
BRANCH  20  26
ATOM     26  C   UNL     1       3.301   2.527  18.619  0.00  0.00    +0.000 C 
ATOM     27  O   UNL     1       3.828   1.675  17.902  0.00  0.00    +0.000 OA
BRANCH  26  28
ATOM     28  O   UNL     1       2.417   2.225  19.612  0.00  0.00    +0.000 OA
BRANCH  28  30
ATOM     29  C   UNL     1       1.637   2.979  21.747  0.00  0.00    +0.000 C 
ATOM     30  C   UNL     1       2.856   2.596  20.925  0.00  0.00    +0.000 C 
ENDBRANCH  28  30
ENDBRANCH  26  28
ENDBRANCH  20  26
ENDBRANCH   1  22
TORSDOF 5
ENDMDL
MODEL 5
REMARK VINA RESULT:      -7.5      1.199      1.371
REMARK  Name = 
REMARK  7 active torsions:
REMARK  status: ('A' for Active; 'I' for Inactive)
REMARK    1  A    between atoms: C_1  and  C_2
REMARK    2  A    between atoms: C_2  and  O_3
REMARK    3  A    between atoms: O_3  and  C_4
REMARK    4  A    between atoms: C_4  and  C_6
REMARK    5  A    between atoms: C_8  and  N_9
REMARK    6  A    between atoms: C_15  and  C_16
REMARK    7  A    between atoms: C_27  and  C_28
REMARK                            x       y       z     vdW  Elec       q    Type
REMARK                         _______ _______ _______ _____ _____    ______ ____
ROOT
ATOM      1  N   UNL     1       0.693   9.416  21.995  0.00  0.00    +0.000 NA
ATOM      2  C   UNL     1       1.148   9.016  20.856  0.00  0.00    +0.000 C 
ATOM      3  N   UNL     1       1.129   9.669  19.658  0.00  0.00    +0.000 N 
ATOM      4  C   UNL     1       1.689   9.055  18.580  0.00  0.00    +0.000 C 
ATOM      5  O   UNL     1       1.711   9.518  17.453  0.00  0.00    +0.000 OA
ATOM      6  C   UNL     1       2.243   7.745  18.984  0.00  0.00    +0.000 C 
ATOM      7  C   UNL     1       2.897   6.965  18.114  0.00  0.00    +0.000 C 
ATOM      8  S   UNL     1       1.918   7.459  20.658  0.00  0.00    +0.000 S 
ATOM      9  H   UNL     1       0.704  10.582  19.567  0.00  0.00    +0.000 HD
ENDROOT
BRANCH   7  10
ATOM     10  C   UNL     1       3.426   5.674  18.388  0.00  0.00    +0.000 A 
ATOM     11  C   UNL     1       4.761   5.394  18.559  0.00  0.00    +0.000 A 
ATOM     12  N   UNL     1       4.868   4.062  18.863  0.00  0.00    +0.000 N 
ATOM     13  C   UNL     1       3.625   3.465  18.845  0.00  0.00    +0.000 A 
ATOM     14  C   UNL     1       3.254   2.138  19.091  0.00  0.00    +0.000 A 
ATOM     15  C   UNL     1       1.897   1.814  18.978  0.00  0.00    +0.000 A 
ATOM     16  C   UNL     1       0.954   2.776  18.628  0.00  0.00    +0.000 A 
ATOM     17  C   UNL     1       1.340   4.100  18.398  0.00  0.00    +0.000 A 
ATOM     18  C   UNL     1       2.699   4.457  18.516  0.00  0.00    +0.000 A 
ATOM     19  H   UNL     1       5.730   3.579  19.070  0.00  0.00    +0.000 HD
ENDBRANCH   7  10
BRANCH   1  22
ATOM     20  C   UNL     1      -1.280  12.586  22.496  0.00  0.00    +0.000 A 
ATOM     21  S   UNL     1      -1.315  10.914  22.904  0.00  0.00    +0.000 S 
ATOM     22  C   UNL     1       0.153  10.660  22.044  0.00  0.00    +0.000 A 
ATOM     23  N   UNL     1       0.655  11.756  21.513  0.00  0.00    +0.000 NA
ATOM     24  C   UNL     1      -0.127  12.861  21.787  0.00  0.00    +0.000 A 
ATOM     25  C   UNL     1       0.383  14.184  21.341  0.00  0.00    +0.000 C 
BRANCH  20  26
ATOM     26  C   UNL     1      -2.362  13.437  22.908  0.00  0.00    +0.000 C 
ATOM     27  O   UNL     1      -2.744  13.597  24.068  0.00  0.00    +0.000 OA
BRANCH  26  28
ATOM     28  O   UNL     1      -3.015  13.956  21.828  0.00  0.00    +0.000 OA
BRANCH  28  30
ATOM     29  C   UNL     1      -2.952  16.270  21.213  0.00  0.00    +0.000 C 
ATOM     30  C   UNL     1      -3.640  15.223  22.071  0.00  0.00    +0.000 C 
ENDBRANCH  28  30
ENDBRANCH  26  28
ENDBRANCH  20  26
ENDBRANCH   1  22
TORSDOF 5
ENDMDL
MODEL 6
REMARK VINA RESULT:      -7.4      1.119      1.791
REMARK  Name = 
REMARK  7 active torsions:
REMARK  status: ('A' for Active; 'I' for Inactive)
REMARK    1  A    between atoms: C_1  and  C_2
REMARK    2  A    between atoms: C_2  and  O_3
REMARK    3  A    between atoms: O_3  and  C_4
REMARK    4  A    between atoms: C_4  and  C_6
REMARK    5  A    between atoms: C_8  and  N_9
REMARK    6  A    between atoms: C_15  and  C_16
REMARK    7  A    between atoms: C_27  and  C_28
REMARK                            x       y       z     vdW  Elec       q    Type
REMARK                         _______ _______ _______ _____ _____    ______ ____
ROOT
ATOM      1  N   UNL     1       0.289   8.839  21.494  0.00  0.00    +0.000 NA
ATOM      2  C   UNL     1       0.989   8.566  20.444  0.00  0.00    +0.000 C 
ATOM      3  N   UNL     1       1.134   9.301  19.305  0.00  0.00    +0.000 N 
ATOM      4  C   UNL     1       1.945   8.819  18.324  0.00  0.00    +0.000 C 
ATOM      5  O   UNL     1       2.135   9.365  17.252  0.00  0.00    +0.000 OA
ATOM      6  C   UNL     1       2.539   7.536  18.755  0.00  0.00    +0.000 C 
ATOM      7  C   UNL     1       3.419   6.881  17.987  0.00  0.00    +0.000 C 
ATOM      8  S   UNL     1       1.933   7.099  20.314  0.00  0.00    +0.000 S 
ATOM      9  H   UNL     1       0.646  10.179  19.185  0.00  0.00    +0.000 HD
ENDROOT
BRANCH   7  10
ATOM     10  C   UNL     1       4.012   5.623  18.287  0.00  0.00    +0.000 A 
ATOM     11  C   UNL     1       5.342   5.432  18.576  0.00  0.00    +0.000 A 
ATOM     12  N   UNL     1       5.514   4.103  18.865  0.00  0.00    +0.000 N 
ATOM     13  C   UNL     1       4.323   3.423  18.721  0.00  0.00    +0.000 A 
ATOM     14  C   UNL     1       4.026   2.068  18.908  0.00  0.00    +0.000 A 
ATOM     15  C   UNL     1       2.712   1.654  18.664  0.00  0.00    +0.000 A 
ATOM     16  C   UNL     1       1.738   2.557  18.244  0.00  0.00    +0.000 A 
ATOM     17  C   UNL     1       2.049   3.910  18.075  0.00  0.00    +0.000 A 
ATOM     18  C   UNL     1       3.363   4.356  18.324  0.00  0.00    +0.000 A 
ATOM     19  H   UNL     1       6.386   3.676  19.142  0.00  0.00    +0.000 HD
ENDBRANCH   7  10
BRANCH   1  22
ATOM     20  C   UNL     1      -1.565  12.045  22.184  0.00  0.00    +0.000 A 
ATOM     21  S   UNL     1      -0.907  10.682  23.002  0.00  0.00    +0.000 S 
ATOM     22  C   UNL     1      -0.370  10.026  21.506  0.00  0.00    +0.000 A 
ATOM     23  N   UNL     1      -0.634  10.788  20.465  0.00  0.00    +0.000 NA
ATOM     24  C   UNL     1      -1.282  11.951  20.835  0.00  0.00    +0.000 A 
ATOM     25  C   UNL     1      -1.541  12.955  19.770  0.00  0.00    +0.000 C 
BRANCH  20  26
ATOM     26  C   UNL     1      -2.271  13.048  22.933  0.00  0.00    +0.000 C 
ATOM     27  O   UNL     1      -3.215  12.837  23.696  0.00  0.00    +0.000 OA
BRANCH  26  28
ATOM     28  O   UNL     1      -1.851  14.300  22.593  0.00  0.00    +0.000 OA
BRANCH  28  30
ATOM     29  C   UNL     1       0.263  15.341  22.165  0.00  0.00    +0.000 C 
ATOM     30  C   UNL     1      -0.624  14.699  23.218  0.00  0.00    +0.000 C 
ENDBRANCH  28  30
ENDBRANCH  26  28
ENDBRANCH  20  26
ENDBRANCH   1  22
TORSDOF 5
ENDMDL
MODEL 7
REMARK VINA RESULT:      -7.4      3.103      9.939
REMARK  Name = 
REMARK  7 active torsions:
REMARK  status: ('A' for Active; 'I' for Inactive)
REMARK    1  A    between atoms: C_1  and  C_2
REMARK    2  A    between atoms: C_2  and  O_3
REMARK    3  A    between atoms: O_3  and  C_4
REMARK    4  A    between atoms: C_4  and  C_6
REMARK    5  A    between atoms: C_8  and  N_9
REMARK    6  A    between atoms: C_15  and  C_16
REMARK    7  A    between atoms: C_27  and  C_28
REMARK                            x       y       z     vdW  Elec       q    Type
REMARK                         _______ _______ _______ _____ _____    ______ ____
ROOT
ATOM      1  N   UNL     1       1.913   8.364  18.416  0.00  0.00    +0.000 NA
ATOM      2  C   UNL     1       1.476   9.152  19.340  0.00  0.00    +0.000 C 
ATOM      3  N   UNL     1       1.409   8.930  20.684  0.00  0.00    +0.000 N 
ATOM      4  C   UNL     1       0.921   9.922  21.479  0.00  0.00    +0.000 C 
ATOM      5  O   UNL     1       0.784   9.837  22.686  0.00  0.00    +0.000 OA
ATOM      6  C   UNL     1       0.574  11.097  20.652  0.00  0.00    +0.000 C 
ATOM      7  C   UNL     1       0.121  12.230  21.205  0.00  0.00    +0.000 C 
ATOM      8  S   UNL     1       0.858  10.749  18.982  0.00  0.00    +0.000 S 
ATOM      9  H   UNL     1       1.704   8.049  21.083  0.00  0.00    +0.000 HD
ENDROOT
BRANCH   7  10
ATOM     10  C   UNL     1      -0.282  13.397  20.499  0.00  0.00    +0.000 A 
ATOM     11  C   UNL     1      -1.586  13.801  20.333  0.00  0.00    +0.000 A 
ATOM     12  N   UNL     1      -1.564  14.992  19.654  0.00  0.00    +0.000 N 
ATOM     13  C   UNL     1      -0.268  15.340  19.337  0.00  0.00    +0.000 A 
ATOM     14  C   UNL     1       0.228  16.458  18.656  0.00  0.00    +0.000 A 
ATOM     15  C   UNL     1       1.611  16.535  18.461  0.00  0.00    +0.000 A 
ATOM     16  C   UNL     1       2.461  15.533  18.923  0.00  0.00    +0.000 A 
ATOM     17  C   UNL     1       1.949  14.429  19.612  0.00  0.00    +0.000 A 
ATOM     18  C   UNL     1       0.560  14.331  19.832  0.00  0.00    +0.000 A 
ATOM     19  H   UNL     1      -2.378  15.540  19.415  0.00  0.00    +0.000 HD
ENDBRANCH   7  10
BRANCH   1  22
ATOM     20  C   UNL     1       3.741   5.128  19.032  0.00  0.00    +0.000 A 
ATOM     21  S   UNL     1       3.780   6.508  18.004  0.00  0.00    +0.000 S 
ATOM     22  C   UNL     1       2.410   7.164  18.811  0.00  0.00    +0.000 A 
ATOM     23  N   UNL     1       1.970   6.419  19.804  0.00  0.00    +0.000 NA
ATOM     24  C   UNL     1       2.732   5.278  19.963  0.00  0.00    +0.000 A 
ATOM     25  C   UNL     1       2.413   4.402  21.120  0.00  0.00    +0.000 C 
BRANCH  20  26
ATOM     26  C   UNL     1       4.686   4.065  18.826  0.00  0.00    +0.000 C 
ATOM     27  O   UNL     1       5.805   3.994  19.336  0.00  0.00    +0.000 OA
BRANCH  26  28
ATOM     28  O   UNL     1       4.242   3.193  17.876  0.00  0.00    +0.000 OA
BRANCH  28  30
ATOM     29  C   UNL     1       2.101   2.135  18.053  0.00  0.00    +0.000 C 
ATOM     30  C   UNL     1       3.576   2.038  18.402  0.00  0.00    +0.000 C 
ENDBRANCH  28  30
ENDBRANCH  26  28
ENDBRANCH  20  26
ENDBRANCH   1  22
TORSDOF 5
ENDMDL
MODEL 8
REMARK VINA RESULT:      -7.3      3.093     10.221
REMARK  Name = 
REMARK  7 active torsions:
REMARK  status: ('A' for Active; 'I' for Inactive)
REMARK    1  A    between atoms: C_1  and  C_2
REMARK    2  A    between atoms: C_2  and  O_3
REMARK    3  A    between atoms: O_3  and  C_4
REMARK    4  A    between atoms: C_4  and  C_6
REMARK    5  A    between atoms: C_8  and  N_9
REMARK    6  A    between atoms: C_15  and  C_16
REMARK    7  A    between atoms: C_27  and  C_28
REMARK                            x       y       z     vdW  Elec       q    Type
REMARK                         _______ _______ _______ _____ _____    ______ ____
ROOT
ATOM      1  N   UNL     1       2.194   8.173  17.762  0.00  0.00    +0.000 NA
ATOM      2  C   UNL     1       1.694   8.765  18.793  0.00  0.00    +0.000 C 
ATOM      3  N   UNL     1       1.692   8.351  20.092  0.00  0.00    +0.000 N 
ATOM      4  C   UNL     1       1.113   9.155  21.026  0.00  0.00    +0.000 C 
ATOM      5  O   UNL     1       1.021   8.887  22.211  0.00  0.00    +0.000 OA
ATOM      6  C   UNL     1       0.605  10.383  20.378  0.00  0.00    +0.000 C 
ATOM      7  C   UNL     1       0.037  11.364  21.092  0.00  0.00    +0.000 C 
ATOM      8  S   UNL     1       0.880  10.309  18.673  0.00  0.00    +0.000 S 
ATOM      9  H   UNL     1       2.101   7.465  20.359  0.00  0.00    +0.000 HD
ENDROOT
BRANCH   7  10
ATOM     10  C   UNL     1      -0.523  12.560  20.563  0.00  0.00    +0.000 A 
ATOM     11  C   UNL     1      -1.869  12.826  20.480  0.00  0.00    +0.000 A 
ATOM     12  N   UNL     1      -2.009  14.092  19.974  0.00  0.00    +0.000 N 
ATOM     13  C   UNL     1      -0.773  14.631  19.684  0.00  0.00    +0.000 A 
ATOM     14  C   UNL     1      -0.432  15.883  19.157  0.00  0.00    +0.000 A 
ATOM     15  C   UNL     1       0.925  16.149  18.948  0.00  0.00    +0.000 A 
ATOM     16  C   UNL     1       1.900  15.201  19.249  0.00  0.00    +0.000 A 
ATOM     17  C   UNL     1       1.543  13.961  19.788  0.00  0.00    +0.000 A 
ATOM     18  C   UNL     1       0.182  13.670  20.018  0.00  0.00    +0.000 A 
ATOM     19  H   UNL     1      -2.888  14.568  19.830  0.00  0.00    +0.000 HD
ENDBRANCH   7  10
BRANCH   1  22
ATOM     20  C   UNL     1       4.497   5.205  18.041  0.00  0.00    +0.000 A 
ATOM     21  S   UNL     1       4.454   6.805  17.409  0.00  0.00    +0.000 S 
ATOM     22  C   UNL     1       2.842   6.999  17.976  0.00  0.00    +0.000 A 
ATOM     23  N   UNL     1       2.375   5.951  18.624  0.00  0.00    +0.000 NA
ATOM     24  C   UNL     1       3.312   4.938  18.697  0.00  0.00    +0.000 A 
ATOM     25  C   UNL     1       2.955   3.738  19.499  0.00  0.00    +0.000 C 
BRANCH  20  26
ATOM     26  C   UNL     1       5.667   4.394  17.836  0.00  0.00    +0.000 C 
ATOM     27  O   UNL     1       6.689   4.428  18.521  0.00  0.00    +0.000 OA
BRANCH  26  28
ATOM     28  O   UNL     1       5.560   3.663  16.689  0.00  0.00    +0.000 OA
BRANCH  28  30
ATOM     29  C   UNL     1       5.677   4.531  14.460  0.00  0.00    +0.000 C 
ATOM     30  C   UNL     1       6.478   4.048  15.657  0.00  0.00    +0.000 C 
ENDBRANCH  28  30
ENDBRANCH  26  28
ENDBRANCH  20  26
ENDBRANCH   1  22
TORSDOF 5
ENDMDL
MODEL 9
REMARK VINA RESULT:      -7.3      1.673      1.736
REMARK  Name = 
REMARK  7 active torsions:
REMARK  status: ('A' for Active; 'I' for Inactive)
REMARK    1  A    between atoms: C_1  and  C_2
REMARK    2  A    between atoms: C_2  and  O_3
REMARK    3  A    between atoms: O_3  and  C_4
REMARK    4  A    between atoms: C_4  and  C_6
REMARK    5  A    between atoms: C_8  and  N_9
REMARK    6  A    between atoms: C_15  and  C_16
REMARK    7  A    between atoms: C_27  and  C_28
REMARK                            x       y       z     vdW  Elec       q    Type
REMARK                         _______ _______ _______ _____ _____    ______ ____
ROOT
ATOM      1  N   UNL     1       0.447  10.047  22.314  0.00  0.00    +0.000 NA
ATOM      2  C   UNL     1       0.845   9.533  21.198  0.00  0.00    +0.000 C 
ATOM      3  N   UNL     1       0.717  10.037  19.938  0.00  0.00    +0.000 N 
ATOM      4  C   UNL     1       1.233   9.321  18.901  0.00  0.00    +0.000 C 
ATOM      5  O   UNL     1       1.160   9.648  17.730  0.00  0.00    +0.000 OA
ATOM      6  C   UNL     1       1.873   8.092  19.415  0.00  0.00    +0.000 C 
ATOM      7  C   UNL     1       2.504   7.239  18.596  0.00  0.00    +0.000 C 
ATOM      8  S   UNL     1       1.673   7.993  21.129  0.00  0.00    +0.000 S 
ATOM      9  H   UNL     1       0.245  10.916  19.772  0.00  0.00    +0.000 HD
ENDROOT
BRANCH   7  10
ATOM     10  C   UNL     1       3.110   6.012  18.980  0.00  0.00    +0.000 A 
ATOM     11  C   UNL     1       4.445   5.718  18.836  0.00  0.00    +0.000 A 
ATOM     12  N   UNL     1       4.654   4.473  19.372  0.00  0.00    +0.000 N 
ATOM     13  C   UNL     1       3.464   3.938  19.818  0.00  0.00    +0.000 A 
ATOM     14  C   UNL     1       3.197   2.707  20.429  0.00  0.00    +0.000 A 
ATOM     15  C   UNL     1       1.867   2.423  20.760  0.00  0.00    +0.000 A 
ATOM     16  C   UNL     1       0.848   3.331  20.486  0.00  0.00    +0.000 A 
ATOM     17  C   UNL     1       1.133   4.562  19.888  0.00  0.00    +0.000 A 
ATOM     18  C   UNL     1       2.466   4.878  19.553  0.00  0.00    +0.000 A 
ATOM     19  H   UNL     1       5.548   4.007  19.432  0.00  0.00    +0.000 HD
ENDBRANCH   7  10
BRANCH   1  22
ATOM     20  C   UNL     1      -1.682  13.148  22.508  0.00  0.00    +0.000 A 
ATOM     21  S   UNL     1      -1.671  11.504  23.016  0.00  0.00    +0.000 S 
ATOM     22  C   UNL     1      -0.146  11.266  22.255  0.00  0.00    +0.000 A 
ATOM     23  N   UNL     1       0.340  12.350  21.687  0.00  0.00    +0.000 NA
ATOM     24  C   UNL     1      -0.502  13.433  21.848  0.00  0.00    +0.000 A 
ATOM     25  C   UNL     1      -0.023  14.749  21.351  0.00  0.00    +0.000 C 
BRANCH  20  26
ATOM     26  C   UNL     1      -2.821  13.973  22.807  0.00  0.00    +0.000 C 
ATOM     27  O   UNL     1      -3.158  14.346  23.931  0.00  0.00    +0.000 OA
BRANCH  26  28
ATOM     28  O   UNL     1      -3.573  14.190  21.691  0.00  0.00    +0.000 OA
BRANCH  28  30
ATOM     29  C   UNL     1      -4.445  12.656  20.070  0.00  0.00    +0.000 C 
ATOM     30  C   UNL     1      -4.601  13.214  21.475  0.00  0.00    +0.000 C 
ENDBRANCH  28  30
ENDBRANCH  26  28
ENDBRANCH  20  26
ENDBRANCH   1  22
TORSDOF 5
ENDMDL
