MODEL 1
REMARK VINA RESULT:      -6.8      0.000      0.000
REMARK  Name = 
REMARK  5 active torsions:
REMARK  status: ('A' for Active; 'I' for Inactive)
REMARK    1  A    between atoms: C_1  and  S_2
REMARK    2  A    between atoms: S_2  and  N_5
REMARK    3  A    between atoms: N_5  and  C_6
REMARK    4  A    between atoms: N_10  and  C_11
REMARK    5  A    between atoms: C_14  and  C_15
REMARK                            x       y       z     vdW  Elec       q    Type
REMARK                         _______ _______ _______ _____ _____    ______ ____
ROOT
ATOM      1  C   UNL     1       4.979   4.596  18.546  0.00  0.00    +0.000 C 
ATOM      2  C   UNL     1       4.171   3.410  17.984  0.00  0.00    +0.000 C 
ATOM      3  C   UNL     1       2.794   3.840  17.475  0.00  0.00    +0.000 C 
ATOM      4  C   UNL     1       2.010   4.613  18.535  0.00  0.00    +0.000 C 
ATOM      5  N   UNL     1       2.811   5.741  19.028  0.00  0.00    +0.000 N 
ATOM      6  C   UNL     1       4.117   5.336  19.595  0.00  0.00    +0.000 C 
ENDROOT
BRANCH   5   7
ATOM      7  C   UNL     1       2.356   7.050  19.025  0.00  0.00    +0.000 A 
ATOM      8  C   UNL     1       2.412   7.874  17.894  0.00  0.00    +0.000 A 
ATOM      9  C   UNL     1       1.883   9.167  17.872  0.00  0.00    +0.000 A 
ATOM     10  C   UNL     1       1.335   9.666  19.036  0.00  0.00    +0.000 A 
ATOM     11  N   UNL     1       1.278   8.955  20.177  0.00  0.00    +0.000 NA
ATOM     12  C   UNL     1       1.779   7.687  20.132  0.00  0.00    +0.000 A 
BRANCH  10  13
ATOM     13  C   UNL     1       0.806  10.998  19.083  0.00  0.00    +0.000 C 
ATOM     14  N   UNL     1       0.338  12.060  19.129  0.00  0.00    +0.000 NA
ENDBRANCH  10  13
ENDBRANCH   5   7
BRANCH   1  15
ATOM     15  N   UNL     1       5.423   5.465  17.395  0.00  0.00    +0.000 NA
ATOM     16  H   UNL     1       4.815   5.294  16.591  0.00  0.00    +0.000 HD
BRANCH  15  18
ATOM     17  C   UNL     1       6.811   4.314  15.400  0.00  0.00    +0.000 C 
ATOM     18  S   UNL     1       7.032   5.272  16.882  0.00  0.00    +0.000 S 
ATOM     19  O   UNL     1       7.666   4.439  17.877  0.00  0.00    +0.000 OA
ATOM     20  O   UNL     1       7.592   6.543  16.508  0.00  0.00    +0.000 OA
ENDBRANCH  15  18
ENDBRANCH   1  15
TORSDOF 4
ENDMDL
MODEL 2
REMARK VINA RESULT:      -6.7      0.938      1.014
REMARK  Name = 
REMARK  5 active torsions:
REMARK  status: ('A' for Active; 'I' for Inactive)
REMARK    1  A    between atoms: C_1  and  S_2
REMARK    2  A    between atoms: S_2  and  N_5
REMARK    3  A    between atoms: N_5  and  C_6
REMARK    4  A    between atoms: N_10  and  C_11
REMARK    5  A    between atoms: C_14  and  C_15
REMARK                            x       y       z     vdW  Elec       q    Type
REMARK                         _______ _______ _______ _____ _____    ______ ____
ROOT
ATOM      1  C   UNL     1       4.952   4.518  18.136  0.00  0.00    +0.000 C 
ATOM      2  C   UNL     1       4.066   3.319  17.743  0.00  0.00    +0.000 C 
ATOM      3  C   UNL     1       2.627   3.739  17.440  0.00  0.00    +0.000 C 
ATOM      4  C   UNL     1       2.017   4.549  18.583  0.00  0.00    +0.000 C 
ATOM      5  N   UNL     1       2.884   5.688  18.911  0.00  0.00    +0.000 N 
ATOM      6  C   UNL     1       4.262   5.295  19.281  0.00  0.00    +0.000 C 
ENDROOT
BRANCH   5   7
ATOM      7  C   UNL     1       2.435   6.999  18.936  0.00  0.00    +0.000 A 
ATOM      8  C   UNL     1       2.530   7.859  17.834  0.00  0.00    +0.000 A 
ATOM      9  C   UNL     1       2.006   9.155  17.839  0.00  0.00    +0.000 A 
ATOM     10  C   UNL     1       1.424   9.618  19.000  0.00  0.00    +0.000 A 
ATOM     11  N   UNL     1       1.330   8.871  20.116  0.00  0.00    +0.000 NA
ATOM     12  C   UNL     1       1.826   7.602  20.045  0.00  0.00    +0.000 A 
BRANCH  10  13
ATOM     13  C   UNL     1       0.899  10.950  19.075  0.00  0.00    +0.000 C 
ATOM     14  N   UNL     1       0.444  12.018  19.105  0.00  0.00    +0.000 NA
ENDBRANCH  10  13
ENDBRANCH   5   7
BRANCH   1  15
ATOM     15  N   UNL     1       5.213   5.348  16.903  0.00  0.00    +0.000 NA
ATOM     16  H   UNL     1       4.876   4.842  16.080  0.00  0.00    +0.000 HD
BRANCH  15  18
ATOM     17  C   UNL     1       7.680   4.764  17.799  0.00  0.00    +0.000 C 
ATOM     18  S   UNL     1       6.830   5.787  16.619  0.00  0.00    +0.000 S 
ATOM     19  O   UNL     1       6.944   7.164  17.039  0.00  0.00    +0.000 OA
ATOM     20  O   UNL     1       7.235   5.374  15.302  0.00  0.00    +0.000 OA
ENDBRANCH  15  18
ENDBRANCH   1  15
TORSDOF 4
ENDMDL
MODEL 3
REMARK VINA RESULT:      -6.7      0.927      1.151
REMARK  Name = 
REMARK  5 active torsions:
REMARK  status: ('A' for Active; 'I' for Inactive)
REMARK    1  A    between atoms: C_1  and  S_2
REMARK    2  A    between atoms: S_2  and  N_5
REMARK    3  A    between atoms: N_5  and  C_6
REMARK    4  A    between atoms: N_10  and  C_11
REMARK    5  A    between atoms: C_14  and  C_15
REMARK                            x       y       z     vdW  Elec       q    Type
REMARK                         _______ _______ _______ _____ _____    ______ ____
ROOT
ATOM      1  C   UNL     1       4.947   4.325  18.563  0.00  0.00    +0.000 C 
ATOM      2  C   UNL     1       4.112   3.177  17.963  0.00  0.00    +0.000 C 
ATOM      3  C   UNL     1       2.774   3.665  17.408  0.00  0.00    +0.000 C 
ATOM      4  C   UNL     1       1.984   4.463  18.445  0.00  0.00    +0.000 C 
ATOM      5  N   UNL     1       2.810   5.555  18.975  0.00  0.00    +0.000 N 
ATOM      6  C   UNL     1       4.078   5.094  19.585  0.00  0.00    +0.000 C 
ENDROOT
BRANCH   5   7
ATOM      7  C   UNL     1       2.409   6.881  18.965  0.00  0.00    +0.000 A 
ATOM      8  C   UNL     1       2.521   7.703  17.836  0.00  0.00    +0.000 A 
ATOM      9  C   UNL     1       2.045   9.017  17.807  0.00  0.00    +0.000 A 
ATOM     10  C   UNL     1       1.496   9.536  18.960  0.00  0.00    +0.000 A 
ATOM     11  N   UNL     1       1.389   8.828  20.099  0.00  0.00    +0.000 NA
ATOM     12  C   UNL     1       1.837   7.540  20.062  0.00  0.00    +0.000 A 
BRANCH  10  13
ATOM     13  C   UNL     1       1.020  10.888  18.999  0.00  0.00    +0.000 C 
ATOM     14  N   UNL     1       0.669  11.994  19.056  0.00  0.00    +0.000 NA
ENDBRANCH  10  13
ENDBRANCH   5   7
BRANCH   1  15
ATOM     15  N   UNL     1       5.467   5.182  17.435  0.00  0.00    +0.000 NA
ATOM     16  H   UNL     1       5.080   4.845  16.551  0.00  0.00    +0.000 HD
BRANCH  15  18
ATOM     17  C   UNL     1       7.457   6.984  17.591  0.00  0.00    +0.000 C 
ATOM     18  S   UNL     1       7.156   5.262  17.267  0.00  0.00    +0.000 S 
ATOM     19  O   UNL     1       7.427   5.003  15.873  0.00  0.00    +0.000 OA
ATOM     20  O   UNL     1       7.797   4.498  18.305  0.00  0.00    +0.000 OA
ENDBRANCH  15  18
ENDBRANCH   1  15
TORSDOF 4
ENDMDL
MODEL 4
REMARK VINA RESULT:      -6.6      3.621      6.538
REMARK  Name = 
REMARK  5 active torsions:
REMARK  status: ('A' for Active; 'I' for Inactive)
REMARK    1  A    between atoms: C_1  and  S_2
REMARK    2  A    between atoms: S_2  and  N_5
REMARK    3  A    between atoms: N_5  and  C_6
REMARK    4  A    between atoms: N_10  and  C_11
REMARK    5  A    between atoms: C_14  and  C_15
REMARK                            x       y       z     vdW  Elec       q    Type
REMARK                         _______ _______ _______ _____ _____    ______ ____
ROOT
ATOM      1  C   UNL     1       2.697   5.139  19.837  0.00  0.00    +0.000 C 
ATOM      2  C   UNL     1       2.135   6.571  19.942  0.00  0.00    +0.000 C 
ATOM      3  C   UNL     1       2.314   7.358  18.644  0.00  0.00    +0.000 C 
ATOM      4  C   UNL     1       3.766   7.348  18.167  0.00  0.00    +0.000 C 
ATOM      5  N   UNL     1       4.252   5.967  18.064  0.00  0.00    +0.000 N 
ATOM      6  C   UNL     1       4.157   5.211  19.333  0.00  0.00    +0.000 C 
ENDROOT
BRANCH   5   7
ATOM      7  C   UNL     1       4.809   5.444  16.908  0.00  0.00    +0.000 A 
ATOM      8  C   UNL     1       4.983   4.069  16.699  0.00  0.00    +0.000 A 
ATOM      9  C   UNL     1       5.473   3.542  15.501  0.00  0.00    +0.000 A 
ATOM     10  C   UNL     1       5.853   4.422  14.509  0.00  0.00    +0.000 A 
ATOM     11  N   UNL     1       5.758   5.758  14.645  0.00  0.00    +0.000 NA
ATOM     12  C   UNL     1       5.240   6.217  15.821  0.00  0.00    +0.000 A 
BRANCH  10  13
ATOM     13  C   UNL     1       6.394   3.941  13.272  0.00  0.00    +0.000 C 
ATOM     14  N   UNL     1       6.820   3.510  12.281  0.00  0.00    +0.000 NA
ENDBRANCH  10  13
ENDBRANCH   5   7
BRANCH   1  15
ATOM     15  N   UNL     1       1.783   4.328  18.951  0.00  0.00    +0.000 NA
ATOM     16  H   UNL     1       0.871   4.787  18.899  0.00  0.00    +0.000 HD
BRANCH  15  18
ATOM     17  C   UNL     1       1.338   2.879  21.173  0.00  0.00    +0.000 C 
ATOM     18  S   UNL     1       1.527   2.712  19.412  0.00  0.00    +0.000 S 
ATOM     19  O   UNL     1       2.768   2.025  19.147  0.00  0.00    +0.000 OA
ATOM     20  O   UNL     1       0.280   2.233  18.877  0.00  0.00    +0.000 OA
ENDBRANCH  15  18
ENDBRANCH   1  15
TORSDOF 4
ENDMDL
MODEL 5
REMARK VINA RESULT:      -6.5      1.128      1.681
REMARK  Name = 
REMARK  5 active torsions:
REMARK  status: ('A' for Active; 'I' for Inactive)
REMARK    1  A    between atoms: C_1  and  S_2
REMARK    2  A    between atoms: S_2  and  N_5
REMARK    3  A    between atoms: N_5  and  C_6
REMARK    4  A    between atoms: N_10  and  C_11
REMARK    5  A    between atoms: C_14  and  C_15
REMARK                            x       y       z     vdW  Elec       q    Type
REMARK                         _______ _______ _______ _____ _____    ______ ____
ROOT
ATOM      1  C   UNL     1       5.103   4.651  18.608  0.00  0.00    +0.000 C 
ATOM      2  C   UNL     1       4.359   3.455  17.983  0.00  0.00    +0.000 C 
ATOM      3  C   UNL     1       3.022   3.866  17.365  0.00  0.00    +0.000 C 
ATOM      4  C   UNL     1       2.145   4.627  18.359  0.00  0.00    +0.000 C 
ATOM      5  N   UNL     1       2.888   5.766  18.914  0.00  0.00    +0.000 N 
ATOM      6  C   UNL     1       4.150   5.378  19.584  0.00  0.00    +0.000 C 
ENDROOT
BRANCH   5   7
ATOM      7  C   UNL     1       2.417   7.068  18.875  0.00  0.00    +0.000 A 
ATOM      8  C   UNL     1       1.828   7.700  19.978  0.00  0.00    +0.000 A 
ATOM      9  C   UNL     1       1.425   9.038  19.957  0.00  0.00    +0.000 A 
ATOM     10  C   UNL     1       1.564   9.742  18.780  0.00  0.00    +0.000 A 
ATOM     11  N   UNL     1       2.081   9.198  17.663  0.00  0.00    +0.000 NA
ATOM     12  C   UNL     1       2.490   7.900  17.749  0.00  0.00    +0.000 A 
BRANCH  10  13
ATOM     13  C   UNL     1       1.137  11.108  18.689  0.00  0.00    +0.000 C 
ATOM     14  N   UNL     1       0.816  12.219  18.580  0.00  0.00    +0.000 NA
ENDBRANCH  10  13
ENDBRANCH   5   7
BRANCH   1  15
ATOM     15  N   UNL     1       5.626   5.527  17.496  0.00  0.00    +0.000 NA
ATOM     16  H   UNL     1       5.254   5.195  16.604  0.00  0.00    +0.000 HD
BRANCH  15  18
ATOM     17  C   UNL     1       7.788   6.012  19.020  0.00  0.00    +0.000 C 
ATOM     18  S   UNL     1       7.317   5.629  17.349  0.00  0.00    +0.000 S 
ATOM     19  O   UNL     1       7.572   6.786  16.524  0.00  0.00    +0.000 OA
ATOM     20  O   UNL     1       7.867   4.341  17.019  0.00  0.00    +0.000 OA
ENDBRANCH  15  18
ENDBRANCH   1  15
TORSDOF 4
ENDMDL
MODEL 6
REMARK VINA RESULT:      -6.5      3.179      3.785
REMARK  Name = 
REMARK  5 active torsions:
REMARK  status: ('A' for Active; 'I' for Inactive)
REMARK    1  A    between atoms: C_1  and  S_2
REMARK    2  A    between atoms: S_2  and  N_5
REMARK    3  A    between atoms: N_5  and  C_6
REMARK    4  A    between atoms: N_10  and  C_11
REMARK    5  A    between atoms: C_14  and  C_15
REMARK                            x       y       z     vdW  Elec       q    Type
REMARK                         _______ _______ _______ _____ _____    ______ ____
ROOT
ATOM      1  C   UNL     1       3.516   3.932  18.549  0.00  0.00    +0.000 C 
ATOM      2  C   UNL     1       5.016   4.021  18.205  0.00  0.00    +0.000 C 
ATOM      3  C   UNL     1       5.570   5.432  18.405  0.00  0.00    +0.000 C 
ATOM      4  C   UNL     1       4.749   6.479  17.653  0.00  0.00    +0.000 C 
ATOM      5  N   UNL     1       3.333   6.368  18.024  0.00  0.00    +0.000 N 
ATOM      6  C   UNL     1       2.758   5.029  17.766  0.00  0.00    +0.000 C 
ENDROOT
BRANCH   5   7
ATOM      7  C   UNL     1       2.591   7.435  18.504  0.00  0.00    +0.000 A 
ATOM      8  C   UNL     1       2.232   8.533  17.711  0.00  0.00    +0.000 A 
ATOM      9  C   UNL     1       1.418   9.570  18.177  0.00  0.00    +0.000 A 
ATOM     10  C   UNL     1       1.003   9.531  19.491  0.00  0.00    +0.000 A 
ATOM     11  N   UNL     1       1.338   8.534  20.332  0.00  0.00    +0.000 NA
ATOM     12  C   UNL     1       2.104   7.531  19.815  0.00  0.00    +0.000 A 
BRANCH  10  13
ATOM     13  C   UNL     1       0.195  10.583  20.034  0.00  0.00    +0.000 C 
ATOM     14  N   UNL     1      -0.474  11.408  20.505  0.00  0.00    +0.000 NA
ENDBRANCH  10  13
ENDBRANCH   5   7
BRANCH   1  15
ATOM     15  N   UNL     1       3.359   4.028  20.047  0.00  0.00    +0.000 NA
ATOM     16  H   UNL     1       4.180   3.618  20.497  0.00  0.00    +0.000 HD
BRANCH  15  18
ATOM     17  C   UNL     1       1.661   2.013  19.512  0.00  0.00    +0.000 C 
ATOM     18  S   UNL     1       1.978   3.290  20.708  0.00  0.00    +0.000 S 
ATOM     19  O   UNL     1       0.924   4.273  20.620  0.00  0.00    +0.000 OA
ATOM     20  O   UNL     1       2.303   2.655  21.958  0.00  0.00    +0.000 OA
ENDBRANCH  15  18
ENDBRANCH   1  15
TORSDOF 4
ENDMDL
MODEL 7
REMARK VINA RESULT:      -6.4      2.671      3.343
REMARK  Name = 
REMARK  5 active torsions:
REMARK  status: ('A' for Active; 'I' for Inactive)
REMARK    1  A    between atoms: C_1  and  S_2
REMARK    2  A    between atoms: S_2  and  N_5
REMARK    3  A    between atoms: N_5  and  C_6
REMARK    4  A    between atoms: N_10  and  C_11
REMARK    5  A    between atoms: C_14  and  C_15
REMARK                            x       y       z     vdW  Elec       q    Type
REMARK                         _______ _______ _______ _____ _____    ______ ____
ROOT
ATOM      1  C   UNL     1       4.738   3.681  17.414  0.00  0.00    +0.000 C 
ATOM      2  C   UNL     1       5.974   4.175  16.637  0.00  0.00    +0.000 C 
ATOM      3  C   UNL     1       6.244   5.662  16.867  0.00  0.00    +0.000 C 
ATOM      4  C   UNL     1       5.009   6.517  16.580  0.00  0.00    +0.000 C 
ATOM      5  N   UNL     1       3.864   6.021  17.353  0.00  0.00    +0.000 N 
ATOM      6  C   UNL     1       3.540   4.602  17.086  0.00  0.00    +0.000 C 
ENDROOT
BRANCH   5   7
ATOM      7  C   UNL     1       3.117   6.825  18.199  0.00  0.00    +0.000 A 
ATOM      8  C   UNL     1       2.648   8.093  17.829  0.00  0.00    +0.000 A 
ATOM      9  C   UNL     1       1.831   8.868  18.656  0.00  0.00    +0.000 A 
ATOM     10  C   UNL     1       1.526   8.382  19.911  0.00  0.00    +0.000 A 
ATOM     11  N   UNL     1       1.970   7.193  20.359  0.00  0.00    +0.000 NA
ATOM     12  C   UNL     1       2.735   6.463  19.498  0.00  0.00    +0.000 A 
BRANCH  10  13
ATOM     13  C   UNL     1       0.718   9.147  20.815  0.00  0.00    +0.000 C 
ATOM     14  N   UNL     1       0.029   9.747  21.532  0.00  0.00    +0.000 NA
ENDBRANCH  10  13
ENDBRANCH   5   7
BRANCH   1  15
ATOM     15  N   UNL     1       5.084   3.624  18.882  0.00  0.00    +0.000 NA
ATOM     16  H   UNL     1       6.087   3.458  18.984  0.00  0.00    +0.000 HD
BRANCH  15  18
ATOM     17  C   UNL     1       3.659   1.371  18.531  0.00  0.00    +0.000 C 
ATOM     18  S   UNL     1       4.265   2.454  19.804  0.00  0.00    +0.000 S 
ATOM     19  O   UNL     1       3.141   3.137  20.399  0.00  0.00    +0.000 OA
ATOM     20  O   UNL     1       5.198   1.712  20.609  0.00  0.00    +0.000 OA
ENDBRANCH  15  18
ENDBRANCH   1  15
TORSDOF 4
ENDMDL
MODEL 8
REMARK VINA RESULT:      -6.4      0.680      1.127
REMARK  Name = 
REMARK  5 active torsions:
REMARK  status: ('A' for Active; 'I' for Inactive)
REMARK    1  A    between atoms: C_1  and  S_2
REMARK    2  A    between atoms: S_2  and  N_5
REMARK    3  A    between atoms: N_5  and  C_6
REMARK    4  A    between atoms: N_10  and  C_11
REMARK    5  A    between atoms: C_14  and  C_15
REMARK                            x       y       z     vdW  Elec       q    Type
REMARK                         _______ _______ _______ _____ _____    ______ ____
ROOT
ATOM      1  C   UNL     1       5.102   4.497  18.314  0.00  0.00    +0.000 C 
ATOM      2  C   UNL     1       4.316   3.322  17.699  0.00  0.00    +0.000 C 
ATOM      3  C   UNL     1       2.905   3.731  17.274  0.00  0.00    +0.000 C 
ATOM      4  C   UNL     1       2.136   4.397  18.415  0.00  0.00    +0.000 C 
ATOM      5  N   UNL     1       2.914   5.519  18.956  0.00  0.00    +0.000 N 
ATOM      6  C   UNL     1       4.256   5.128  19.444  0.00  0.00    +0.000 C 
ENDROOT
BRANCH   5   7
ATOM      7  C   UNL     1       2.412   6.806  19.063  0.00  0.00    +0.000 A 
ATOM      8  C   UNL     1       1.791   7.289  20.223  0.00  0.00    +0.000 A 
ATOM      9  C   UNL     1       1.355   8.610  20.354  0.00  0.00    +0.000 A 
ATOM     10  C   UNL     1       1.493   9.452  19.270  0.00  0.00    +0.000 A 
ATOM     11  N   UNL     1       2.040   9.057  18.106  0.00  0.00    +0.000 NA
ATOM     12  C   UNL     1       2.480   7.767  18.045  0.00  0.00    +0.000 A 
BRANCH  10  13
ATOM     13  C   UNL     1       1.035  10.809  19.335  0.00  0.00    +0.000 C 
ATOM     14  N   UNL     1       0.674  11.909  19.429  0.00  0.00    +0.000 NA
ENDBRANCH  10  13
ENDBRANCH   5   7
BRANCH   1  15
ATOM     15  N   UNL     1       5.467   5.460  17.211  0.00  0.00    +0.000 NA
ATOM     16  H   UNL     1       4.824   5.332  16.426  0.00  0.00    +0.000 HD
BRANCH  15  18
ATOM     17  C   UNL     1       6.783   4.492  15.075  0.00  0.00    +0.000 C 
ATOM     18  S   UNL     1       7.052   5.350  16.609  0.00  0.00    +0.000 S 
ATOM     19  O   UNL     1       7.756   4.468  17.511  0.00  0.00    +0.000 OA
ATOM     20  O   UNL     1       7.560   6.660  16.300  0.00  0.00    +0.000 OA
ENDBRANCH  15  18
ENDBRANCH   1  15
TORSDOF 4
ENDMDL
MODEL 9
REMARK VINA RESULT:      -6.3      2.683      3.425
REMARK  Name = 
REMARK  5 active torsions:
REMARK  status: ('A' for Active; 'I' for Inactive)
REMARK    1  A    between atoms: C_1  and  S_2
REMARK    2  A    between atoms: S_2  and  N_5
REMARK    3  A    between atoms: N_5  and  C_6
REMARK    4  A    between atoms: N_10  and  C_11
REMARK    5  A    between atoms: C_14  and  C_15
REMARK                            x       y       z     vdW  Elec       q    Type
REMARK                         _______ _______ _______ _____ _____    ______ ____
ROOT
ATOM      1  C   UNL     1       4.934   3.763  17.448  0.00  0.00    +0.000 C 
ATOM      2  C   UNL     1       6.258   4.290  16.862  0.00  0.00    +0.000 C 
ATOM      3  C   UNL     1       6.507   5.755  17.222  0.00  0.00    +0.000 C 
ATOM      4  C   UNL     1       5.322   6.644  16.843  0.00  0.00    +0.000 C 
ATOM      5  N   UNL     1       4.088   6.115  17.436  0.00  0.00    +0.000 N 
ATOM      6  C   UNL     1       3.791   4.721  17.038  0.00  0.00    +0.000 C 
ENDROOT
BRANCH   5   7
ATOM      7  C   UNL     1       3.248   6.873  18.236  0.00  0.00    +0.000 A 
ATOM      8  C   UNL     1       2.715   8.104  17.831  0.00  0.00    +0.000 A 
ATOM      9  C   UNL     1       1.807   8.828  18.608  0.00  0.00    +0.000 A 
ATOM     10  C   UNL     1       1.472   8.331  19.850  0.00  0.00    +0.000 A 
ATOM     11  N   UNL     1       1.971   7.178  20.332  0.00  0.00    +0.000 NA
ATOM     12  C   UNL     1       2.825   6.494  19.517  0.00  0.00    +0.000 A 
BRANCH  10  13
ATOM     13  C   UNL     1       0.571   9.047  20.706  0.00  0.00    +0.000 C 
ATOM     14  N   UNL     1      -0.191   9.613  21.374  0.00  0.00    +0.000 NA
ENDBRANCH  10  13
ENDBRANCH   5   7
BRANCH   1  15
ATOM     15  N   UNL     1       5.096   3.607  18.941  0.00  0.00    +0.000 NA
ATOM     16  H   UNL     1       6.090   3.518  19.163  0.00  0.00    +0.000 HD
BRANCH  15  18
ATOM     17  C   UNL     1       2.957   3.125  20.498  0.00  0.00    +0.000 C 
ATOM     18  S   UNL     1       4.283   2.296  19.653  0.00  0.00    +0.000 S 
ATOM     19  O   UNL     1       5.191   1.758  20.640  0.00  0.00    +0.000 OA
ATOM     20  O   UNL     1       3.705   1.457  18.638  0.00  0.00    +0.000 OA
ENDBRANCH  15  18
ENDBRANCH   1  15
TORSDOF 4
ENDMDL
