MODEL 1
REMARK VINA RESULT:      -7.2      0.000      0.000
REMARK  Name = 
REMARK  6 active torsions:
REMARK  status: ('A' for Active; 'I' for Inactive)
REMARK    1  A    between atoms: C_1  and  C_2
REMARK    2  A    between atoms: C_2  and  C_3
REMARK    3  A    between atoms: C_6  and  C_7
REMARK    4  A    between atoms: C_7  and  N_8
REMARK    5  A    between atoms: C_9  and  C_11
REMARK    6  A    between atoms: N_16  and  C_17
REMARK                            x       y       z     vdW  Elec       q    Type
REMARK                         _______ _______ _______ _____ _____    ______ ____
ROOT
ATOM      1  N   UNL     1       1.103   9.190  19.147  0.00  0.00    +0.000 N 
ATOM      2  C   UNL     1       2.030   8.960  18.156  0.00  0.00    +0.000 C 
ATOM      3  O   UNL     1       2.488   9.859  17.460  0.00  0.00    +0.000 OA
ATOM      4  H   UNL     1       0.770   8.450  19.755  0.00  0.00    +0.000 HD
ENDROOT
BRANCH   2   5
ATOM      5  C   UNL     1       2.454   7.504  18.022  0.00  0.00    +0.000 C 
ATOM      6  C   UNL     1       3.882   7.388  17.463  0.00  0.00    +0.000 C 
ATOM      7  C   UNL     1       4.227   5.931  17.190  0.00  0.00    +0.000 C 
ATOM      8  C   UNL     1       3.932   5.069  18.374  0.00  0.00    +0.000 A 
ATOM      9  N   UNL     1       4.466   3.901  18.577  0.00  0.00    +0.000 NA
ATOM     10  N   UNL     1       3.871   3.480  19.742  0.00  0.00    +0.000 N 
ATOM     11  C   UNL     1       4.212   2.233  20.372  0.00  0.00    +0.000 C 
ATOM     12  C   UNL     1       2.985   4.452  20.225  0.00  0.00    +0.000 A 
ATOM     13  O   UNL     1       2.348   4.431  21.264  0.00  0.00    +0.000 OA
ATOM     14  N   UNL     1       3.014   5.451  19.280  0.00  0.00    +0.000 N 
ATOM     15  C   UNL     1       2.384   6.759  19.367  0.00  0.00    +0.000 C 
ENDBRANCH   2   5
BRANCH   1  16
ATOM     16  C   UNL     1       0.591  10.520  19.418  0.00  0.00    +0.000 C 
BRANCH  16  20
ATOM     17  C   UNL     1      -2.422  10.444  17.309  0.00  0.00    +0.000 A 
ATOM     18  C   UNL     1      -2.895  11.529  18.020  0.00  0.00    +0.000 A 
ATOM     19  S   UNL     1      -1.758  11.998  19.210  0.00  0.00    +0.000 S 
ATOM     20  C   UNL     1      -0.716  10.726  18.704  0.00  0.00    +0.000 A 
ATOM     21  N   UNL     1      -1.167   9.991  17.701  0.00  0.00    +0.000 NA
BRANCH  17  23
ATOM     22  C   UNL     1      -3.011  10.465  14.880  0.00  0.00    +0.000 C 
ATOM     23  C   UNL     1      -3.140   9.732  16.207  0.00  0.00    +0.000 C 
ENDBRANCH  17  23
ENDBRANCH  16  20
ENDBRANCH   1  16
TORSDOF 4
ENDMDL
MODEL 2
REMARK VINA RESULT:      -7.1      5.544      7.873
REMARK  Name = 
REMARK  6 active torsions:
REMARK  status: ('A' for Active; 'I' for Inactive)
REMARK    1  A    between atoms: C_1  and  C_2
REMARK    2  A    between atoms: C_2  and  C_3
REMARK    3  A    between atoms: C_6  and  C_7
REMARK    4  A    between atoms: C_7  and  N_8
REMARK    5  A    between atoms: C_9  and  C_11
REMARK    6  A    between atoms: N_16  and  C_17
REMARK                            x       y       z     vdW  Elec       q    Type
REMARK                         _______ _______ _______ _____ _____    ______ ____
ROOT
ATOM      1  N   UNL     1       6.100   4.409  14.931  0.00  0.00    +0.000 N 
ATOM      2  C   UNL     1       6.430   5.327  15.902  0.00  0.00    +0.000 C 
ATOM      3  O   UNL     1       7.387   6.085  15.793  0.00  0.00    +0.000 OA
ATOM      4  H   UNL     1       5.275   3.823  15.002  0.00  0.00    +0.000 HD
ENDROOT
BRANCH   2   5
ATOM      5  C   UNL     1       5.491   5.335  17.100  0.00  0.00    +0.000 C 
ATOM      6  C   UNL     1       4.419   6.427  16.960  0.00  0.00    +0.000 C 
ATOM      7  C   UNL     1       3.590   6.523  18.234  0.00  0.00    +0.000 C 
ATOM      8  C   UNL     1       3.087   5.182  18.659  0.00  0.00    +0.000 A 
ATOM      9  N   UNL     1       2.070   5.002  19.449  0.00  0.00    +0.000 NA
ATOM     10  N   UNL     1       2.014   3.636  19.586  0.00  0.00    +0.000 N 
ATOM     11  C   UNL     1       0.988   2.981  20.351  0.00  0.00    +0.000 C 
ATOM     12  C   UNL     1       3.023   3.021  18.831  0.00  0.00    +0.000 A 
ATOM     13  O   UNL     1       3.215   1.828  18.675  0.00  0.00    +0.000 OA
ATOM     14  N   UNL     1       3.732   4.063  18.282  0.00  0.00    +0.000 N 
ATOM     15  C   UNL     1       4.797   3.976  17.295  0.00  0.00    +0.000 C 
ENDBRANCH   2   5
BRANCH   1  16
ATOM     16  C   UNL     1       6.882   4.268  13.718  0.00  0.00    +0.000 C 
BRANCH  16  20
ATOM     17  C   UNL     1       4.440   2.931  11.314  0.00  0.00    +0.000 A 
ATOM     18  C   UNL     1       5.398   2.019  10.914  0.00  0.00    +0.000 A 
ATOM     19  S   UNL     1       6.835   2.235  11.817  0.00  0.00    +0.000 S 
ATOM     20  C   UNL     1       6.091   3.528  12.676  0.00  0.00    +0.000 A 
ATOM     21  N   UNL     1       4.841   3.790  12.331  0.00  0.00    +0.000 NA
BRANCH  17  23
ATOM     22  C   UNL     1       3.015   4.123   9.643  0.00  0.00    +0.000 C 
ATOM     23  C   UNL     1       3.066   3.072  10.742  0.00  0.00    +0.000 C 
ENDBRANCH  17  23
ENDBRANCH  16  20
ENDBRANCH   1  16
TORSDOF 4
ENDMDL
MODEL 3
REMARK VINA RESULT:      -7.1      2.542      3.228
REMARK  Name = 
REMARK  6 active torsions:
REMARK  status: ('A' for Active; 'I' for Inactive)
REMARK    1  A    between atoms: C_1  and  C_2
REMARK    2  A    between atoms: C_2  and  C_3
REMARK    3  A    between atoms: C_6  and  C_7
REMARK    4  A    between atoms: C_7  and  N_8
REMARK    5  A    between atoms: C_9  and  C_11
REMARK    6  A    between atoms: N_16  and  C_17
REMARK                            x       y       z     vdW  Elec       q    Type
REMARK                         _______ _______ _______ _____ _____    ______ ____
ROOT
ATOM      1  N   UNL     1       1.435   9.021  19.374  0.00  0.00    +0.000 N 
ATOM      2  C   UNL     1       1.987   8.714  18.151  0.00  0.00    +0.000 C 
ATOM      3  O   UNL     1       2.112   9.543  17.258  0.00  0.00    +0.000 OA
ATOM      4  H   UNL     1       1.386   8.344  20.128  0.00  0.00    +0.000 HD
ENDROOT
BRANCH   2   5
ATOM      5  C   UNL     1       2.450   7.270  18.018  0.00  0.00    +0.000 C 
ATOM      6  C   UNL     1       3.882   7.193  17.463  0.00  0.00    +0.000 C 
ATOM      7  C   UNL     1       4.267   5.744  17.191  0.00  0.00    +0.000 C 
ATOM      8  C   UNL     1       3.992   4.875  18.374  0.00  0.00    +0.000 A 
ATOM      9  N   UNL     1       4.556   3.723  18.579  0.00  0.00    +0.000 NA
ATOM     10  N   UNL     1       3.971   3.285  19.743  0.00  0.00    +0.000 N 
ATOM     11  C   UNL     1       4.343   2.048  20.374  0.00  0.00    +0.000 C 
ATOM     12  C   UNL     1       3.057   4.234  20.223  0.00  0.00    +0.000 A 
ATOM     13  O   UNL     1       2.418   4.195  21.260  0.00  0.00    +0.000 OA
ATOM     14  N   UNL     1       3.061   5.233  19.278  0.00  0.00    +0.000 N 
ATOM     15  C   UNL     1       2.397   6.523  19.363  0.00  0.00    +0.000 C 
ENDBRANCH   2   5
BRANCH   1  16
ATOM     16  C   UNL     1       0.946  10.352  19.677  0.00  0.00    +0.000 C 
BRANCH  16  20
ATOM     17  C   UNL     1      -1.061  10.919  22.706  0.00  0.00    +0.000 A 
ATOM     18  C   UNL     1      -0.434   9.826  23.274  0.00  0.00    +0.000 A 
ATOM     19  S   UNL     1       0.699   9.159  22.179  0.00  0.00    +0.000 S 
ATOM     20  C   UNL     1       0.279  10.363  21.023  0.00  0.00    +0.000 A 
ATOM     21  N   UNL     1      -0.643  11.227  21.417  0.00  0.00    +0.000 NA
BRANCH  17  23
ATOM     22  C   UNL     1      -2.968  12.484  22.307  0.00  0.00    +0.000 C 
ATOM     23  C   UNL     1      -2.130  11.748  23.342  0.00  0.00    +0.000 C 
ENDBRANCH  17  23
ENDBRANCH  16  20
ENDBRANCH   1  16
TORSDOF 4
ENDMDL
MODEL 4
REMARK VINA RESULT:      -7.1      6.092      8.063
REMARK  Name = 
REMARK  6 active torsions:
REMARK  status: ('A' for Active; 'I' for Inactive)
REMARK    1  A    between atoms: C_1  and  C_2
REMARK    2  A    between atoms: C_2  and  C_3
REMARK    3  A    between atoms: C_6  and  C_7
REMARK    4  A    between atoms: C_7  and  N_8
REMARK    5  A    between atoms: C_9  and  C_11
REMARK    6  A    between atoms: N_16  and  C_17
REMARK                            x       y       z     vdW  Elec       q    Type
REMARK                         _______ _______ _______ _____ _____    ______ ____
ROOT
ATOM      1  N   UNL     1       6.273   3.977  14.719  0.00  0.00    +0.000 N 
ATOM      2  C   UNL     1       6.620   4.822  15.749  0.00  0.00    +0.000 C 
ATOM      3  O   UNL     1       7.427   5.734  15.609  0.00  0.00    +0.000 OA
ATOM      4  H   UNL     1       5.564   3.260  14.827  0.00  0.00    +0.000 HD
ENDROOT
BRANCH   2   5
ATOM      5  C   UNL     1       5.897   4.542  17.059  0.00  0.00    +0.000 C 
ATOM      6  C   UNL     1       6.035   5.722  18.035  0.00  0.00    +0.000 C 
ATOM      7  C   UNL     1       5.443   5.360  19.391  0.00  0.00    +0.000 C 
ATOM      8  C   UNL     1       4.064   4.802  19.252  0.00  0.00    +0.000 A 
ATOM      9  N   UNL     1       3.189   4.773  20.213  0.00  0.00    +0.000 NA
ATOM     10  N   UNL     1       2.111   4.143  19.640  0.00  0.00    +0.000 N 
ATOM     11  C   UNL     1       0.875   3.939  20.346  0.00  0.00    +0.000 C 
ATOM     12  C   UNL     1       2.379   3.821  18.302  0.00  0.00    +0.000 A 
ATOM     13  O   UNL     1       1.621   3.321  17.489  0.00  0.00    +0.000 OA
ATOM     14  N   UNL     1       3.679   4.221  18.101  0.00  0.00    +0.000 N 
ATOM     15  C   UNL     1       4.403   4.248  16.840  0.00  0.00    +0.000 C 
ENDBRANCH   2   5
BRANCH   1  16
ATOM     16  C   UNL     1       6.859   4.104  13.399  0.00  0.00    +0.000 C 
BRANCH  16  20
ATOM     17  C   UNL     1       4.354   2.812  11.035  0.00  0.00    +0.000 A 
ATOM     18  C   UNL     1       5.240   1.799  10.717  0.00  0.00    +0.000 A 
ATOM     19  S   UNL     1       6.674   1.958  11.636  0.00  0.00    +0.000 S 
ATOM     20  C   UNL     1       6.026   3.362  12.391  0.00  0.00    +0.000 A 
ATOM     21  N   UNL     1       4.808   3.702  12.002  0.00  0.00    +0.000 NA
BRANCH  17  23
ATOM     22  C   UNL     1       2.945   4.321   9.628  0.00  0.00    +0.000 C 
ATOM     23  C   UNL     1       3.007   3.026  10.425  0.00  0.00    +0.000 C 
ENDBRANCH  17  23
ENDBRANCH  16  20
ENDBRANCH   1  16
TORSDOF 4
ENDMDL
MODEL 5
REMARK VINA RESULT:      -7.1      3.680      7.693
REMARK  Name = 
REMARK  6 active torsions:
REMARK  status: ('A' for Active; 'I' for Inactive)
REMARK    1  A    between atoms: C_1  and  C_2
REMARK    2  A    between atoms: C_2  and  C_3
REMARK    3  A    between atoms: C_6  and  C_7
REMARK    4  A    between atoms: C_7  and  N_8
REMARK    5  A    between atoms: C_9  and  C_11
REMARK    6  A    between atoms: N_16  and  C_17
REMARK                            x       y       z     vdW  Elec       q    Type
REMARK                         _______ _______ _______ _____ _____    ______ ____
ROOT
ATOM      1  N   UNL     1       2.479   7.656  18.780  0.00  0.00    +0.000 N 
ATOM      2  C   UNL     1       1.835   8.837  18.488  0.00  0.00    +0.000 C 
ATOM      3  O   UNL     1       2.007   9.439  17.435  0.00  0.00    +0.000 OA
ATOM      4  H   UNL     1       2.290   7.135  19.629  0.00  0.00    +0.000 HD
ENDROOT
BRANCH   2   5
ATOM      5  C   UNL     1       0.876   9.310  19.572  0.00  0.00    +0.000 C 
ATOM      6  C   UNL     1       1.222   8.686  20.934  0.00  0.00    +0.000 C 
ATOM      7  C   UNL     1       0.162   9.045  21.966  0.00  0.00    +0.000 C 
ATOM      8  C   UNL     1      -0.105  10.515  21.985  0.00  0.00    +0.000 A 
ATOM      9  N   UNL     1      -0.643  11.145  22.986  0.00  0.00    +0.000 NA
ATOM     10  N   UNL     1      -0.728  12.441  22.536  0.00  0.00    +0.000 N 
ATOM     11  C   UNL     1      -1.228  13.509  23.358  0.00  0.00    +0.000 C 
ATOM     12  C   UNL     1      -0.200  12.550  21.242  0.00  0.00    +0.000 A 
ATOM     13  O   UNL     1      -0.059  13.562  20.577  0.00  0.00    +0.000 OA
ATOM     14  N   UNL     1       0.149  11.266  20.898  0.00  0.00    +0.000 N 
ATOM     15  C   UNL     1       0.876  10.842  19.712  0.00  0.00    +0.000 C 
ENDBRANCH   2   5
BRANCH   1  16
ATOM     16  C   UNL     1       3.424   7.056  17.857  0.00  0.00    +0.000 C 
BRANCH  16  20
ATOM     17  C   UNL     1       2.392   3.537  18.142  0.00  0.00    +0.000 A 
ATOM     18  C   UNL     1       3.541   3.190  17.458  0.00  0.00    +0.000 A 
ATOM     19  S   UNL     1       4.450   4.589  17.079  0.00  0.00    +0.000 S 
ATOM     20  C   UNL     1       3.255   5.562  17.844  0.00  0.00    +0.000 A 
ATOM     21  N   UNL     1       2.236   4.900  18.367  0.00  0.00    +0.000 NA
BRANCH  17  23
ATOM     22  C   UNL     1       0.772   3.011  19.970  0.00  0.00    +0.000 C 
ATOM     23  C   UNL     1       1.333   2.596  18.619  0.00  0.00    +0.000 C 
ENDBRANCH  17  23
ENDBRANCH  16  20
ENDBRANCH   1  16
TORSDOF 4
ENDMDL
MODEL 6
REMARK VINA RESULT:      -6.9      3.753      7.767
REMARK  Name = 
REMARK  6 active torsions:
REMARK  status: ('A' for Active; 'I' for Inactive)
REMARK    1  A    between atoms: C_1  and  C_2
REMARK    2  A    between atoms: C_2  and  C_3
REMARK    3  A    between atoms: C_6  and  C_7
REMARK    4  A    between atoms: C_7  and  N_8
REMARK    5  A    between atoms: C_9  and  C_11
REMARK    6  A    between atoms: N_16  and  C_17
REMARK                            x       y       z     vdW  Elec       q    Type
REMARK                         _______ _______ _______ _____ _____    ______ ____
ROOT
ATOM      1  N   UNL     1       3.688   5.629  17.501  0.00  0.00    +0.000 N 
ATOM      2  C   UNL     1       3.167   5.897  18.746  0.00  0.00    +0.000 C 
ATOM      3  O   UNL     1       3.062   5.040  19.615  0.00  0.00    +0.000 OA
ATOM      4  H   UNL     1       3.824   6.354  16.805  0.00  0.00    +0.000 HD
ENDROOT
BRANCH   2   5
ATOM      5  C   UNL     1       2.762   7.350  18.954  0.00  0.00    +0.000 C 
ATOM      6  C   UNL     1       2.050   7.913  17.713  0.00  0.00    +0.000 C 
ATOM      7  C   UNL     1       1.795   9.405  17.879  0.00  0.00    +0.000 C 
ATOM      8  C   UNL     1       1.135   9.703  19.186  0.00  0.00    +0.000 A 
ATOM      9  N   UNL     1       0.462  10.787  19.433  0.00  0.00    +0.000 NA
ATOM     10  N   UNL     1       0.091  10.638  20.748  0.00  0.00    +0.000 N 
ATOM     11  C   UNL     1      -0.727  11.603  21.431  0.00  0.00    +0.000 C 
ATOM     12  C   UNL     1       0.553   9.416  21.256  0.00  0.00    +0.000 A 
ATOM     13  O   UNL     1       0.346   8.940  22.359  0.00  0.00    +0.000 OA
ATOM     14  N   UNL     1       1.272   8.858  20.225  0.00  0.00    +0.000 N 
ATOM     15  C   UNL     1       1.844   7.522  20.176  0.00  0.00    +0.000 C 
ENDBRANCH   2   5
BRANCH   1  16
ATOM     16  C   UNL     1       4.132   4.298  17.131  0.00  0.00    +0.000 C 
BRANCH  16  20
ATOM     17  C   UNL     1       6.316   4.193  14.174  0.00  0.00    +0.000 A 
ATOM     18  C   UNL     1       7.266   4.881  14.904  0.00  0.00    +0.000 A 
ATOM     19  S   UNL     1       6.691   5.184  16.487  0.00  0.00    +0.000 S 
ATOM     20  C   UNL     1       5.218   4.384  16.095  0.00  0.00    +0.000 A 
ATOM     21  N   UNL     1       5.145   3.904  14.865  0.00  0.00    +0.000 NA
BRANCH  17  23
ATOM     22  C   UNL     1       5.103   3.334  12.164  0.00  0.00    +0.000 C 
ATOM     23  C   UNL     1       6.440   3.772  12.745  0.00  0.00    +0.000 C 
ENDBRANCH  17  23
ENDBRANCH  16  20
ENDBRANCH   1  16
TORSDOF 4
ENDMDL
MODEL 7
REMARK VINA RESULT:      -6.9      3.762      7.792
REMARK  Name = 
REMARK  6 active torsions:
REMARK  status: ('A' for Active; 'I' for Inactive)
REMARK    1  A    between atoms: C_1  and  C_2
REMARK    2  A    between atoms: C_2  and  C_3
REMARK    3  A    between atoms: C_6  and  C_7
REMARK    4  A    between atoms: C_7  and  N_8
REMARK    5  A    between atoms: C_9  and  C_11
REMARK    6  A    between atoms: N_16  and  C_17
REMARK                            x       y       z     vdW  Elec       q    Type
REMARK                         _______ _______ _______ _____ _____    ______ ____
ROOT
ATOM      1  N   UNL     1       2.827   6.091  18.205  0.00  0.00    +0.000 N 
ATOM      2  C   UNL     1       2.436   6.348  19.500  0.00  0.00    +0.000 C 
ATOM      3  O   UNL     1       2.344   5.468  20.347  0.00  0.00    +0.000 OA
ATOM      4  H   UNL     1       2.954   6.831  17.524  0.00  0.00    +0.000 HD
ENDROOT
BRANCH   2   5
ATOM      5  C   UNL     1       2.157   7.816  19.789  0.00  0.00    +0.000 C 
ATOM      6  C   UNL     1       1.476   8.500  18.592  0.00  0.00    +0.000 C 
ATOM      7  C   UNL     1       1.349   9.998  18.839  0.00  0.00    +0.000 C 
ATOM      8  C   UNL     1       0.736  10.280  20.171  0.00  0.00    +0.000 A 
ATOM      9  N   UNL     1       0.160  11.402  20.485  0.00  0.00    +0.000 NA
ATOM     10  N   UNL     1      -0.203  11.216  21.797  0.00  0.00    +0.000 N 
ATOM     11  C   UNL     1      -0.927  12.208  22.544  0.00  0.00    +0.000 C 
ATOM     12  C   UNL     1       0.163   9.935  22.234  0.00  0.00    +0.000 A 
ATOM     13  O   UNL     1      -0.067   9.422  23.315  0.00  0.00    +0.000 OA
ATOM     14  N   UNL     1       0.817   9.374  21.163  0.00  0.00    +0.000 N 
ATOM     15  C   UNL     1       1.274   8.000  21.035  0.00  0.00    +0.000 C 
ENDBRANCH   2   5
BRANCH   1  16
ATOM     16  C   UNL     1       3.139   4.747  17.756  0.00  0.00    +0.000 C 
BRANCH  16  20
ATOM     17  C   UNL     1       6.350   4.603  15.969  0.00  0.00    +0.000 A 
ATOM     18  C   UNL     1       6.985   4.625  17.197  0.00  0.00    +0.000 A 
ATOM     19  S   UNL     1       5.831   4.681  18.459  0.00  0.00    +0.000 S 
ATOM     20  C   UNL     1       4.566   4.677  17.291  0.00  0.00    +0.000 A 
ATOM     21  N   UNL     1       4.962   4.625  16.030  0.00  0.00    +0.000 NA
BRANCH  17  23
ATOM     22  C   UNL     1       6.162   3.895  13.580  0.00  0.00    +0.000 C 
ATOM     23  C   UNL     1       7.020   4.580  14.633  0.00  0.00    +0.000 C 
ENDBRANCH  17  23
ENDBRANCH  16  20
ENDBRANCH   1  16
TORSDOF 4
ENDMDL
MODEL 8
REMARK VINA RESULT:      -6.8      3.553      7.690
REMARK  Name = 
REMARK  6 active torsions:
REMARK  status: ('A' for Active; 'I' for Inactive)
REMARK    1  A    between atoms: C_1  and  C_2
REMARK    2  A    between atoms: C_2  and  C_3
REMARK    3  A    between atoms: C_6  and  C_7
REMARK    4  A    between atoms: C_7  and  N_8
REMARK    5  A    between atoms: C_9  and  C_11
REMARK    6  A    between atoms: N_16  and  C_17
REMARK                            x       y       z     vdW  Elec       q    Type
REMARK                         _______ _______ _______ _____ _____    ______ ____
ROOT
ATOM      1  N   UNL     1       3.425   6.020  19.798  0.00  0.00    +0.000 N 
ATOM      2  C   UNL     1       2.576   6.667  18.930  0.00  0.00    +0.000 C 
ATOM      3  O   UNL     1       2.152   6.141  17.908  0.00  0.00    +0.000 OA
ATOM      4  H   UNL     1       3.728   6.441  20.670  0.00  0.00    +0.000 HD
ENDROOT
BRANCH   2   5
ATOM      5  C   UNL     1       2.192   8.075  19.364  0.00  0.00    +0.000 C 
ATOM      6  C   UNL     1       1.361   8.785  18.283  0.00  0.00    +0.000 C 
ATOM      7  C   UNL     1       1.122  10.239  18.667  0.00  0.00    +0.000 C 
ATOM      8  C   UNL     1       0.593  10.355  20.060  0.00  0.00    +0.000 A 
ATOM      9  N   UNL     1      -0.054  11.388  20.510  0.00  0.00    +0.000 NA
ATOM     10  N   UNL     1      -0.295  11.064  21.823  0.00  0.00    +0.000 N 
ATOM     11  C   UNL     1      -1.043  11.920  22.703  0.00  0.00    +0.000 C 
ATOM     12  C   UNL     1       0.216   9.792  22.120  0.00  0.00    +0.000 A 
ATOM     13  O   UNL     1       0.118   9.174  23.166  0.00  0.00    +0.000 OA
ATOM     14  N   UNL     1       0.831   9.384  20.960  0.00  0.00    +0.000 N 
ATOM     15  C   UNL     1       1.397   8.073  20.682  0.00  0.00    +0.000 C 
ENDBRANCH   2   5
BRANCH   1  16
ATOM     16  C   UNL     1       3.889   4.669  19.544  0.00  0.00    +0.000 C 
BRANCH  16  20
ATOM     17  C   UNL     1       6.381   4.459  16.847  0.00  0.00    +0.000 A 
ATOM     18  C   UNL     1       7.285   5.072  17.693  0.00  0.00    +0.000 A 
ATOM     19  S   UNL     1       6.556   5.391  19.208  0.00  0.00    +0.000 S 
ATOM     20  C   UNL     1       5.088   4.697  18.638  0.00  0.00    +0.000 A 
ATOM     21  N   UNL     1       5.124   4.239  17.397  0.00  0.00    +0.000 NA
BRANCH  17  23
ATOM     22  C   UNL     1       5.516   4.489  14.503  0.00  0.00    +0.000 C 
ATOM     23  C   UNL     1       6.637   4.050  15.432  0.00  0.00    +0.000 C 
ENDBRANCH  17  23
ENDBRANCH  16  20
ENDBRANCH   1  16
TORSDOF 4
ENDMDL
MODEL 9
REMARK VINA RESULT:      -6.8      2.987      4.505
REMARK  Name = 
REMARK  6 active torsions:
REMARK  status: ('A' for Active; 'I' for Inactive)
REMARK    1  A    between atoms: C_1  and  C_2
REMARK    2  A    between atoms: C_2  and  C_3
REMARK    3  A    between atoms: C_6  and  C_7
REMARK    4  A    between atoms: C_7  and  N_8
REMARK    5  A    between atoms: C_9  and  C_11
REMARK    6  A    between atoms: N_16  and  C_17
REMARK                            x       y       z     vdW  Elec       q    Type
REMARK                         _______ _______ _______ _____ _____    ______ ____
ROOT
ATOM      1  N   UNL     1       2.237   7.141  20.253  0.00  0.00    +0.000 N 
ATOM      2  C   UNL     1       2.166   5.771  20.138  0.00  0.00    +0.000 C 
ATOM      3  O   UNL     1       1.265   5.113  20.643  0.00  0.00    +0.000 OA
ATOM      4  H   UNL     1       2.955   7.684  19.786  0.00  0.00    +0.000 HD
ENDROOT
BRANCH   2   5
ATOM      5  C   UNL     1       3.285   5.155  19.309  0.00  0.00    +0.000 C 
ATOM      6  C   UNL     1       2.893   3.761  18.792  0.00  0.00    +0.000 C 
ATOM      7  C   UNL     1       4.078   3.099  18.102  0.00  0.00    +0.000 C 
ATOM      8  C   UNL     1       4.696   4.007  17.089  0.00  0.00    +0.000 A 
ATOM      9  N   UNL     1       5.440   3.601  16.105  0.00  0.00    +0.000 NA
ATOM     10  N   UNL     1       5.808   4.770  15.482  0.00  0.00    +0.000 N 
ATOM     11  C   UNL     1       6.610   4.787  14.290  0.00  0.00    +0.000 C 
ATOM     12  C   UNL     1       5.234   5.874  16.127  0.00  0.00    +0.000 A 
ATOM     13  O   UNL     1       5.299   7.046  15.798  0.00  0.00    +0.000 OA
ATOM     14  N   UNL     1       4.559   5.341  17.199  0.00  0.00    +0.000 N 
ATOM     15  C   UNL     1       3.669   6.041  18.112  0.00  0.00    +0.000 C 
ENDBRANCH   2   5
BRANCH   1  16
ATOM     16  C   UNL     1       1.250   7.895  21.002  0.00  0.00    +0.000 C 
BRANCH  16  20
ATOM     17  C   UNL     1       0.858  11.480  20.281  0.00  0.00    +0.000 A 
ATOM     18  C   UNL     1       1.042  11.187  18.943  0.00  0.00    +0.000 A 
ATOM     19  S   UNL     1       1.270   9.504  18.731  0.00  0.00    +0.000 S 
ATOM     20  C   UNL     1       1.114   9.278  20.431  0.00  0.00    +0.000 A 
ATOM     21  N   UNL     1       0.893  10.380  21.129  0.00  0.00    +0.000 NA
BRANCH  17  23
ATOM     22  C   UNL     1      -0.384  12.835  21.974  0.00  0.00    +0.000 C 
ATOM     23  C   UNL     1       0.655  12.842  20.863  0.00  0.00    +0.000 C 
ENDBRANCH  17  23
ENDBRANCH  16  20
ENDBRANCH   1  16
TORSDOF 4
ENDMDL
