MODEL 1
REMARK VINA RESULT:      -7.8      0.000      0.000
REMARK  Name = 
REMARK  14 active torsions:
REMARK  status: ('A' for Active; 'I' for Inactive)
REMARK    1  A    between atoms: C_1  and  C_2
REMARK    2  A    between atoms: C_2  and  C_3
REMARK    3  A    between atoms: C_2  and  C_4
REMARK    4  A    between atoms: C_2  and  C_5
REMARK    5  A    between atoms: C_8  and  C_9
REMARK    6  A    between atoms: C_9  and  N_10
REMARK    7  A    between atoms: C_11  and  S_12
REMARK    8  A    between atoms: N_13  and  C_14
REMARK    9  A    between atoms: C_14  and  C_15
REMARK   10  A    between atoms: C_18  and  N_19
REMARK   11  A    between atoms: N_19  and  S_20
REMARK   12  A    between atoms: S_20  and  C_21
REMARK   13  A    between atoms: C_24  and  C_25
REMARK   14  A    between atoms: N_27  and  O_28
REMARK                            x       y       z     vdW  Elec       q    Type
REMARK                         _______ _______ _______ _____ _____    ______ ____
ROOT
ATOM      1  C   UNL     1       1.447   5.677  19.776  0.00  0.00    +0.000 C 
ENDROOT
BRANCH   1   2
ATOM      2  C   UNL     1       2.608   5.051  19.045  0.00  0.00    +0.000 A 
ATOM      3  C   UNL     1       2.411   4.088  18.059  0.00  0.00    +0.000 A 
ATOM      4  C   UNL     1       3.500   3.605  17.328  0.00  0.00    +0.000 A 
ATOM      5  C   UNL     1       4.813   4.043  17.574  0.00  0.00    +0.000 A 
ATOM      6  C   UNL     1       5.040   4.972  18.608  0.00  0.00    +0.000 A 
ATOM      7  C   UNL     1       3.917   5.472  19.313  0.00  0.00    +0.000 A 
BRANCH   6   8
ATOM      8  C   UNL     1       6.344   5.558  19.055  0.00  0.00    +0.000 C 
ATOM      9  O   UNL     1       6.903   5.146  20.068  0.00  0.00    +0.000 OA
ATOM     10  N   UNL     1       6.949   6.539  18.306  0.00  0.00    +0.000 N 
ATOM     11  H   UNL     1       6.736   6.731  17.330  0.00  0.00    +0.000 HD
BRANCH  10  12
ATOM     12  O   UNL     1       8.254   6.884  18.749  0.00  0.00    +0.000 OA
ATOM     13  H   UNL     1       8.087   7.157  19.679  0.00  0.00    +0.000 HD
ENDBRANCH  10  12
ENDBRANCH   6   8
BRANCH   5  14
ATOM     14  N   UNL     1       5.776   3.703  16.568  0.00  0.00    +0.000 N 
ATOM     15  H   UNL     1       6.480   3.010  16.837  0.00  0.00    +0.000 HD
BRANCH  14  16
ATOM     16  S   UNL     1       6.320   4.755  15.404  0.00  0.00    +0.000 S 
ATOM     17  C   UNL     1       6.194   3.940  13.821  0.00  0.00    +0.000 C 
ATOM     18  O   UNL     1       5.352   5.841  15.415  0.00  0.00    +0.000 OA
ATOM     19  O   UNL     1       7.714   5.007  15.696  0.00  0.00    +0.000 OA
ENDBRANCH  14  16
ENDBRANCH   5  14
ENDBRANCH   1   2
BRANCH   1  22
ATOM     20  N   UNL     1       1.575   8.486  19.125  0.00  0.00    +0.000 NA
ATOM     21  C   UNL     1       1.738   8.066  20.325  0.00  0.00    +0.000 C 
ATOM     22  N   UNL     1       1.907   6.748  20.620  0.00  0.00    +0.000 N 
ATOM     23  H   UNL     1       2.148   6.516  21.573  0.00  0.00    +0.000 HD
BRANCH  21  24
ATOM     24  S   UNL     1       1.756   9.059  21.771  0.00  0.00    +0.000 S 
ATOM     25  H   UNL     1       2.849   9.782  21.512  0.00  0.00    +0.000 HD
ENDBRANCH  21  24
BRANCH  20  26
ATOM     26  C   UNL     1       1.426   9.895  18.802  0.00  0.00    +0.000 C 
BRANCH  26  30
ATOM     27  C   UNL     1      -2.775  10.880  18.257  0.00  0.00    +0.000 A 
ATOM     28  C   UNL     1      -2.105   9.983  17.411  0.00  0.00    +0.000 A 
ATOM     29  C   UNL     1      -0.752   9.677  17.587  0.00  0.00    +0.000 A 
ATOM     30  C   UNL     1      -0.025  10.262  18.618  0.00  0.00    +0.000 A 
ATOM     31  C   UNL     1      -0.666  11.172  19.462  0.00  0.00    +0.000 A 
ATOM     32  C   UNL     1      -2.021  11.479  19.282  0.00  0.00    +0.000 A 
BRANCH  27  34
ATOM     33  C   UNL     1      -5.153   9.951  18.373  0.00  0.00    +0.000 C 
ATOM     34  C   UNL     1      -4.275  11.193  18.092  0.00  0.00    +0.000 C 
ATOM     35  C   UNL     1      -4.585  11.676  16.659  0.00  0.00    +0.000 C 
ATOM     36  C   UNL     1      -4.710  12.305  19.070  0.00  0.00    +0.000 C 
ENDBRANCH  27  34
ENDBRANCH  26  30
ENDBRANCH  20  26
ENDBRANCH   1  22
TORSDOF 10
ENDMDL
MODEL 2
REMARK VINA RESULT:      -7.6      2.996      3.997
REMARK  Name = 
REMARK  14 active torsions:
REMARK  status: ('A' for Active; 'I' for Inactive)
REMARK    1  A    between atoms: C_1  and  C_2
REMARK    2  A    between atoms: C_2  and  C_3
REMARK    3  A    between atoms: C_2  and  C_4
REMARK    4  A    between atoms: C_2  and  C_5
REMARK    5  A    between atoms: C_8  and  C_9
REMARK    6  A    between atoms: C_9  and  N_10
REMARK    7  A    between atoms: C_11  and  S_12
REMARK    8  A    between atoms: N_13  and  C_14
REMARK    9  A    between atoms: C_14  and  C_15
REMARK   10  A    between atoms: C_18  and  N_19
REMARK   11  A    between atoms: N_19  and  S_20
REMARK   12  A    between atoms: S_20  and  C_21
REMARK   13  A    between atoms: C_24  and  C_25
REMARK   14  A    between atoms: N_27  and  O_28
REMARK                            x       y       z     vdW  Elec       q    Type
REMARK                         _______ _______ _______ _____ _____    ______ ____
ROOT
ATOM      1  C   UNL     1       1.704   7.791  20.391  0.00  0.00    +0.000 C 
ENDROOT
BRANCH   1   2
ATOM      2  C   UNL     1       2.559   6.989  19.442  0.00  0.00    +0.000 A 
ATOM      3  C   UNL     1       3.107   7.563  18.298  0.00  0.00    +0.000 A 
ATOM      4  C   UNL     1       3.980   6.824  17.495  0.00  0.00    +0.000 A 
ATOM      5  C   UNL     1       4.310   5.489  17.790  0.00  0.00    +0.000 A 
ATOM      6  C   UNL     1       3.719   4.871  18.909  0.00  0.00    +0.000 A 
ATOM      7  C   UNL     1       2.864   5.652  19.727  0.00  0.00    +0.000 A 
BRANCH   6   8
ATOM      8  C   UNL     1       3.908   3.468  19.398  0.00  0.00    +0.000 C 
ATOM      9  O   UNL     1       2.941   2.732  19.579  0.00  0.00    +0.000 OA
ATOM     10  N   UNL     1       5.175   2.980  19.611  0.00  0.00    +0.000 N 
ATOM     11  H   UNL     1       6.021   3.385  19.217  0.00  0.00    +0.000 HD
BRANCH  10  12
ATOM     12  O   UNL     1       5.216   1.591  19.909  0.00  0.00    +0.000 OA
ATOM     13  H   UNL     1       6.184   1.415  19.920  0.00  0.00    +0.000 HD
ENDBRANCH  10  12
ENDBRANCH   6   8
BRANCH   5  14
ATOM     14  N   UNL     1       5.430   4.957  17.072  0.00  0.00    +0.000 N 
ATOM     15  H   UNL     1       5.382   3.961  16.839  0.00  0.00    +0.000 HD
BRANCH  14  16
ATOM     16  S   UNL     1       6.990   5.504  17.237  0.00  0.00    +0.000 S 
ATOM     17  C   UNL     1       7.296   5.781  18.974  0.00  0.00    +0.000 C 
ATOM     18  O   UNL     1       7.815   4.380  16.822  0.00  0.00    +0.000 OA
ATOM     19  O   UNL     1       7.059   6.768  16.539  0.00  0.00    +0.000 OA
ENDBRANCH  14  16
ENDBRANCH   5  14
ENDBRANCH   1   2
BRANCH   1  22
ATOM     20  N   UNL     1       0.958  10.543  20.840  0.00  0.00    +0.000 NA
ATOM     21  C   UNL     1       0.592   9.910  19.787  0.00  0.00    +0.000 C 
ATOM     22  N   UNL     1       0.735   8.563  19.658  0.00  0.00    +0.000 N 
ATOM     23  H   UNL     1       0.313   8.129  18.850  0.00  0.00    +0.000 HD
BRANCH  21  24
ATOM     24  S   UNL     1      -0.119  10.624  18.351  0.00  0.00    +0.000 S 
ATOM     25  H   UNL     1       0.480   9.870  17.426  0.00  0.00    +0.000 HD
ENDBRANCH  21  24
BRANCH  20  26
ATOM     26  C   UNL     1       0.778  11.976  20.995  0.00  0.00    +0.000 C 
BRANCH  26  30
ATOM     27  C   UNL     1      -3.037  12.897  22.869  0.00  0.00    +0.000 A 
ATOM     28  C   UNL     1      -2.544  13.636  21.783  0.00  0.00    +0.000 A 
ATOM     29  C   UNL     1      -1.312  13.339  21.190  0.00  0.00    +0.000 A 
ATOM     30  C   UNL     1      -0.534  12.292  21.668  0.00  0.00    +0.000 A 
ATOM     31  C   UNL     1      -0.996  11.553  22.761  0.00  0.00    +0.000 A 
ATOM     32  C   UNL     1      -2.229  11.853  23.354  0.00  0.00    +0.000 A 
BRANCH  27  34
ATOM     33  C   UNL     1      -4.665  12.317  24.752  0.00  0.00    +0.000 C 
ATOM     34  C   UNL     1      -4.410  13.194  23.503  0.00  0.00    +0.000 C 
ATOM     35  C   UNL     1      -5.552  12.929  22.499  0.00  0.00    +0.000 C 
ATOM     36  C   UNL     1      -4.500  14.671  23.942  0.00  0.00    +0.000 C 
ENDBRANCH  27  34
ENDBRANCH  26  30
ENDBRANCH  20  26
ENDBRANCH   1  22
TORSDOF 10
ENDMDL
MODEL 3
REMARK VINA RESULT:      -7.5      2.574      3.679
REMARK  Name = 
REMARK  14 active torsions:
REMARK  status: ('A' for Active; 'I' for Inactive)
REMARK    1  A    between atoms: C_1  and  C_2
REMARK    2  A    between atoms: C_2  and  C_3
REMARK    3  A    between atoms: C_2  and  C_4
REMARK    4  A    between atoms: C_2  and  C_5
REMARK    5  A    between atoms: C_8  and  C_9
REMARK    6  A    between atoms: C_9  and  N_10
REMARK    7  A    between atoms: C_11  and  S_12
REMARK    8  A    between atoms: N_13  and  C_14
REMARK    9  A    between atoms: C_14  and  C_15
REMARK   10  A    between atoms: C_18  and  N_19
REMARK   11  A    between atoms: N_19  and  S_20
REMARK   12  A    between atoms: S_20  and  C_21
REMARK   13  A    between atoms: C_24  and  C_25
REMARK   14  A    between atoms: N_27  and  O_28
REMARK                            x       y       z     vdW  Elec       q    Type
REMARK                         _______ _______ _______ _____ _____    ______ ____
ROOT
ATOM      1  C   UNL     1       1.739   8.162  19.329  0.00  0.00    +0.000 C 
ENDROOT
BRANCH   1   2
ATOM      2  C   UNL     1       2.696   7.231  18.627  0.00  0.00    +0.000 A 
ATOM      3  C   UNL     1       3.428   7.645  17.517  0.00  0.00    +0.000 A 
ATOM      4  C   UNL     1       4.382   6.793  16.954  0.00  0.00    +0.000 A 
ATOM      5  C   UNL     1       4.617   5.502  17.459  0.00  0.00    +0.000 A 
ATOM      6  C   UNL     1       3.845   5.044  18.545  0.00  0.00    +0.000 A 
ATOM      7  C   UNL     1       2.907   5.937  19.120  0.00  0.00    +0.000 A 
BRANCH   6   8
ATOM      8  C   UNL     1       3.909   3.712  19.227  0.00  0.00    +0.000 C 
ATOM      9  O   UNL     1       2.882   3.143  19.590  0.00  0.00    +0.000 OA
ATOM     10  N   UNL     1       5.123   3.096  19.418  0.00  0.00    +0.000 N 
ATOM     11  H   UNL     1       5.971   3.326  18.907  0.00  0.00    +0.000 HD
BRANCH  10  12
ATOM     12  O   UNL     1       5.025   1.770  19.922  0.00  0.00    +0.000 OA
ATOM     13  H   UNL     1       5.200   1.904  20.880  0.00  0.00    +0.000 HD
ENDBRANCH  10  12
ENDBRANCH   6   8
BRANCH   5  14
ATOM     14  N   UNL     1       5.811   4.863  16.991  0.00  0.00    +0.000 N 
ATOM     15  H   UNL     1       5.748   3.854  16.835  0.00  0.00    +0.000 HD
BRANCH  14  16
ATOM     16  S   UNL     1       7.348   5.361  17.378  0.00  0.00    +0.000 S 
ATOM     17  C   UNL     1       7.368   5.794  19.110  0.00  0.00    +0.000 C 
ATOM     18  O   UNL     1       8.167   4.169  17.217  0.00  0.00    +0.000 OA
ATOM     19  O   UNL     1       7.608   6.546  16.592  0.00  0.00    +0.000 OA
ENDBRANCH  14  16
ENDBRANCH   5  14
ENDBRANCH   1   2
BRANCH   1  22
ATOM     20  N   UNL     1       0.912  10.715  20.392  0.00  0.00    +0.000 NA
ATOM     21  C   UNL     1       1.465  10.615  19.241  0.00  0.00    +0.000 C 
ATOM     22  N   UNL     1       1.656   9.415  18.625  0.00  0.00    +0.000 N 
ATOM     23  H   UNL     1       1.989   9.434  17.672  0.00  0.00    +0.000 HD
BRANCH  21  24
ATOM     24  S   UNL     1       2.082  11.942  18.274  0.00  0.00    +0.000 S 
ATOM     25  H   UNL     1       1.990  12.919  19.180  0.00  0.00    +0.000 HD
ENDBRANCH  21  24
BRANCH  20  26
ATOM     26  C   UNL     1       0.677  11.995  21.039  0.00  0.00    +0.000 C 
BRANCH  26  30
ATOM     27  C   UNL     1      -3.561  12.783  21.619  0.00  0.00    +0.000 A 
ATOM     28  C   UNL     1      -2.708  12.472  22.689  0.00  0.00    +0.000 A 
ATOM     29  C   UNL     1      -1.348  12.213  22.494  0.00  0.00    +0.000 A 
ATOM     30  C   UNL     1      -0.798  12.254  21.218  0.00  0.00    +0.000 A 
ATOM     31  C   UNL     1      -1.631  12.542  20.134  0.00  0.00    +0.000 A 
ATOM     32  C   UNL     1      -2.994  12.800  20.332  0.00  0.00    +0.000 A 
BRANCH  27  34
ATOM     33  C   UNL     1      -5.963  12.194  20.976  0.00  0.00    +0.000 C 
ATOM     34  C   UNL     1      -5.053  13.107  21.830  0.00  0.00    +0.000 C 
ATOM     35  C   UNL     1      -5.360  14.571  21.449  0.00  0.00    +0.000 C 
ATOM     36  C   UNL     1      -5.449  12.911  23.309  0.00  0.00    +0.000 C 
ENDBRANCH  27  34
ENDBRANCH  26  30
ENDBRANCH  20  26
ENDBRANCH   1  22
TORSDOF 10
ENDMDL
MODEL 4
REMARK VINA RESULT:      -7.5      2.243      3.408
REMARK  Name = 
REMARK  14 active torsions:
REMARK  status: ('A' for Active; 'I' for Inactive)
REMARK    1  A    between atoms: C_1  and  C_2
REMARK    2  A    between atoms: C_2  and  C_3
REMARK    3  A    between atoms: C_2  and  C_4
REMARK    4  A    between atoms: C_2  and  C_5
REMARK    5  A    between atoms: C_8  and  C_9
REMARK    6  A    between atoms: C_9  and  N_10
REMARK    7  A    between atoms: C_11  and  S_12
REMARK    8  A    between atoms: N_13  and  C_14
REMARK    9  A    between atoms: C_14  and  C_15
REMARK   10  A    between atoms: C_18  and  N_19
REMARK   11  A    between atoms: N_19  and  S_20
REMARK   12  A    between atoms: S_20  and  C_21
REMARK   13  A    between atoms: C_24  and  C_25
REMARK   14  A    between atoms: N_27  and  O_28
REMARK                            x       y       z     vdW  Elec       q    Type
REMARK                         _______ _______ _______ _____ _____    ______ ____
ROOT
ATOM      1  C   UNL     1       1.658   8.362  19.060  0.00  0.00    +0.000 C 
ENDROOT
BRANCH   1   2
ATOM      2  C   UNL     1       2.616   7.417  18.379  0.00  0.00    +0.000 A 
ATOM      3  C   UNL     1       3.532   7.870  17.432  0.00  0.00    +0.000 A 
ATOM      4  C   UNL     1       4.476   6.989  16.897  0.00  0.00    +0.000 A 
ATOM      5  C   UNL     1       4.519   5.633  17.265  0.00  0.00    +0.000 A 
ATOM      6  C   UNL     1       3.562   5.142  18.176  0.00  0.00    +0.000 A 
ATOM      7  C   UNL     1       2.637   6.062  18.731  0.00  0.00    +0.000 A 
BRANCH   6   8
ATOM      8  C   UNL     1       3.408   3.744  18.692  0.00  0.00    +0.000 C 
ATOM      9  O   UNL     1       3.585   3.492  19.881  0.00  0.00    +0.000 OA
ATOM     10  N   UNL     1       3.027   2.736  17.839  0.00  0.00    +0.000 N 
ATOM     11  H   UNL     1       2.578   2.883  16.939  0.00  0.00    +0.000 HD
BRANCH  10  12
ATOM     12  O   UNL     1       2.756   1.501  18.488  0.00  0.00    +0.000 OA
ATOM     13  H   UNL     1       3.054   1.686  19.407  0.00  0.00    +0.000 HD
ENDBRANCH  10  12
ENDBRANCH   6   8
BRANCH   5  14
ATOM     14  N   UNL     1       5.704   4.925  16.881  0.00  0.00    +0.000 N 
ATOM     15  H   UNL     1       5.603   3.915  16.754  0.00  0.00    +0.000 HD
BRANCH  14  16
ATOM     16  S   UNL     1       7.241   5.367  17.332  0.00  0.00    +0.000 S 
ATOM     17  C   UNL     1       7.227   5.700  19.085  0.00  0.00    +0.000 C 
ATOM     18  O   UNL     1       8.039   4.169  17.121  0.00  0.00    +0.000 OA
ATOM     19  O   UNL     1       7.544   6.589  16.621  0.00  0.00    +0.000 OA
ENDBRANCH  14  16
ENDBRANCH   5  14
ENDBRANCH   1   2
BRANCH   1  22
ATOM     20  N   UNL     1       0.151  10.714  19.788  0.00  0.00    +0.000 NA
ATOM     21  C   UNL     1       1.144  10.776  18.980  0.00  0.00    +0.000 C 
ATOM     22  N   UNL     1       1.722   9.664  18.448  0.00  0.00    +0.000 N 
ATOM     23  H   UNL     1       2.418   9.804  17.731  0.00  0.00    +0.000 HD
BRANCH  21  24
ATOM     24  S   UNL     1       1.938  12.241  18.434  0.00  0.00    +0.000 S 
ATOM     25  H   UNL     1       2.503  11.767  17.320  0.00  0.00    +0.000 HD
ENDBRANCH  21  24
BRANCH  20  26
ATOM     26  C   UNL     1      -0.490  11.899  20.334  0.00  0.00    +0.000 C 
BRANCH  26  30
ATOM     27  C   UNL     1      -4.635  12.101  19.032  0.00  0.00    +0.000 A 
ATOM     28  C   UNL     1      -3.642  11.478  18.260  0.00  0.00    +0.000 A 
ATOM     29  C   UNL     1      -2.309  11.423  18.681  0.00  0.00    +0.000 A 
ATOM     30  C   UNL     1      -1.928  11.994  19.890  0.00  0.00    +0.000 A 
ATOM     31  C   UNL     1      -2.896  12.636  20.667  0.00  0.00    +0.000 A 
ATOM     32  C   UNL     1      -4.230  12.691  20.242  0.00  0.00    +0.000 A 
BRANCH  27  34
ATOM     33  C   UNL     1      -6.271  12.708  17.165  0.00  0.00    +0.000 C 
ATOM     34  C   UNL     1      -6.111  12.131  18.592  0.00  0.00    +0.000 C 
ATOM     35  C   UNL     1      -6.956  12.998  19.549  0.00  0.00    +0.000 C 
ATOM     36  C   UNL     1      -6.710  10.708  18.591  0.00  0.00    +0.000 C 
ENDBRANCH  27  34
ENDBRANCH  26  30
ENDBRANCH  20  26
ENDBRANCH   1  22
TORSDOF 10
ENDMDL
MODEL 5
REMARK VINA RESULT:      -7.5      3.240      4.241
REMARK  Name = 
REMARK  14 active torsions:
REMARK  status: ('A' for Active; 'I' for Inactive)
REMARK    1  A    between atoms: C_1  and  C_2
REMARK    2  A    between atoms: C_2  and  C_3
REMARK    3  A    between atoms: C_2  and  C_4
REMARK    4  A    between atoms: C_2  and  C_5
REMARK    5  A    between atoms: C_8  and  C_9
REMARK    6  A    between atoms: C_9  and  N_10
REMARK    7  A    between atoms: C_11  and  S_12
REMARK    8  A    between atoms: N_13  and  C_14
REMARK    9  A    between atoms: C_14  and  C_15
REMARK   10  A    between atoms: C_18  and  N_19
REMARK   11  A    between atoms: N_19  and  S_20
REMARK   12  A    between atoms: S_20  and  C_21
REMARK   13  A    between atoms: C_24  and  C_25
REMARK   14  A    between atoms: N_27  and  O_28
REMARK                            x       y       z     vdW  Elec       q    Type
REMARK                         _______ _______ _______ _____ _____    ______ ____
ROOT
ATOM      1  C   UNL     1       1.702   7.777  20.477  0.00  0.00    +0.000 C 
ENDROOT
BRANCH   1   2
ATOM      2  C   UNL     1       2.510   6.981  19.481  0.00  0.00    +0.000 A 
ATOM      3  C   UNL     1       3.026   7.571  18.330  0.00  0.00    +0.000 A 
ATOM      4  C   UNL     1       3.857   6.834  17.482  0.00  0.00    +0.000 A 
ATOM      5  C   UNL     1       4.174   5.488  17.737  0.00  0.00    +0.000 A 
ATOM      6  C   UNL     1       3.613   4.857  18.865  0.00  0.00    +0.000 A 
ATOM      7  C   UNL     1       2.801   5.634  19.728  0.00  0.00    +0.000 A 
BRANCH   6   8
ATOM      8  C   UNL     1       3.796   3.441  19.318  0.00  0.00    +0.000 C 
ATOM      9  O   UNL     1       2.847   2.661  19.334  0.00  0.00    +0.000 OA
ATOM     10  N   UNL     1       5.043   2.992  19.683  0.00  0.00    +0.000 N 
ATOM     11  H   UNL     1       5.915   3.447  19.427  0.00  0.00    +0.000 HD
BRANCH  10  12
ATOM     12  O   UNL     1       5.105   1.593  19.928  0.00  0.00    +0.000 OA
ATOM     13  H   UNL     1       6.041   1.390  19.705  0.00  0.00    +0.000 HD
ENDBRANCH  10  12
ENDBRANCH   6   8
BRANCH   5  14
ATOM     14  N   UNL     1       5.259   4.953  16.969  0.00  0.00    +0.000 N 
ATOM     15  H   UNL     1       5.089   4.048  16.522  0.00  0.00    +0.000 HD
BRANCH  14  16
ATOM     16  S   UNL     1       6.864   5.208  17.317  0.00  0.00    +0.000 S 
ATOM     17  C   UNL     1       7.137   6.970  17.396  0.00  0.00    +0.000 C 
ATOM     18  O   UNL     1       7.032   4.679  18.661  0.00  0.00    +0.000 OA
ATOM     19  O   UNL     1       7.617   4.663  16.209  0.00  0.00    +0.000 OA
ENDBRANCH  14  16
ENDBRANCH   5  14
ENDBRANCH   1   2
BRANCH   1  22
ATOM     20  N   UNL     1       1.151  10.589  20.820  0.00  0.00    +0.000 NA
ATOM     21  C   UNL     1       0.645   9.919  19.853  0.00  0.00    +0.000 C 
ATOM     22  N   UNL     1       0.704   8.559  19.797  0.00  0.00    +0.000 N 
ATOM     23  H   UNL     1       0.178   8.104  19.065  0.00  0.00    +0.000 HD
BRANCH  21  24
ATOM     24  S   UNL     1      -0.174  10.587  18.453  0.00  0.00    +0.000 S 
ATOM     25  H   UNL     1       0.847  11.263  17.919  0.00  0.00    +0.000 HD
ENDBRANCH  21  24
BRANCH  20  26
ATOM     26  C   UNL     1       1.063  12.038  20.900  0.00  0.00    +0.000 C 
BRANCH  26  30
ATOM     27  C   UNL     1      -2.411  13.228  23.230  0.00  0.00    +0.000 A 
ATOM     28  C   UNL     1      -2.045  11.882  23.074  0.00  0.00    +0.000 A 
ATOM     29  C   UNL     1      -0.931  11.506  22.317  0.00  0.00    +0.000 A 
ATOM     30  C   UNL     1      -0.148  12.468  21.689  0.00  0.00    +0.000 A 
ATOM     31  C   UNL     1      -0.503  13.813  21.815  0.00  0.00    +0.000 A 
ATOM     32  C   UNL     1      -1.621  14.188  22.572  0.00  0.00    +0.000 A 
BRANCH  27  34
ATOM     33  C   UNL     1      -3.195  14.625  25.221  0.00  0.00    +0.000 C 
ATOM     34  C   UNL     1      -3.615  13.652  24.094  0.00  0.00    +0.000 C 
ATOM     35  C   UNL     1      -4.283  12.427  24.753  0.00  0.00    +0.000 C 
ATOM     36  C   UNL     1      -4.680  14.365  23.233  0.00  0.00    +0.000 C 
ENDBRANCH  27  34
ENDBRANCH  26  30
ENDBRANCH  20  26
ENDBRANCH   1  22
TORSDOF 10
ENDMDL
MODEL 6
REMARK VINA RESULT:      -7.4      0.666      1.147
REMARK  Name = 
REMARK  14 active torsions:
REMARK  status: ('A' for Active; 'I' for Inactive)
REMARK    1  A    between atoms: C_1  and  C_2
REMARK    2  A    between atoms: C_2  and  C_3
REMARK    3  A    between atoms: C_2  and  C_4
REMARK    4  A    between atoms: C_2  and  C_5
REMARK    5  A    between atoms: C_8  and  C_9
REMARK    6  A    between atoms: C_9  and  N_10
REMARK    7  A    between atoms: C_11  and  S_12
REMARK    8  A    between atoms: N_13  and  C_14
REMARK    9  A    between atoms: C_14  and  C_15
REMARK   10  A    between atoms: C_18  and  N_19
REMARK   11  A    between atoms: N_19  and  S_20
REMARK   12  A    between atoms: S_20  and  C_21
REMARK   13  A    between atoms: C_24  and  C_25
REMARK   14  A    between atoms: N_27  and  O_28
REMARK                            x       y       z     vdW  Elec       q    Type
REMARK                         _______ _______ _______ _____ _____    ______ ____
ROOT
ATOM      1  C   UNL     1       1.420   5.959  19.367  0.00  0.00    +0.000 C 
ENDROOT
BRANCH   1   2
ATOM      2  C   UNL     1       2.563   5.260  18.674  0.00  0.00    +0.000 A 
ATOM      3  C   UNL     1       2.339   4.252  17.740  0.00  0.00    +0.000 A 
ATOM      4  C   UNL     1       3.414   3.698  17.040  0.00  0.00    +0.000 A 
ATOM      5  C   UNL     1       4.739   4.109  17.266  0.00  0.00    +0.000 A 
ATOM      6  C   UNL     1       4.992   5.085  18.250  0.00  0.00    +0.000 A 
ATOM      7  C   UNL     1       3.883   5.656  18.923  0.00  0.00    +0.000 A 
BRANCH   6   8
ATOM      8  C   UNL     1       6.313   5.655  18.668  0.00  0.00    +0.000 C 
ATOM      9  O   UNL     1       6.731   6.698  18.172  0.00  0.00    +0.000 OA
ATOM     10  N   UNL     1       7.051   5.032  19.645  0.00  0.00    +0.000 N 
ATOM     11  H   UNL     1       6.675   4.361  20.311  0.00  0.00    +0.000 HD
BRANCH  10  12
ATOM     12  O   UNL     1       8.195   5.765  20.063  0.00  0.00    +0.000 OA
ATOM     13  H   UNL     1       8.232   6.482  19.391  0.00  0.00    +0.000 HD
ENDBRANCH  10  12
ENDBRANCH   6   8
BRANCH   5  14
ATOM     14  N   UNL     1       5.693   3.687  16.283  0.00  0.00    +0.000 N 
ATOM     15  H   UNL     1       6.330   2.939  16.569  0.00  0.00    +0.000 HD
BRANCH  14  16
ATOM     16  S   UNL     1       6.349   4.687  15.130  0.00  0.00    +0.000 S 
ATOM     17  C   UNL     1       6.236   3.858  13.553  0.00  0.00    +0.000 C 
ATOM     18  O   UNL     1       5.451   5.831  15.088  0.00  0.00    +0.000 OA
ATOM     19  O   UNL     1       7.743   4.855  15.476  0.00  0.00    +0.000 OA
ENDBRANCH  14  16
ENDBRANCH   5  14
ENDBRANCH   1   2
BRANCH   1  22
ATOM     20  N   UNL     1       1.324   8.836  19.154  0.00  0.00    +0.000 NA
ATOM     21  C   UNL     1       1.651   8.254  20.247  0.00  0.00    +0.000 C 
ATOM     22  N   UNL     1       1.922   6.921  20.312  0.00  0.00    +0.000 N 
ATOM     23  H   UNL     1       2.287   6.566  21.184  0.00  0.00    +0.000 HD
BRANCH  21  24
ATOM     24  S   UNL     1       1.791   9.018  21.819  0.00  0.00    +0.000 S 
ATOM     25  H   UNL     1       0.561   9.531  21.911  0.00  0.00    +0.000 HD
ENDBRANCH  21  24
BRANCH  20  26
ATOM     26  C   UNL     1       1.065  10.263  19.073  0.00  0.00    +0.000 C 
BRANCH  26  30
ATOM     27  C   UNL     1      -3.148  11.138  18.443  0.00  0.00    +0.000 A 
ATOM     28  C   UNL     1      -2.370  11.852  19.366  0.00  0.00    +0.000 A 
ATOM     29  C   UNL     1      -1.017  11.560  19.570  0.00  0.00    +0.000 A 
ATOM     30  C   UNL     1      -0.401  10.541  18.854  0.00  0.00    +0.000 A 
ATOM     31  C   UNL     1      -1.160   9.803  17.942  0.00  0.00    +0.000 A 
ATOM     32  C   UNL     1      -2.516  10.096  17.742  0.00  0.00    +0.000 A 
BRANCH  27  34
ATOM     33  C   UNL     1      -5.549  10.262  18.446  0.00  0.00    +0.000 C 
ATOM     34  C   UNL     1      -4.629  11.479  18.186  0.00  0.00    +0.000 C 
ATOM     35  C   UNL     1      -4.848  11.933  16.728  0.00  0.00    +0.000 C 
ATOM     36  C   UNL     1      -5.094  12.623  19.112  0.00  0.00    +0.000 C 
ENDBRANCH  27  34
ENDBRANCH  26  30
ENDBRANCH  20  26
ENDBRANCH   1  22
TORSDOF 10
ENDMDL
MODEL 7
REMARK VINA RESULT:      -7.4      5.422      7.298
REMARK  Name = 
REMARK  14 active torsions:
REMARK  status: ('A' for Active; 'I' for Inactive)
REMARK    1  A    between atoms: C_1  and  C_2
REMARK    2  A    between atoms: C_2  and  C_3
REMARK    3  A    between atoms: C_2  and  C_4
REMARK    4  A    between atoms: C_2  and  C_5
REMARK    5  A    between atoms: C_8  and  C_9
REMARK    6  A    between atoms: C_9  and  N_10
REMARK    7  A    between atoms: C_11  and  S_12
REMARK    8  A    between atoms: N_13  and  C_14
REMARK    9  A    between atoms: C_14  and  C_15
REMARK   10  A    between atoms: C_18  and  N_19
REMARK   11  A    between atoms: N_19  and  S_20
REMARK   12  A    between atoms: S_20  and  C_21
REMARK   13  A    between atoms: C_24  and  C_25
REMARK   14  A    between atoms: N_27  and  O_28
REMARK                            x       y       z     vdW  Elec       q    Type
REMARK                         _______ _______ _______ _____ _____    ______ ____
ROOT
ATOM      1  C   UNL     1       8.376   9.284  17.688  0.00  0.00    +0.000 C 
ENDROOT
BRANCH   1   2
ATOM      2  C   UNL     1       7.981   7.836  17.829  0.00  0.00    +0.000 A 
ATOM      3  C   UNL     1       8.236   7.125  18.999  0.00  0.00    +0.000 A 
ATOM      4  C   UNL     1       7.764   5.817  19.138  0.00  0.00    +0.000 A 
ATOM      5  C   UNL     1       7.052   5.171  18.112  0.00  0.00    +0.000 A 
ATOM      6  C   UNL     1       6.835   5.853  16.898  0.00  0.00    +0.000 A 
ATOM      7  C   UNL     1       7.294   7.190  16.794  0.00  0.00    +0.000 A 
BRANCH   6   8
ATOM      8  C   UNL     1       6.125   5.359  15.675  0.00  0.00    +0.000 C 
ATOM      9  O   UNL     1       5.313   6.072  15.091  0.00  0.00    +0.000 OA
ATOM     10  N   UNL     1       6.410   4.112  15.172  0.00  0.00    +0.000 N 
ATOM     11  H   UNL     1       7.251   3.583  15.389  0.00  0.00    +0.000 HD
BRANCH  10  12
ATOM     12  O   UNL     1       5.794   3.839  13.921  0.00  0.00    +0.000 OA
ATOM     13  H   UNL     1       4.896   3.548  14.196  0.00  0.00    +0.000 HD
ENDBRANCH  10  12
ENDBRANCH   6   8
BRANCH   5  14
ATOM     14  N   UNL     1       6.375   3.967  18.494  0.00  0.00    +0.000 N 
ATOM     15  H   UNL     1       6.787   3.094  18.154  0.00  0.00    +0.000 HD
BRANCH  14  16
ATOM     16  S   UNL     1       4.735   3.855  18.735  0.00  0.00    +0.000 S 
ATOM     17  C   UNL     1       4.437   2.523  19.885  0.00  0.00    +0.000 C 
ATOM     18  O   UNL     1       4.381   5.097  19.403  0.00  0.00    +0.000 OA
ATOM     19  O   UNL     1       4.153   3.513  17.456  0.00  0.00    +0.000 OA
ENDBRANCH  14  16
ENDBRANCH   5  14
ENDBRANCH   1   2
BRANCH   1  22
ATOM     20  N   UNL     1       9.176  11.985  18.322  0.00  0.00    +0.000 NA
ATOM     21  C   UNL     1       9.177  11.058  19.207  0.00  0.00    +0.000 C 
ATOM     22  N   UNL     1       9.026   9.743  18.888  0.00  0.00    +0.000 N 
ATOM     23  H   UNL     1       9.158   9.071  19.629  0.00  0.00    +0.000 HD
BRANCH  21  24
ATOM     24  S   UNL     1       9.347  11.287  20.937  0.00  0.00    +0.000 S 
ATOM     25  H   UNL     1       8.836  12.517  21.035  0.00  0.00    +0.000 HD
ENDBRANCH  21  24
BRANCH  20  26
ATOM     26  C   UNL     1       9.369  13.386  18.654  0.00  0.00    +0.000 C 
BRANCH  26  30
ATOM     27  C   UNL     1       5.525  15.380  19.067  0.00  0.00    +0.000 A 
ATOM     28  C   UNL     1       5.929  14.783  17.862  0.00  0.00    +0.000 A 
ATOM     29  C   UNL     1       7.170  14.151  17.734  0.00  0.00    +0.000 A 
ATOM     30  C   UNL     1       8.048  14.097  18.810  0.00  0.00    +0.000 A 
ATOM     31  C   UNL     1       7.676  14.700  20.015  0.00  0.00    +0.000 A 
ATOM     32  C   UNL     1       6.433  15.335  20.140  0.00  0.00    +0.000 A 
BRANCH  27  34
ATOM     33  C   UNL     1       3.565  16.493  17.864  0.00  0.00    +0.000 C 
ATOM     34  C   UNL     1       4.145  16.045  19.226  0.00  0.00    +0.000 C 
ATOM     35  C   UNL     1       4.232  17.290  20.135  0.00  0.00    +0.000 C 
ATOM     36  C   UNL     1       3.137  15.065  19.864  0.00  0.00    +0.000 C 
ENDBRANCH  27  34
ENDBRANCH  26  30
ENDBRANCH  20  26
ENDBRANCH   1  22
TORSDOF 10
ENDMDL
MODEL 8
REMARK VINA RESULT:      -7.4      3.491      4.996
REMARK  Name = 
REMARK  14 active torsions:
REMARK  status: ('A' for Active; 'I' for Inactive)
REMARK    1  A    between atoms: C_1  and  C_2
REMARK    2  A    between atoms: C_2  and  C_3
REMARK    3  A    between atoms: C_2  and  C_4
REMARK    4  A    between atoms: C_2  and  C_5
REMARK    5  A    between atoms: C_8  and  C_9
REMARK    6  A    between atoms: C_9  and  N_10
REMARK    7  A    between atoms: C_11  and  S_12
REMARK    8  A    between atoms: N_13  and  C_14
REMARK    9  A    between atoms: C_14  and  C_15
REMARK   10  A    between atoms: C_18  and  N_19
REMARK   11  A    between atoms: N_19  and  S_20
REMARK   12  A    between atoms: S_20  and  C_21
REMARK   13  A    between atoms: C_24  and  C_25
REMARK   14  A    between atoms: N_27  and  O_28
REMARK                            x       y       z     vdW  Elec       q    Type
REMARK                         _______ _______ _______ _____ _____    ______ ____
ROOT
ATOM      1  C   UNL     1       0.851   8.750  21.368  0.00  0.00    +0.000 C 
ENDROOT
BRANCH   1   2
ATOM      2  C   UNL     1       1.453   7.632  20.554  0.00  0.00    +0.000 A 
ATOM      3  C   UNL     1       2.244   7.893  19.438  0.00  0.00    +0.000 A 
ATOM      4  C   UNL     1       2.872   6.840  18.767  0.00  0.00    +0.000 A 
ATOM      5  C   UNL     1       2.710   5.502  19.167  0.00  0.00    +0.000 A 
ATOM      6  C   UNL     1       1.866   5.213  20.257  0.00  0.00    +0.000 A 
ATOM      7  C   UNL     1       1.267   6.300  20.942  0.00  0.00    +0.000 A 
BRANCH   6   8
ATOM      8  C   UNL     1       1.534   3.874  20.840  0.00  0.00    +0.000 C 
ATOM      9  O   UNL     1       0.700   3.147  20.307  0.00  0.00    +0.000 OA
ATOM     10  N   UNL     1       2.195   3.430  21.961  0.00  0.00    +0.000 N 
ATOM     11  H   UNL     1       3.082   3.803  22.291  0.00  0.00    +0.000 HD
BRANCH  10  12
ATOM     12  O   UNL     1       1.907   2.082  22.307  0.00  0.00    +0.000 OA
ATOM     13  H   UNL     1       1.105   1.901  21.766  0.00  0.00    +0.000 HD
ENDBRANCH  10  12
ENDBRANCH   6   8
BRANCH   5  14
ATOM     14  N   UNL     1       3.635   4.569  18.593  0.00  0.00    +0.000 N 
ATOM     15  H   UNL     1       4.611   4.873  18.552  0.00  0.00    +0.000 HD
BRANCH  14  16
ATOM     16  S   UNL     1       3.246   3.488  17.394  0.00  0.00    +0.000 S 
ATOM     17  C   UNL     1       3.430   1.840  18.057  0.00  0.00    +0.000 C 
ATOM     18  O   UNL     1       1.828   3.706  17.155  0.00  0.00    +0.000 OA
ATOM     19  O   UNL     1       4.211   3.682  16.336  0.00  0.00    +0.000 OA
ENDBRANCH  14  16
ENDBRANCH   5  14
ENDBRANCH   1   2
BRANCH   1  22
ATOM     20  N   UNL     1      -0.422  11.228  22.126  0.00  0.00    +0.000 NA
ATOM     21  C   UNL     1       0.231  11.116  21.029  0.00  0.00    +0.000 C 
ATOM     22  N   UNL     1       0.643   9.912  20.544  0.00  0.00    +0.000 N 
ATOM     23  H   UNL     1       1.045   9.900  19.618  0.00  0.00    +0.000 HD
BRANCH  21  24
ATOM     24  S   UNL     1       0.724  12.435  19.983  0.00  0.00    +0.000 S 
ATOM     25  H   UNL     1       0.970  13.358  20.916  0.00  0.00    +0.000 HD
ENDBRANCH  21  24
BRANCH  20  26
ATOM     26  C   UNL     1      -0.891  12.507  22.631  0.00  0.00    +0.000 C 
BRANCH  26  30
ATOM     27  C   UNL     1      -5.225  12.836  22.479  0.00  0.00    +0.000 A 
ATOM     28  C   UNL     1      -4.531  12.699  23.691  0.00  0.00    +0.000 A 
ATOM     29  C   UNL     1      -3.138  12.586  23.731  0.00  0.00    +0.000 A 
ATOM     30  C   UNL     1      -2.394  12.605  22.557  0.00  0.00    +0.000 A 
ATOM     31  C   UNL     1      -3.064  12.722  21.337  0.00  0.00    +0.000 A 
ATOM     32  C   UNL     1      -4.461  12.833  21.299  0.00  0.00    +0.000 A 
BRANCH  27  34
ATOM     33  C   UNL     1      -7.167  14.392  21.896  0.00  0.00    +0.000 C 
ATOM     34  C   UNL     1      -6.757  12.999  22.429  0.00  0.00    +0.000 C 
ATOM     35  C   UNL     1      -7.378  12.829  23.831  0.00  0.00    +0.000 C 
ATOM     36  C   UNL     1      -7.388  11.939  21.501  0.00  0.00    +0.000 C 
ENDBRANCH  27  34
ENDBRANCH  26  30
ENDBRANCH  20  26
ENDBRANCH   1  22
TORSDOF 10
ENDMDL
MODEL 9
REMARK VINA RESULT:      -7.4      5.987      9.221
REMARK  Name = 
REMARK  14 active torsions:
REMARK  status: ('A' for Active; 'I' for Inactive)
REMARK    1  A    between atoms: C_1  and  C_2
REMARK    2  A    between atoms: C_2  and  C_3
REMARK    3  A    between atoms: C_2  and  C_4
REMARK    4  A    between atoms: C_2  and  C_5
REMARK    5  A    between atoms: C_8  and  C_9
REMARK    6  A    between atoms: C_9  and  N_10
REMARK    7  A    between atoms: C_11  and  S_12
REMARK    8  A    between atoms: N_13  and  C_14
REMARK    9  A    between atoms: C_14  and  C_15
REMARK   10  A    between atoms: C_18  and  N_19
REMARK   11  A    between atoms: N_19  and  S_20
REMARK   12  A    between atoms: S_20  and  C_21
REMARK   13  A    between atoms: C_24  and  C_25
REMARK   14  A    between atoms: N_27  and  O_28
REMARK                            x       y       z     vdW  Elec       q    Type
REMARK                         _______ _______ _______ _____ _____    ______ ____
ROOT
ATOM      1  C   UNL     1       8.335   9.545  17.636  0.00  0.00    +0.000 C 
ENDROOT
BRANCH   1   2
ATOM      2  C   UNL     1       9.267  10.499  18.339  0.00  0.00    +0.000 A 
ATOM      3  C   UNL     1      10.357  11.065  17.682  0.00  0.00    +0.000 A 
ATOM      4  C   UNL     1      11.140  12.025  18.330  0.00  0.00    +0.000 A 
ATOM      5  C   UNL     1      10.881  12.427  19.652  0.00  0.00    +0.000 A 
ATOM      6  C   UNL     1       9.819  11.822  20.353  0.00  0.00    +0.000 A 
ATOM      7  C   UNL     1       9.019  10.877  19.665  0.00  0.00    +0.000 A 
BRANCH   6   8
ATOM      8  C   UNL     1       9.376  12.079  21.761  0.00  0.00    +0.000 C 
ATOM      9  O   UNL     1       9.484  13.197  22.258  0.00  0.00    +0.000 OA
ATOM     10  N   UNL     1       8.806  11.068  22.497  0.00  0.00    +0.000 N 
ATOM     11  H   UNL     1       8.406  10.222  22.099  0.00  0.00    +0.000 HD
BRANCH  10  12
ATOM     12  O   UNL     1       8.281  11.489  23.748  0.00  0.00    +0.000 OA
ATOM     13  H   UNL     1       8.676  12.385  23.843  0.00  0.00    +0.000 HD
ENDBRANCH  10  12
ENDBRANCH   6   8
BRANCH   5  14
ATOM     14  N   UNL     1      11.558  13.616  20.080  0.00  0.00    +0.000 N 
ATOM     15  H   UNL     1      11.944  13.595  21.027  0.00  0.00    +0.000 HD
BRANCH  14  16
ATOM     16  S   UNL     1      11.158  15.149  19.580  0.00  0.00    +0.000 S 
ATOM     17  C   UNL     1      11.966  15.447  18.017  0.00  0.00    +0.000 C 
ATOM     18  O   UNL     1       9.727  15.086  19.328  0.00  0.00    +0.000 OA
ATOM     19  O   UNL     1      11.693  16.057  20.569  0.00  0.00    +0.000 OA
ENDBRANCH  14  16
ENDBRANCH   5  14
ENDBRANCH   1   2
BRANCH   1  22
ATOM     20  N   UNL     1       6.870   7.166  16.911  0.00  0.00    +0.000 NA
ATOM     21  C   UNL     1       7.596   7.213  17.966  0.00  0.00    +0.000 C 
ATOM     22  N   UNL     1       8.110   8.378  18.447  0.00  0.00    +0.000 N 
ATOM     23  H   UNL     1       8.569   8.344  19.346  0.00  0.00    +0.000 HD
BRANCH  21  24
ATOM     24  S   UNL     1       8.074   5.842  18.950  0.00  0.00    +0.000 S 
ATOM     25  H   UNL     1       8.566   6.502  20.001  0.00  0.00    +0.000 HD
ENDBRANCH  21  24
BRANCH  20  26
ATOM     26  C   UNL     1       6.294   5.929  16.411  0.00  0.00    +0.000 C 
BRANCH  26  30
ATOM     27  C   UNL     1       3.138   4.492  19.037  0.00  0.00    +0.000 A 
ATOM     28  C   UNL     1       3.232   5.839  18.654  0.00  0.00    +0.000 A 
ATOM     29  C   UNL     1       4.255   6.295  17.816  0.00  0.00    +0.000 A 
ATOM     30  C   UNL     1       5.218   5.416  17.335  0.00  0.00    +0.000 A 
ATOM     31  C   UNL     1       5.155   4.073  17.717  0.00  0.00    +0.000 A 
ATOM     32  C   UNL     1       4.132   3.619  18.559  0.00  0.00    +0.000 A 
BRANCH  27  34
ATOM     33  C   UNL     1       2.520   3.066  21.066  0.00  0.00    +0.000 C 
ATOM     34  C   UNL     1       1.994   3.974  19.930  0.00  0.00    +0.000 C 
ATOM     35  C   UNL     1       0.976   3.158  19.106  0.00  0.00    +0.000 C 
ATOM     36  C   UNL     1       1.238   5.151  20.584  0.00  0.00    +0.000 C 
ENDBRANCH  27  34
ENDBRANCH  26  30
ENDBRANCH  20  26
ENDBRANCH   1  22
TORSDOF 10
ENDMDL
