MODEL 1
REMARK VINA RESULT:      -8.9      0.000      0.000
REMARK  Name = 
REMARK  5 active torsions:
REMARK  status: ('A' for Active; 'I' for Inactive)
REMARK    1  A    between atoms: C_2  and  C_10
REMARK    2  A    between atoms: N_3  and  C_4
REMARK    3  A    between atoms: C_11  and  N_12
REMARK    4  A    between atoms: N_12  and  O_13
REMARK    5  A    between atoms: C_15  and  C_16
REMARK                            x       y       z     vdW  Elec       q    Type
REMARK                         _______ _______ _______ _____ _____    ______ ____
ROOT
ATOM      1  C   UNL     1       6.854   6.008  17.784  0.00  0.00    +0.000 A 
ATOM      2  C   UNL     1       7.809   6.123  18.742  0.00  0.00    +0.000 A 
ATOM      3  C   UNL     1       8.429   7.419  18.945  0.00  0.00    +0.000 A 
ATOM      4  C   UNL     1       8.091   8.476  18.196  0.00  0.00    +0.000 A 
ATOM      5  O   UNL     1       7.112   8.382  17.202  0.00  0.00    +0.000 OA
ATOM      6  C   UNL     1       6.469   7.202  16.982  0.00  0.00    +0.000 A 
ATOM      7  O   UNL     1       5.570   7.150  16.143  0.00  0.00    +0.000 OA
ENDROOT
BRANCH   4   8
ATOM      8  C   UNL     1       8.657   9.819  18.400  0.00  0.00    +0.000 A 
ATOM      9  C   UNL     1       9.555  10.085  19.448  0.00  0.00    +0.000 A 
ATOM     10  C   UNL     1      10.026  11.381  19.669  0.00  0.00    +0.000 A 
ATOM     11  C   UNL     1       9.614  12.407  18.834  0.00  0.00    +0.000 A 
ATOM     12  F   UNL     1      10.053  13.653  19.057  0.00  0.00    +0.000 F 
ATOM     13  C   UNL     1       8.751  12.167  17.772  0.00  0.00    +0.000 A 
ATOM     14  C   UNL     1       8.279  10.872  17.551  0.00  0.00    +0.000 A 
ENDBRANCH   4   8
BRANCH   1  16
ATOM     15  O   UNL     1       6.537   3.861  16.765  0.00  0.00    +0.000 OA
ATOM     16  C   UNL     1       6.133   4.707  17.561  0.00  0.00    +0.000 C 
ATOM     17  N   UNL     1       4.982   4.525  18.294  0.00  0.00    +0.000 N 
ATOM     18  H   UNL     1       4.572   5.337  18.752  0.00  0.00    +0.000 HD
BRANCH  17  19
ATOM     19  C   UNL     1       4.153   3.331  18.172  0.00  0.00    +0.000 C 
ATOM     20  C   UNL     1       3.680   2.852  19.551  0.00  0.00    +0.000 C 
ATOM     21  C   UNL     1       2.602   3.747  20.163  0.00  0.00    +0.000 C 
ATOM     22  C   UNL     1       1.435   3.964  19.205  0.00  0.00    +0.000 C 
ATOM     23  C   UNL     1       1.905   4.479  17.848  0.00  0.00    +0.000 C 
ATOM     24  C   UNL     1       2.960   3.560  17.233  0.00  0.00    +0.000 C 
ENDBRANCH  17  19
ENDBRANCH   1  16
BRANCH   2  25
ATOM     25  N   UNL     1       8.252   5.146  19.637  0.00  0.00    +0.000 N 
ATOM     26  H   UNL     1       7.862   4.221  19.448  0.00  0.00    +0.000 HD
BRANCH  25  27
ATOM     27  O   UNL     1       8.135   5.417  21.007  0.00  0.00    +0.000 OA
ATOM     28  H   UNL     1       7.462   4.766  21.315  0.00  0.00    +0.000 HD
ENDBRANCH  25  27
ENDBRANCH   2  25
TORSDOF 5
ENDMDL
MODEL 2
REMARK VINA RESULT:      -8.5      0.492      1.111
REMARK  Name = 
REMARK  5 active torsions:
REMARK  status: ('A' for Active; 'I' for Inactive)
REMARK    1  A    between atoms: C_2  and  C_10
REMARK    2  A    between atoms: N_3  and  C_4
REMARK    3  A    between atoms: C_11  and  N_12
REMARK    4  A    between atoms: N_12  and  O_13
REMARK    5  A    between atoms: C_15  and  C_16
REMARK                            x       y       z     vdW  Elec       q    Type
REMARK                         _______ _______ _______ _____ _____    ______ ____
ROOT
ATOM      1  C   UNL     1       6.615   5.974  17.522  0.00  0.00    +0.000 A 
ATOM      2  C   UNL     1       7.570   6.032  18.486  0.00  0.00    +0.000 A 
ATOM      3  C   UNL     1       8.215   7.307  18.740  0.00  0.00    +0.000 A 
ATOM      4  C   UNL     1       7.901   8.399  18.032  0.00  0.00    +0.000 A 
ATOM      5  O   UNL     1       6.923   8.364  17.034  0.00  0.00    +0.000 OA
ATOM      6  C   UNL     1       6.257   7.207  16.767  0.00  0.00    +0.000 A 
ATOM      7  O   UNL     1       5.358   7.206  15.924  0.00  0.00    +0.000 OA
ENDROOT
BRANCH   4   8
ATOM      8  C   UNL     1       8.493   9.721  18.290  0.00  0.00    +0.000 A 
ATOM      9  C   UNL     1       8.135  10.846  17.527  0.00  0.00    +0.000 A 
ATOM     10  C   UNL     1       8.760  12.077  17.739  0.00  0.00    +0.000 A 
ATOM     11  C   UNL     1       9.728  12.189  18.722  0.00  0.00    +0.000 A 
ATOM     12  F   UNL     1      10.339  13.366  18.915  0.00  0.00    +0.000 F 
ATOM     13  C   UNL     1      10.080  11.101  19.512  0.00  0.00    +0.000 A 
ATOM     14  C   UNL     1       9.457   9.870  19.301  0.00  0.00    +0.000 A 
ENDBRANCH   4   8
BRANCH   1  16
ATOM     15  O   UNL     1       6.358   3.780  16.591  0.00  0.00    +0.000 OA
ATOM     16  C   UNL     1       5.869   4.698  17.247  0.00  0.00    +0.000 C 
ATOM     17  N   UNL     1       4.595   4.624  17.764  0.00  0.00    +0.000 N 
ATOM     18  H   UNL     1       4.159   5.485  18.089  0.00  0.00    +0.000 HD
BRANCH  17  19
ATOM     19  C   UNL     1       3.730   3.467  17.562  0.00  0.00    +0.000 C 
ATOM     20  C   UNL     1       3.915   2.443  18.689  0.00  0.00    +0.000 C 
ATOM     21  C   UNL     1       3.297   2.889  20.015  0.00  0.00    +0.000 C 
ATOM     22  C   UNL     1       1.836   3.296  19.851  0.00  0.00    +0.000 C 
ATOM     23  C   UNL     1       1.661   4.344  18.755  0.00  0.00    +0.000 C 
ATOM     24  C   UNL     1       2.256   3.874  17.428  0.00  0.00    +0.000 C 
ENDBRANCH  17  19
ENDBRANCH   1  16
BRANCH   2  25
ATOM     25  N   UNL     1       7.990   5.013  19.343  0.00  0.00    +0.000 N 
ATOM     26  H   UNL     1       7.338   4.228  19.386  0.00  0.00    +0.000 HD
BRANCH  25  27
ATOM     27  O   UNL     1       8.360   5.369  20.646  0.00  0.00    +0.000 OA
ATOM     28  H   UNL     1       8.854   6.213  20.525  0.00  0.00    +0.000 HD
ENDBRANCH  25  27
ENDBRANCH   2  25
TORSDOF 5
ENDMDL
MODEL 3
REMARK VINA RESULT:      -8.1      5.749      7.587
REMARK  Name = 
REMARK  5 active torsions:
REMARK  status: ('A' for Active; 'I' for Inactive)
REMARK    1  A    between atoms: C_2  and  C_10
REMARK    2  A    between atoms: N_3  and  C_4
REMARK    3  A    between atoms: C_11  and  N_12
REMARK    4  A    between atoms: N_12  and  O_13
REMARK    5  A    between atoms: C_15  and  C_16
REMARK                            x       y       z     vdW  Elec       q    Type
REMARK                         _______ _______ _______ _____ _____    ______ ____
ROOT
ATOM      1  C   UNL     1       2.226   7.458  19.099  0.00  0.00    +0.000 A 
ATOM      2  C   UNL     1       1.799   7.150  20.351  0.00  0.00    +0.000 A 
ATOM      3  C   UNL     1       0.985   8.120  21.060  0.00  0.00    +0.000 A 
ATOM      4  C   UNL     1       0.677   9.301  20.512  0.00  0.00    +0.000 A 
ATOM      5  O   UNL     1       1.105   9.643  19.226  0.00  0.00    +0.000 OA
ATOM      6  C   UNL     1       1.846   8.765  18.494  0.00  0.00    +0.000 A 
ATOM      7  O   UNL     1       2.167   9.057  17.342  0.00  0.00    +0.000 OA
ENDROOT
BRANCH   4   8
ATOM      8  C   UNL     1      -0.187  10.293  21.173  0.00  0.00    +0.000 A 
ATOM      9  C   UNL     1      -0.475  10.215  22.547  0.00  0.00    +0.000 A 
ATOM     10  C   UNL     1      -1.352  11.123  23.142  0.00  0.00    +0.000 A 
ATOM     11  C   UNL     1      -1.929  12.118  22.371  0.00  0.00    +0.000 A 
ATOM     12  F   UNL     1      -2.784  12.980  22.939  0.00  0.00    +0.000 F 
ATOM     13  C   UNL     1      -1.638  12.238  21.017  0.00  0.00    +0.000 A 
ATOM     14  C   UNL     1      -0.762  11.331  20.421  0.00  0.00    +0.000 A 
ENDBRANCH   4   8
BRANCH   1  16
ATOM     15  O   UNL     1       2.560   5.402  17.914  0.00  0.00    +0.000 OA
ATOM     16  C   UNL     1       3.026   6.476  18.290  0.00  0.00    +0.000 C 
ATOM     17  N   UNL     1       4.321   6.847  18.003  0.00  0.00    +0.000 N 
ATOM     18  H   UNL     1       4.724   7.622  18.527  0.00  0.00    +0.000 HD
BRANCH  17  19
ATOM     19  C   UNL     1       5.235   5.995  17.253  0.00  0.00    +0.000 C 
ATOM     20  C   UNL     1       6.374   6.821  16.641  0.00  0.00    +0.000 C 
ATOM     21  C   UNL     1       7.395   7.298  17.675  0.00  0.00    +0.000 C 
ATOM     22  C   UNL     1       7.921   6.146  18.525  0.00  0.00    +0.000 C 
ATOM     23  C   UNL     1       6.787   5.350  19.164  0.00  0.00    +0.000 C 
ATOM     24  C   UNL     1       5.790   4.854  18.117  0.00  0.00    +0.000 C 
ENDBRANCH  17  19
ENDBRANCH   1  16
BRANCH   2  25
ATOM     25  N   UNL     1       1.989   5.959  21.055  0.00  0.00    +0.000 N 
ATOM     26  H   UNL     1       2.968   5.672  21.106  0.00  0.00    +0.000 HD
BRANCH  25  27
ATOM     27  O   UNL     1       1.211   4.854  20.687  0.00  0.00    +0.000 OA
ATOM     28  H   UNL     1       1.478   4.157  21.331  0.00  0.00    +0.000 HD
ENDBRANCH  25  27
ENDBRANCH   2  25
TORSDOF 5
ENDMDL
MODEL 4
REMARK VINA RESULT:      -8.1      5.123      7.127
REMARK  Name = 
REMARK  5 active torsions:
REMARK  status: ('A' for Active; 'I' for Inactive)
REMARK    1  A    between atoms: C_2  and  C_10
REMARK    2  A    between atoms: N_3  and  C_4
REMARK    3  A    between atoms: C_11  and  N_12
REMARK    4  A    between atoms: N_12  and  O_13
REMARK    5  A    between atoms: C_15  and  C_16
REMARK                            x       y       z     vdW  Elec       q    Type
REMARK                         _______ _______ _______ _____ _____    ______ ____
ROOT
ATOM      1  C   UNL     1       2.525   6.095  19.284  0.00  0.00    +0.000 A 
ATOM      2  C   UNL     1       1.861   5.817  20.435  0.00  0.00    +0.000 A 
ATOM      3  C   UNL     1       1.182   6.901  21.119  0.00  0.00    +0.000 A 
ATOM      4  C   UNL     1       1.224   8.154  20.648  0.00  0.00    +0.000 A 
ATOM      5  O   UNL     1       1.903   8.467  19.467  0.00  0.00    +0.000 OA
ATOM      6  C   UNL     1       2.534   7.489  18.759  0.00  0.00    +0.000 A 
ATOM      7  O   UNL     1       3.080   7.770  17.691  0.00  0.00    +0.000 OA
ENDROOT
BRANCH   4   8
ATOM      8  C   UNL     1       0.510   9.275  21.281  0.00  0.00    +0.000 A 
ATOM      9  C   UNL     1       0.504  10.558  20.707  0.00  0.00    +0.000 A 
ATOM     10  C   UNL     1      -0.119  11.625  21.358  0.00  0.00    +0.000 A 
ATOM     11  C   UNL     1      -0.749  11.407  22.572  0.00  0.00    +0.000 A 
ATOM     12  F   UNL     1      -1.332  12.435  23.204  0.00  0.00    +0.000 F 
ATOM     13  C   UNL     1      -0.785  10.143  23.147  0.00  0.00    +0.000 A 
ATOM     14  C   UNL     1      -0.162   9.076  22.498  0.00  0.00    +0.000 A 
ENDBRANCH   4   8
BRANCH   1  16
ATOM     15  O   UNL     1       2.609   3.993  18.134  0.00  0.00    +0.000 OA
ATOM     16  C   UNL     1       3.202   5.007  18.497  0.00  0.00    +0.000 C 
ATOM     17  N   UNL     1       4.535   5.208  18.218  0.00  0.00    +0.000 N 
ATOM     18  H   UNL     1       5.028   5.935  18.734  0.00  0.00    +0.000 HD
BRANCH  17  19
ATOM     19  C   UNL     1       5.342   4.236  17.490  0.00  0.00    +0.000 C 
ATOM     20  C   UNL     1       4.978   4.231  16.000  0.00  0.00    +0.000 C 
ATOM     21  C   UNL     1       5.483   5.466  15.253  0.00  0.00    +0.000 C 
ATOM     22  C   UNL     1       6.976   5.690  15.473  0.00  0.00    +0.000 C 
ATOM     23  C   UNL     1       7.328   5.734  16.957  0.00  0.00    +0.000 C 
ATOM     24  C   UNL     1       6.844   4.481  17.686  0.00  0.00    +0.000 C 
ENDBRANCH  17  19
ENDBRANCH   1  16
BRANCH   2  25
ATOM     25  N   UNL     1       1.678   4.572  21.043  0.00  0.00    +0.000 N 
ATOM     26  H   UNL     1       2.542   4.035  21.128  0.00  0.00    +0.000 HD
BRANCH  25  27
ATOM     27  O   UNL     1       0.673   3.739  20.534  0.00  0.00    +0.000 OA
ATOM     28  H   UNL     1      -0.135   4.303  20.568  0.00  0.00    +0.000 HD
ENDBRANCH  25  27
ENDBRANCH   2  25
TORSDOF 5
ENDMDL
MODEL 5
REMARK VINA RESULT:      -8.0      1.155      2.369
REMARK  Name = 
REMARK  5 active torsions:
REMARK  status: ('A' for Active; 'I' for Inactive)
REMARK    1  A    between atoms: C_2  and  C_10
REMARK    2  A    between atoms: N_3  and  C_4
REMARK    3  A    between atoms: C_11  and  N_12
REMARK    4  A    between atoms: N_12  and  O_13
REMARK    5  A    between atoms: C_15  and  C_16
REMARK                            x       y       z     vdW  Elec       q    Type
REMARK                         _______ _______ _______ _____ _____    ______ ____
ROOT
ATOM      1  C   UNL     1       6.830   6.078  17.929  0.00  0.00    +0.000 A 
ATOM      2  C   UNL     1       6.513   7.158  17.170  0.00  0.00    +0.000 A 
ATOM      3  C   UNL     1       7.228   8.399  17.404  0.00  0.00    +0.000 A 
ATOM      4  C   UNL     1       8.162   8.494  18.357  0.00  0.00    +0.000 A 
ATOM      5  O   UNL     1       8.506   7.397  19.153  0.00  0.00    +0.000 OA
ATOM      6  C   UNL     1       7.895   6.194  18.964  0.00  0.00    +0.000 A 
ATOM      7  O   UNL     1       8.249   5.223  19.634  0.00  0.00    +0.000 OA
ENDROOT
BRANCH   4   8
ATOM      8  C   UNL     1       8.946   9.716  18.595  0.00  0.00    +0.000 A 
ATOM      9  C   UNL     1       9.435  10.493  17.531  0.00  0.00    +0.000 A 
ATOM     10  C   UNL     1      10.237  11.610  17.775  0.00  0.00    +0.000 A 
ATOM     11  C   UNL     1      10.536  11.961  19.081  0.00  0.00    +0.000 A 
ATOM     12  F   UNL     1      11.319  13.023  19.315  0.00  0.00    +0.000 F 
ATOM     13  C   UNL     1      10.040  11.230  20.154  0.00  0.00    +0.000 A 
ATOM     14  C   UNL     1       9.240  10.113  19.910  0.00  0.00    +0.000 A 
ENDBRANCH   4   8
BRANCH   1  16
ATOM     15  O   UNL     1       6.442   4.034  16.739  0.00  0.00    +0.000 OA
ATOM     16  C   UNL     1       6.167   4.748  17.701  0.00  0.00    +0.000 C 
ATOM     17  N   UNL     1       5.220   4.382  18.631  0.00  0.00    +0.000 N 
ATOM     18  H   UNL     1       4.867   5.098  19.263  0.00  0.00    +0.000 HD
BRANCH  17  19
ATOM     19  C   UNL     1       4.466   3.137  18.537  0.00  0.00    +0.000 C 
ATOM     20  C   UNL     1       3.905   2.734  19.908  0.00  0.00    +0.000 C 
ATOM     21  C   UNL     1       2.736   3.609  20.360  0.00  0.00    +0.000 C 
ATOM     22  C   UNL     1       1.643   3.687  19.299  0.00  0.00    +0.000 C 
ATOM     23  C   UNL     1       2.197   4.127  17.948  0.00  0.00    +0.000 C 
ATOM     24  C   UNL     1       3.346   3.227  17.492  0.00  0.00    +0.000 C 
ENDBRANCH  17  19
ENDBRANCH   1  16
BRANCH   2  25
ATOM     25  N   UNL     1       5.603   7.228  16.112  0.00  0.00    +0.000 N 
ATOM     26  H   UNL     1       4.629   7.176  16.415  0.00  0.00    +0.000 HD
BRANCH  25  27
ATOM     27  O   UNL     1       5.791   6.355  15.033  0.00  0.00    +0.000 OA
ATOM     28  H   UNL     1       5.877   5.471  15.462  0.00  0.00    +0.000 HD
ENDBRANCH  25  27
ENDBRANCH   2  25
TORSDOF 5
ENDMDL
MODEL 6
REMARK VINA RESULT:      -7.8      5.694      7.245
REMARK  Name = 
REMARK  5 active torsions:
REMARK  status: ('A' for Active; 'I' for Inactive)
REMARK    1  A    between atoms: C_2  and  C_10
REMARK    2  A    between atoms: N_3  and  C_4
REMARK    3  A    between atoms: C_11  and  N_12
REMARK    4  A    between atoms: N_12  and  O_13
REMARK    5  A    between atoms: C_15  and  C_16
REMARK                            x       y       z     vdW  Elec       q    Type
REMARK                         _______ _______ _______ _____ _____    ______ ____
ROOT
ATOM      1  C   UNL     1       2.321   7.582  19.026  0.00  0.00    +0.000 A 
ATOM      2  C   UNL     1       1.931   7.237  20.279  0.00  0.00    +0.000 A 
ATOM      3  C   UNL     1       1.061   8.142  21.005  0.00  0.00    +0.000 A 
ATOM      4  C   UNL     1       0.665   9.304  20.470  0.00  0.00    +0.000 A 
ATOM      5  O   UNL     1       1.054   9.684  19.182  0.00  0.00    +0.000 OA
ATOM      6  C   UNL     1       1.845   8.865  18.435  0.00  0.00    +0.000 A 
ATOM      7  O   UNL     1       2.132   9.187  17.282  0.00  0.00    +0.000 OA
ENDROOT
BRANCH   4   8
ATOM      8  C   UNL     1      -0.256  10.229  21.150  0.00  0.00    +0.000 A 
ATOM      9  C   UNL     1      -0.883  11.280  20.458  0.00  0.00    +0.000 A 
ATOM     10  C   UNL     1      -1.698  12.190  21.134  0.00  0.00    +0.000 A 
ATOM     11  C   UNL     1      -1.901  12.041  22.496  0.00  0.00    +0.000 A 
ATOM     12  F   UNL     1      -2.670  12.924  23.147  0.00  0.00    +0.000 F 
ATOM     13  C   UNL     1      -1.319  10.994  23.199  0.00  0.00    +0.000 A 
ATOM     14  C   UNL     1      -0.504  10.084  22.525  0.00  0.00    +0.000 A 
ENDBRANCH   4   8
BRANCH   1  16
ATOM     15  O   UNL     1       4.175   7.058  17.600  0.00  0.00    +0.000 OA
ATOM     16  C   UNL     1       3.177   6.663  18.199  0.00  0.00    +0.000 C 
ATOM     17  N   UNL     1       2.766   5.350  18.141  0.00  0.00    +0.000 N 
ATOM     18  H   UNL     1       1.822   5.129  18.453  0.00  0.00    +0.000 HD
BRANCH  17  19
ATOM     19  C   UNL     1       3.469   4.340  17.360  0.00  0.00    +0.000 C 
ATOM     20  C   UNL     1       4.700   3.824  18.116  0.00  0.00    +0.000 C 
ATOM     21  C   UNL     1       4.347   2.914  19.293  0.00  0.00    +0.000 C 
ATOM     22  C   UNL     1       3.421   1.778  18.872  0.00  0.00    +0.000 C 
ATOM     23  C   UNL     1       2.178   2.297  18.156  0.00  0.00    +0.000 C 
ATOM     24  C   UNL     1       2.544   3.181  16.964  0.00  0.00    +0.000 C 
ENDBRANCH  17  19
ENDBRANCH   1  16
BRANCH   2  25
ATOM     25  N   UNL     1       2.210   6.056  20.972  0.00  0.00    +0.000 N 
ATOM     26  H   UNL     1       3.190   5.774  20.909  0.00  0.00    +0.000 HD
BRANCH  25  27
ATOM     27  O   UNL     1       1.400   4.942  20.713  0.00  0.00    +0.000 OA
ATOM     28  H   UNL     1       1.244   4.557  21.608  0.00  0.00    +0.000 HD
ENDBRANCH  25  27
ENDBRANCH   2  25
TORSDOF 5
ENDMDL
MODEL 7
REMARK VINA RESULT:      -7.7      1.465      1.691
REMARK  Name = 
REMARK  5 active torsions:
REMARK  status: ('A' for Active; 'I' for Inactive)
REMARK    1  A    between atoms: C_2  and  C_10
REMARK    2  A    between atoms: N_3  and  C_4
REMARK    3  A    between atoms: C_11  and  N_12
REMARK    4  A    between atoms: N_12  and  O_13
REMARK    5  A    between atoms: C_15  and  C_16
REMARK                            x       y       z     vdW  Elec       q    Type
REMARK                         _______ _______ _______ _____ _____    ______ ____
ROOT
ATOM      1  C   UNL     1       5.725   5.917  16.924  0.00  0.00    +0.000 A 
ATOM      2  C   UNL     1       7.075   5.773  16.935  0.00  0.00    +0.000 A 
ATOM      3  C   UNL     1       7.887   6.916  17.310  0.00  0.00    +0.000 A 
ATOM      4  C   UNL     1       7.329   8.094  17.616  0.00  0.00    +0.000 A 
ATOM      5  O   UNL     1       5.942   8.268  17.610  0.00  0.00    +0.000 OA
ATOM      6  C   UNL     1       5.122   7.227  17.298  0.00  0.00    +0.000 A 
ATOM      7  O   UNL     1       3.901   7.380  17.352  0.00  0.00    +0.000 OA
ENDROOT
BRANCH   4   8
ATOM      8  C   UNL     1       8.110   9.264  18.049  0.00  0.00    +0.000 A 
ATOM      9  C   UNL     1       8.965   9.204  19.163  0.00  0.00    +0.000 A 
ATOM     10  C   UNL     1       9.643  10.343  19.602  0.00  0.00    +0.000 A 
ATOM     11  C   UNL     1       9.481  11.537  18.919  0.00  0.00    +0.000 A 
ATOM     12  F   UNL     1      10.119  12.634  19.349  0.00  0.00    +0.000 F 
ATOM     13  C   UNL     1       8.667  11.618  17.795  0.00  0.00    +0.000 A 
ATOM     14  C   UNL     1       7.988  10.480  17.357  0.00  0.00    +0.000 A 
ENDBRANCH   4   8
BRANCH   1  16
ATOM     15  O   UNL     1       4.987   4.060  15.600  0.00  0.00    +0.000 OA
ATOM     16  C   UNL     1       4.825   4.757  16.600  0.00  0.00    +0.000 C 
ATOM     17  N   UNL     1       3.795   4.529  17.486  0.00  0.00    +0.000 N 
ATOM     18  H   UNL     1       3.568   5.263  18.154  0.00  0.00    +0.000 HD
BRANCH  17  19
ATOM     19  C   UNL     1       2.819   3.463  17.299  0.00  0.00    +0.000 C 
ATOM     20  C   UNL     1       3.309   2.156  17.936  0.00  0.00    +0.000 C 
ATOM     21  C   UNL     1       3.254   2.173  19.464  0.00  0.00    +0.000 C 
ATOM     22  C   UNL     1       1.874   2.573  19.977  0.00  0.00    +0.000 C 
ATOM     23  C   UNL     1       1.407   3.893  19.372  0.00  0.00    +0.000 C 
ATOM     24  C   UNL     1       1.438   3.854  17.844  0.00  0.00    +0.000 C 
ENDBRANCH  17  19
ENDBRANCH   1  16
BRANCH   2  25
ATOM     25  N   UNL     1       7.819   4.617  16.688  0.00  0.00    +0.000 N 
ATOM     26  H   UNL     1       7.326   3.938  16.106  0.00  0.00    +0.000 HD
BRANCH  25  27
ATOM     27  O   UNL     1       8.375   3.953  17.789  0.00  0.00    +0.000 OA
ATOM     28  H   UNL     1       9.346   4.049  17.652  0.00  0.00    +0.000 HD
ENDBRANCH  25  27
ENDBRANCH   2  25
TORSDOF 5
ENDMDL
MODEL 8
REMARK VINA RESULT:      -7.7      5.843      7.766
REMARK  Name = 
REMARK  5 active torsions:
REMARK  status: ('A' for Active; 'I' for Inactive)
REMARK    1  A    between atoms: C_2  and  C_10
REMARK    2  A    between atoms: N_3  and  C_4
REMARK    3  A    between atoms: C_11  and  N_12
REMARK    4  A    between atoms: N_12  and  O_13
REMARK    5  A    between atoms: C_15  and  C_16
REMARK                            x       y       z     vdW  Elec       q    Type
REMARK                         _______ _______ _______ _____ _____    ______ ____
ROOT
ATOM      1  C   UNL     1       1.889   8.244  19.367  0.00  0.00    +0.000 A 
ATOM      2  C   UNL     1       2.223   7.010  19.823  0.00  0.00    +0.000 A 
ATOM      3  C   UNL     1       3.057   6.168  18.986  0.00  0.00    +0.000 A 
ATOM      4  C   UNL     1       3.472   6.579  17.782  0.00  0.00    +0.000 A 
ATOM      5  O   UNL     1       3.140   7.844  17.288  0.00  0.00    +0.000 OA
ATOM      6  C   UNL     1       2.387   8.696  18.037  0.00  0.00    +0.000 A 
ATOM      7  O   UNL     1       2.151   9.828  17.613  0.00  0.00    +0.000 OA
ENDROOT
BRANCH   4   8
ATOM      8  C   UNL     1       4.360   5.779  16.922  0.00  0.00    +0.000 A 
ATOM      9  C   UNL     1       5.149   6.377  15.925  0.00  0.00    +0.000 A 
ATOM     10  C   UNL     1       5.930   5.595  15.071  0.00  0.00    +0.000 A 
ATOM     11  C   UNL     1       5.936   4.218  15.225  0.00  0.00    +0.000 A 
ATOM     12  F   UNL     1       6.674   3.467  14.396  0.00  0.00    +0.000 F 
ATOM     13  C   UNL     1       5.190   3.603  16.222  0.00  0.00    +0.000 A 
ATOM     14  C   UNL     1       4.408   4.383  17.074  0.00  0.00    +0.000 A 
ENDBRANCH   4   8
BRANCH   1  16
ATOM     15  O   UNL     1       1.148   9.203  21.434  0.00  0.00    +0.000 OA
ATOM     16  C   UNL     1       1.075   9.188  20.207  0.00  0.00    +0.000 C 
ATOM     17  N   UNL     1       0.228  10.028  19.519  0.00  0.00    +0.000 N 
ATOM     18  H   UNL     1       0.034   9.816  18.542  0.00  0.00    +0.000 HD
BRANCH  17  19
ATOM     19  C   UNL     1      -0.650  10.981  20.188  0.00  0.00    +0.000 C 
ATOM     20  C   UNL     1       0.150  12.171  20.732  0.00  0.00    +0.000 C 
ATOM     21  C   UNL     1       0.633  13.123  19.636  0.00  0.00    +0.000 C 
ATOM     22  C   UNL     1      -0.511  13.572  18.732  0.00  0.00    +0.000 C 
ATOM     23  C   UNL     1      -1.280  12.384  18.161  0.00  0.00    +0.000 C 
ATOM     24  C   UNL     1      -1.782  11.456  19.267  0.00  0.00    +0.000 C 
ENDBRANCH  17  19
ENDBRANCH   1  16
BRANCH   2  25
ATOM     25  N   UNL     1       1.918   6.439  21.061  0.00  0.00    +0.000 N 
ATOM     26  H   UNL     1       2.145   7.045  21.851  0.00  0.00    +0.000 HD
BRANCH  25  27
ATOM     27  O   UNL     1       2.403   5.151  21.322  0.00  0.00    +0.000 OA
ATOM     28  H   UNL     1       2.522   4.762  20.423  0.00  0.00    +0.000 HD
ENDBRANCH  25  27
ENDBRANCH   2  25
TORSDOF 5
ENDMDL
MODEL 9
REMARK VINA RESULT:      -7.6      5.062      6.898
REMARK  Name = 
REMARK  5 active torsions:
REMARK  status: ('A' for Active; 'I' for Inactive)
REMARK    1  A    between atoms: C_2  and  C_10
REMARK    2  A    between atoms: N_3  and  C_4
REMARK    3  A    between atoms: C_11  and  N_12
REMARK    4  A    between atoms: N_12  and  O_13
REMARK    5  A    between atoms: C_15  and  C_16
REMARK                            x       y       z     vdW  Elec       q    Type
REMARK                         _______ _______ _______ _____ _____    ______ ____
ROOT
ATOM      1  C   UNL     1       2.868   6.156  19.203  0.00  0.00    +0.000 A 
ATOM      2  C   UNL     1       2.213   6.086  20.390  0.00  0.00    +0.000 A 
ATOM      3  C   UNL     1       1.436   7.235  20.817  0.00  0.00    +0.000 A 
ATOM      4  C   UNL     1       1.379   8.350  20.078  0.00  0.00    +0.000 A 
ATOM      5  O   UNL     1       2.046   8.447  18.854  0.00  0.00    +0.000 OA
ATOM      6  C   UNL     1       2.767   7.394  18.379  0.00  0.00    +0.000 A 
ATOM      7  O   UNL     1       3.302   7.474  17.273  0.00  0.00    +0.000 OA
ENDROOT
BRANCH   4   8
ATOM      8  C   UNL     1       0.565   9.519  20.448  0.00  0.00    +0.000 A 
ATOM      9  C   UNL     1       0.490   9.969  21.777  0.00  0.00    +0.000 A 
ATOM     10  C   UNL     1      -0.344  11.036  22.121  0.00  0.00    +0.000 A 
ATOM     11  C   UNL     1      -1.088  11.663  21.135  0.00  0.00    +0.000 A 
ATOM     12  F   UNL     1      -1.900  12.676  21.467  0.00  0.00    +0.000 F 
ATOM     13  C   UNL     1      -1.009  11.258  19.808  0.00  0.00    +0.000 A 
ATOM     14  C   UNL     1      -0.178  10.192  19.464  0.00  0.00    +0.000 A 
ENDBRANCH   4   8
BRANCH   1  16
ATOM     15  O   UNL     1       3.223   3.829  18.751  0.00  0.00    +0.000 OA
ATOM     16  C   UNL     1       3.644   4.982  18.676  0.00  0.00    +0.000 C 
ATOM     17  N   UNL     1       4.867   5.274  18.114  0.00  0.00    +0.000 N 
ATOM     18  H   UNL     1       5.266   6.195  18.287  0.00  0.00    +0.000 HD
BRANCH  17  19
ATOM     19  C   UNL     1       5.755   4.246  17.583  0.00  0.00    +0.000 C 
ATOM     20  C   UNL     1       5.256   3.743  16.223  0.00  0.00    +0.000 C 
ATOM     21  C   UNL     1       5.468   4.752  15.093  0.00  0.00    +0.000 C 
ATOM     22  C   UNL     1       6.915   5.231  15.027  0.00  0.00    +0.000 C 
ATOM     23  C   UNL     1       7.395   5.767  16.372  0.00  0.00    +0.000 C 
ATOM     24  C   UNL     1       7.205   4.739  17.487  0.00  0.00    +0.000 C 
ENDBRANCH  17  19
ENDBRANCH   1  16
BRANCH   2  25
ATOM     25  N   UNL     1       2.127   4.999  21.262  0.00  0.00    +0.000 N 
ATOM     26  H   UNL     1       3.031   4.568  21.459  0.00  0.00    +0.000 HD
BRANCH  25  27
ATOM     27  O   UNL     1       1.201   3.992  20.958  0.00  0.00    +0.000 OA
ATOM     28  H   UNL     1       0.945   3.638  21.842  0.00  0.00    +0.000 HD
ENDBRANCH  25  27
ENDBRANCH   2  25
TORSDOF 5
ENDMDL
