MODEL 1
REMARK VINA RESULT:      -8.4      0.000      0.000
REMARK  Name = 
REMARK  6 active torsions:
REMARK  status: ('A' for Active; 'I' for Inactive)
REMARK    1  A    between atoms: C_1  and  C_2
REMARK    2  A    between atoms: C_2  and  N_3
REMARK    3  A    between atoms: C_4  and  C_6
REMARK    4  A    between atoms: C_10  and  S_11
REMARK    5  A    between atoms: S_11  and  N_14
REMARK    6  A    between atoms: N_17  and  C_18
REMARK                            x       y       z     vdW  Elec       q    Type
REMARK                         _______ _______ _______ _____ _____    ______ ____
ROOT
ATOM      1  C   UNL     1       2.011   8.103  19.018  0.00  0.00    +0.000 A 
ATOM      2  C   UNL     1       1.734   8.651  17.755  0.00  0.00    +0.000 A 
ATOM      3  C   UNL     1       0.939   9.792  17.630  0.00  0.00    +0.000 A 
ATOM      4  C   UNL     1       0.397  10.390  18.767  0.00  0.00    +0.000 A 
ATOM      5  C   UNL     1       0.635   9.836  20.031  0.00  0.00    +0.000 A 
ATOM      6  C   UNL     1       1.461   8.699  20.163  0.00  0.00    +0.000 A 
ENDROOT
BRANCH   1   8
ATOM      7  N   UNL     1       3.680   6.613  17.970  0.00  0.00    +0.000 N 
ATOM      8  C   UNL     1       2.866   6.871  19.050  0.00  0.00    +0.000 C 
ATOM      9  O   UNL     1       2.803   6.126  20.017  0.00  0.00    +0.000 OA
ATOM     10  H   UNL     1       3.470   7.130  17.123  0.00  0.00    +0.000 HD
BRANCH   7  12
ATOM     11  C   UNL     1       3.521   4.231  17.591  0.00  0.00    +0.000 C 
ATOM     12  C   UNL     1       4.519   5.392  17.790  0.00  0.00    +0.000 C 
ATOM     13  C   UNL     1       5.420   5.146  19.029  0.00  0.00    +0.000 C 
ATOM     14  C   UNL     1       6.731   5.903  18.824  0.00  0.00    +0.000 C 
ATOM     15  S   UNL     1       7.121   5.645  17.108  0.00  0.00    +0.000 S 
ATOM     16  O   UNL     1       7.816   4.373  17.010  0.00  0.00    +0.000 OA
ATOM     17  O   UNL     1       7.681   6.843  16.526  0.00  0.00    +0.000 OA
ATOM     18  C   UNL     1       5.447   5.388  16.545  0.00  0.00    +0.000 C 
ENDBRANCH   7  12
ENDBRANCH   1   8
BRANCH   5  19
ATOM     19  S   UNL     1       0.119  10.755  21.476  0.00  0.00    +0.000 S 
ATOM     20  O   UNL     1      -1.293  11.052  21.282  0.00  0.00    +0.000 OA
ATOM     21  O   UNL     1       0.556   9.993  22.627  0.00  0.00    +0.000 OA
BRANCH  19  22
ATOM     22  N   UNL     1       0.954  12.209  21.487  0.00  0.00    +0.000 NA
ATOM     23  C   UNL     1       2.233  12.379  20.762  0.00  0.00    +0.000 C 
ATOM     24  C   UNL     1       2.020  13.015  19.373  0.00  0.00    +0.000 C 
ATOM     25  N   UNL     1       1.147  14.201  19.445  0.00  0.00    +0.000 N 
ATOM     26  C   UNL     1      -0.072  14.113  20.271  0.00  0.00    +0.000 C 
ATOM     27  C   UNL     1       0.237  13.495  21.637  0.00  0.00    +0.000 C 
BRANCH  25  28
ATOM     28  C   UNL     1       1.423  15.388  18.792  0.00  0.00    +0.000 A 
ATOM     29  C   UNL     1       2.649  15.582  18.130  0.00  0.00    +0.000 A 
ATOM     30  C   UNL     1       2.890  16.702  17.330  0.00  0.00    +0.000 A 
ATOM     31  C   UNL     1       1.913  17.679  17.195  0.00  0.00    +0.000 A 
ATOM     32  C   UNL     1       0.719  17.550  17.896  0.00  0.00    +0.000 A 
ATOM     33  C   UNL     1       0.482  16.421  18.688  0.00  0.00    +0.000 A 
ENDBRANCH  25  28
ENDBRANCH  19  22
ENDBRANCH   5  19
TORSDOF 5
ENDMDL
MODEL 2
REMARK VINA RESULT:      -8.2      1.989      2.454
REMARK  Name = 
REMARK  6 active torsions:
REMARK  status: ('A' for Active; 'I' for Inactive)
REMARK    1  A    between atoms: C_1  and  C_2
REMARK    2  A    between atoms: C_2  and  N_3
REMARK    3  A    between atoms: C_4  and  C_6
REMARK    4  A    between atoms: C_10  and  S_11
REMARK    5  A    between atoms: S_11  and  N_14
REMARK    6  A    between atoms: N_17  and  C_18
REMARK                            x       y       z     vdW  Elec       q    Type
REMARK                         _______ _______ _______ _____ _____    ______ ____
ROOT
ATOM      1  C   UNL     1       1.829   7.990  19.472  0.00  0.00    +0.000 A 
ATOM      2  C   UNL     1       1.789   8.475  18.155  0.00  0.00    +0.000 A 
ATOM      3  C   UNL     1       1.173   9.693  17.861  0.00  0.00    +0.000 A 
ATOM      4  C   UNL     1       0.576  10.434  18.880  0.00  0.00    +0.000 A 
ATOM      5  C   UNL     1       0.578   9.948  20.194  0.00  0.00    +0.000 A 
ATOM      6  C   UNL     1       1.224   8.731  20.499  0.00  0.00    +0.000 A 
ENDROOT
BRANCH   1   8
ATOM      7  N   UNL     1       3.405   6.232  18.741  0.00  0.00    +0.000 N 
ATOM      8  C   UNL     1       2.504   6.667  19.688  0.00  0.00    +0.000 C 
ATOM      9  O   UNL     1       2.224   6.009  20.678  0.00  0.00    +0.000 OA
ATOM     10  H   UNL     1       3.371   6.708  17.845  0.00  0.00    +0.000 HD
BRANCH   7  12
ATOM     11  C   UNL     1       5.524   5.185  19.247  0.00  0.00    +0.000 C 
ATOM     12  C   UNL     1       4.091   4.907  18.743  0.00  0.00    +0.000 C 
ATOM     13  C   UNL     1       4.112   4.288  17.320  0.00  0.00    +0.000 C 
ATOM     14  C   UNL     1       2.837   3.466  17.138  0.00  0.00    +0.000 C 
ATOM     15  S   UNL     1       2.624   2.639  18.698  0.00  0.00    +0.000 S 
ATOM     16  O   UNL     1       3.432   1.433  18.660  0.00  0.00    +0.000 OA
ATOM     17  O   UNL     1       1.227   2.585  19.061  0.00  0.00    +0.000 OA
ATOM     18  C   UNL     1       3.493   3.838  19.695  0.00  0.00    +0.000 C 
ENDBRANCH   7  12
ENDBRANCH   1   8
BRANCH   5  19
ATOM     19  S   UNL     1       0.011  11.027  21.503  0.00  0.00    +0.000 S 
ATOM     20  O   UNL     1      -1.390  11.303  21.219  0.00  0.00    +0.000 OA
ATOM     21  O   UNL     1       0.395  10.399  22.750  0.00  0.00    +0.000 OA
BRANCH  19  22
ATOM     22  N   UNL     1       0.854  12.471  21.384  0.00  0.00    +0.000 NA
ATOM     23  C   UNL     1       1.943  12.657  20.399  0.00  0.00    +0.000 C 
ATOM     24  C   UNL     1       1.439  13.353  19.118  0.00  0.00    +0.000 C 
ATOM     25  N   UNL     1       0.626  14.544  19.428  0.00  0.00    +0.000 N 
ATOM     26  C   UNL     1      -0.380  14.433  20.501  0.00  0.00    +0.000 C 
ATOM     27  C   UNL     1       0.213  13.755  21.739  0.00  0.00    +0.000 C 
BRANCH  25  28
ATOM     28  C   UNL     1       0.773  15.754  18.776  0.00  0.00    +0.000 A 
ATOM     29  C   UNL     1       2.035  16.192  18.336  0.00  0.00    +0.000 A 
ATOM     30  C   UNL     1       2.189  17.328  17.537  0.00  0.00    +0.000 A 
ATOM     31  C   UNL     1       1.077  18.077  17.179  0.00  0.00    +0.000 A 
ATOM     32  C   UNL     1      -0.176  17.710  17.659  0.00  0.00    +0.000 A 
ATOM     33  C   UNL     1      -0.322  16.566  18.452  0.00  0.00    +0.000 A 
ENDBRANCH  25  28
ENDBRANCH  19  22
ENDBRANCH   5  19
TORSDOF 5
ENDMDL
MODEL 3
REMARK VINA RESULT:      -8.2      3.659      5.253
REMARK  Name = 
REMARK  6 active torsions:
REMARK  status: ('A' for Active; 'I' for Inactive)
REMARK    1  A    between atoms: C_1  and  C_2
REMARK    2  A    between atoms: C_2  and  N_3
REMARK    3  A    between atoms: C_4  and  C_6
REMARK    4  A    between atoms: C_10  and  S_11
REMARK    5  A    between atoms: S_11  and  N_14
REMARK    6  A    between atoms: N_17  and  C_18
REMARK                            x       y       z     vdW  Elec       q    Type
REMARK                         _______ _______ _______ _____ _____    ______ ____
ROOT
ATOM      1  C   UNL     1       1.284   8.764  20.079  0.00  0.00    +0.000 A 
ATOM      2  C   UNL     1       0.452   8.296  21.109  0.00  0.00    +0.000 A 
ATOM      3  C   UNL     1      -0.174   9.187  21.983  0.00  0.00    +0.000 A 
ATOM      4  C   UNL     1       0.038  10.558  21.848  0.00  0.00    +0.000 A 
ATOM      5  C   UNL     1       0.891  11.040  20.846  0.00  0.00    +0.000 A 
ATOM      6  C   UNL     1       1.502  10.144  19.944  0.00  0.00    +0.000 A 
ENDROOT
BRANCH   1   8
ATOM      7  N   UNL     1       2.234   6.508  19.746  0.00  0.00    +0.000 N 
ATOM      8  C   UNL     1       1.919   7.730  19.197  0.00  0.00    +0.000 C 
ATOM      9  O   UNL     1       2.156   8.005  18.030  0.00  0.00    +0.000 OA
ATOM     10  H   UNL     1       2.247   6.467  20.760  0.00  0.00    +0.000 HD
BRANCH   7  12
ATOM     11  C   UNL     1       4.261   6.034  18.516  0.00  0.00    +0.000 C 
ATOM     12  C   UNL     1       2.955   5.403  19.047  0.00  0.00    +0.000 C 
ATOM     13  C   UNL     1       2.101   4.828  17.886  0.00  0.00    +0.000 C 
ATOM     14  C   UNL     1       1.226   3.709  18.446  0.00  0.00    +0.000 C 
ATOM     15  S   UNL     1       2.295   2.836  19.567  0.00  0.00    +0.000 S 
ATOM     16  O   UNL     1       3.053   1.878  18.781  0.00  0.00    +0.000 OA
ATOM     17  O   UNL     1       1.571   2.420  20.745  0.00  0.00    +0.000 OA
ATOM     18  C   UNL     1       3.379   4.205  19.937  0.00  0.00    +0.000 C 
ENDBRANCH   7  12
ENDBRANCH   1   8
BRANCH   5  19
ATOM     19  S   UNL     1       0.956  12.804  20.557  0.00  0.00    +0.000 S 
ATOM     20  O   UNL     1       0.754  13.433  21.855  0.00  0.00    +0.000 OA
ATOM     21  O   UNL     1       2.165  13.053  19.802  0.00  0.00    +0.000 OA
BRANCH  19  22
ATOM     22  N   UNL     1      -0.343  13.214  19.579  0.00  0.00    +0.000 NA
ATOM     23  C   UNL     1      -0.795  12.337  18.476  0.00  0.00    +0.000 C 
ATOM     24  C   UNL     1      -1.970  11.437  18.910  0.00  0.00    +0.000 C 
ATOM     25  N   UNL     1      -3.018  12.206  19.606  0.00  0.00    +0.000 N 
ATOM     26  C   UNL     1      -2.595  13.190  20.619  0.00  0.00    +0.000 C 
ATOM     27  C   UNL     1      -1.445  14.055  20.095  0.00  0.00    +0.000 C 
BRANCH  25  28
ATOM     28  C   UNL     1      -4.368  12.059  19.342  0.00  0.00    +0.000 A 
ATOM     29  C   UNL     1      -5.335  12.425  20.295  0.00  0.00    +0.000 A 
ATOM     30  C   UNL     1      -6.701  12.440  19.997  0.00  0.00    +0.000 A 
ATOM     31  C   UNL     1      -7.137  12.056  18.736  0.00  0.00    +0.000 A 
ATOM     32  C   UNL     1      -6.209  11.619  17.797  0.00  0.00    +0.000 A 
ATOM     33  C   UNL     1      -4.843  11.616  18.101  0.00  0.00    +0.000 A 
ENDBRANCH  25  28
ENDBRANCH  19  22
ENDBRANCH   5  19
TORSDOF 5
ENDMDL
MODEL 4
REMARK VINA RESULT:      -8.2      2.733      3.732
REMARK  Name = 
REMARK  6 active torsions:
REMARK  status: ('A' for Active; 'I' for Inactive)
REMARK    1  A    between atoms: C_1  and  C_2
REMARK    2  A    between atoms: C_2  and  N_3
REMARK    3  A    between atoms: C_4  and  C_6
REMARK    4  A    between atoms: C_10  and  S_11
REMARK    5  A    between atoms: S_11  and  N_14
REMARK    6  A    between atoms: N_17  and  C_18
REMARK                            x       y       z     vdW  Elec       q    Type
REMARK                         _______ _______ _______ _____ _____    ______ ____
ROOT
ATOM      1  C   UNL     1       1.324   8.620  20.352  0.00  0.00    +0.000 A 
ATOM      2  C   UNL     1       1.443   8.476  21.743  0.00  0.00    +0.000 A 
ATOM      3  C   UNL     1       0.792   9.354  22.612  0.00  0.00    +0.000 A 
ATOM      4  C   UNL     1       0.025  10.399  22.098  0.00  0.00    +0.000 A 
ATOM      5  C   UNL     1      -0.077  10.578  20.712  0.00  0.00    +0.000 A 
ATOM      6  C   UNL     1       0.557   9.675  19.832  0.00  0.00    +0.000 A 
ENDROOT
BRANCH   1   8
ATOM      7  N   UNL     1       2.312   6.381  20.015  0.00  0.00    +0.000 N 
ATOM      8  C   UNL     1       2.068   7.634  19.501  0.00  0.00    +0.000 C 
ATOM      9  O   UNL     1       2.453   7.974  18.391  0.00  0.00    +0.000 OA
ATOM     10  H   UNL     1       2.194   6.283  21.019  0.00  0.00    +0.000 HD
BRANCH   7  12
ATOM     11  C   UNL     1       4.571   5.835  19.348  0.00  0.00    +0.000 C 
ATOM     12  C   UNL     1       3.117   5.313  19.353  0.00  0.00    +0.000 C 
ATOM     13  C   UNL     1       2.615   5.052  17.908  0.00  0.00    +0.000 C 
ATOM     14  C   UNL     1       1.520   3.989  17.967  0.00  0.00    +0.000 C 
ATOM     15  S   UNL     1       2.119   2.811  19.157  0.00  0.00    +0.000 S 
ATOM     16  O   UNL     1       2.999   1.895  18.451  0.00  0.00    +0.000 OA
ATOM     17  O   UNL     1       1.037   2.316  19.977  0.00  0.00    +0.000 OA
ATOM     18  C   UNL     1       3.148   3.942  20.078  0.00  0.00    +0.000 C 
ENDBRANCH   7  12
ENDBRANCH   1   8
BRANCH   5  19
ATOM     19  S   UNL     1      -1.248  11.779  20.091  0.00  0.00    +0.000 S 
ATOM     20  O   UNL     1      -1.743  11.245  18.830  0.00  0.00    +0.000 OA
ATOM     21  O   UNL     1      -2.163  12.061  21.177  0.00  0.00    +0.000 OA
BRANCH  19  22
ATOM     22  N   UNL     1      -0.409  13.192  19.757  0.00  0.00    +0.000 NA
ATOM     23  C   UNL     1       0.216  13.998  20.830  0.00  0.00    +0.000 C 
ATOM     24  C   UNL     1       1.713  13.666  20.993  0.00  0.00    +0.000 C 
ATOM     25  N   UNL     1       2.412  13.649  19.695  0.00  0.00    +0.000 N 
ATOM     26  C   UNL     1       1.754  12.969  18.564  0.00  0.00    +0.000 C 
ATOM     27  C   UNL     1       0.282  13.376  18.463  0.00  0.00    +0.000 C 
BRANCH  25  28
ATOM     28  C   UNL     1       3.640  14.252  19.486  0.00  0.00    +0.000 A 
ATOM     29  C   UNL     1       4.180  14.367  18.193  0.00  0.00    +0.000 A 
ATOM     30  C   UNL     1       5.335  15.110  17.936  0.00  0.00    +0.000 A 
ATOM     31  C   UNL     1       6.001  15.736  18.980  0.00  0.00    +0.000 A 
ATOM     32  C   UNL     1       5.532  15.580  20.280  0.00  0.00    +0.000 A 
ATOM     33  C   UNL     1       4.369  14.841  20.528  0.00  0.00    +0.000 A 
ENDBRANCH  25  28
ENDBRANCH  19  22
ENDBRANCH   5  19
TORSDOF 5
ENDMDL
MODEL 5
REMARK VINA RESULT:      -8.1      2.632      3.762
REMARK  Name = 
REMARK  6 active torsions:
REMARK  status: ('A' for Active; 'I' for Inactive)
REMARK    1  A    between atoms: C_1  and  C_2
REMARK    2  A    between atoms: C_2  and  N_3
REMARK    3  A    between atoms: C_4  and  C_6
REMARK    4  A    between atoms: C_10  and  S_11
REMARK    5  A    between atoms: S_11  and  N_14
REMARK    6  A    between atoms: N_17  and  C_18
REMARK                            x       y       z     vdW  Elec       q    Type
REMARK                         _______ _______ _______ _____ _____    ______ ____
ROOT
ATOM      1  C   UNL     1       2.104   7.809  19.044  0.00  0.00    +0.000 A 
ATOM      2  C   UNL     1       1.875   8.445  17.813  0.00  0.00    +0.000 A 
ATOM      3  C   UNL     1       1.087   9.595  17.739  0.00  0.00    +0.000 A 
ATOM      4  C   UNL     1       0.504  10.114  18.894  0.00  0.00    +0.000 A 
ATOM      5  C   UNL     1       0.694   9.472  20.125  0.00  0.00    +0.000 A 
ATOM      6  C   UNL     1       1.513   8.326  20.207  0.00  0.00    +0.000 A 
ENDROOT
BRANCH   1   8
ATOM      7  N   UNL     1       3.795   6.380  17.947  0.00  0.00    +0.000 N 
ATOM      8  C   UNL     1       2.956   6.574  19.021  0.00  0.00    +0.000 C 
ATOM      9  O   UNL     1       2.869   5.772  19.939  0.00  0.00    +0.000 OA
ATOM     10  H   UNL     1       3.606   6.949  17.128  0.00  0.00    +0.000 HD
BRANCH   7  12
ATOM     11  C   UNL     1       3.639   4.014  17.475  0.00  0.00    +0.000 C 
ATOM     12  C   UNL     1       4.636   5.169  17.712  0.00  0.00    +0.000 C 
ATOM     13  C   UNL     1       5.546   4.877  18.934  0.00  0.00    +0.000 C 
ATOM     14  C   UNL     1       6.854   5.645  18.750  0.00  0.00    +0.000 C 
ATOM     15  S   UNL     1       7.231   5.457  17.022  0.00  0.00    +0.000 S 
ATOM     16  O   UNL     1       7.929   4.191  16.869  0.00  0.00    +0.000 OA
ATOM     17  O   UNL     1       7.784   6.678  16.483  0.00  0.00    +0.000 OA
ATOM     18  C   UNL     1       5.554   5.217  16.462  0.00  0.00    +0.000 C 
ENDBRANCH   7  12
ENDBRANCH   1   8
BRANCH   5  19
ATOM     19  S   UNL     1       0.126  10.290  21.611  0.00  0.00    +0.000 S 
ATOM     20  O   UNL     1      -0.939   9.456  22.148  0.00  0.00    +0.000 OA
ATOM     21  O   UNL     1       1.305  10.572  22.402  0.00  0.00    +0.000 OA
BRANCH  19  22
ATOM     22  N   UNL     1      -0.546  11.760  21.165  0.00  0.00    +0.000 NA
ATOM     23  C   UNL     1      -1.983  11.892  20.838  0.00  0.00    +0.000 C 
ATOM     24  C   UNL     1      -2.800  12.384  22.051  0.00  0.00    +0.000 C 
ATOM     25  N   UNL     1      -2.167  13.548  22.698  0.00  0.00    +0.000 N 
ATOM     26  C   UNL     1      -0.709  13.508  22.918  0.00  0.00    +0.000 C 
ATOM     27  C   UNL     1       0.021  13.034  21.658  0.00  0.00    +0.000 C 
BRANCH  25  28
ATOM     28  C   UNL     1      -2.869  14.673  23.091  0.00  0.00    +0.000 A 
ATOM     29  C   UNL     1      -3.210  14.879  24.440  0.00  0.00    +0.000 A 
ATOM     30  C   UNL     1      -3.774  16.077  24.887  0.00  0.00    +0.000 A 
ATOM     31  C   UNL     1      -4.040  17.096  23.982  0.00  0.00    +0.000 A 
ATOM     32  C   UNL     1      -3.781  16.893  22.631  0.00  0.00    +0.000 A 
ATOM     33  C   UNL     1      -3.209  15.693  22.193  0.00  0.00    +0.000 A 
ENDBRANCH  25  28
ENDBRANCH  19  22
ENDBRANCH   5  19
TORSDOF 5
ENDMDL
MODEL 6
REMARK VINA RESULT:      -8.1      3.535      4.640
REMARK  Name = 
REMARK  6 active torsions:
REMARK  status: ('A' for Active; 'I' for Inactive)
REMARK    1  A    between atoms: C_1  and  C_2
REMARK    2  A    between atoms: C_2  and  N_3
REMARK    3  A    between atoms: C_4  and  C_6
REMARK    4  A    between atoms: C_10  and  S_11
REMARK    5  A    between atoms: S_11  and  N_14
REMARK    6  A    between atoms: N_17  and  C_18
REMARK                            x       y       z     vdW  Elec       q    Type
REMARK                         _______ _______ _______ _____ _____    ______ ____
ROOT
ATOM      1  C   UNL     1       2.223   7.461  19.207  0.00  0.00    +0.000 A 
ATOM      2  C   UNL     1       2.121   8.033  17.929  0.00  0.00    +0.000 A 
ATOM      3  C   UNL     1       1.612   9.322  17.762  0.00  0.00    +0.000 A 
ATOM      4  C   UNL     1       1.184  10.050  18.871  0.00  0.00    +0.000 A 
ATOM      5  C   UNL     1       1.248   9.481  20.150  0.00  0.00    +0.000 A 
ATOM      6  C   UNL     1       1.788   8.189  20.325  0.00  0.00    +0.000 A 
ENDROOT
BRANCH   1   8
ATOM      7  N   UNL     1       3.856   5.748  18.497  0.00  0.00    +0.000 N 
ATOM      8  C   UNL     1       2.773   6.067  19.285  0.00  0.00    +0.000 C 
ATOM      9  O   UNL     1       2.237   5.254  20.023  0.00  0.00    +0.000 OA
ATOM     10  H   UNL     1       4.058   6.392  17.739  0.00  0.00    +0.000 HD
BRANCH   7  12
ATOM     11  C   UNL     1       5.995   4.622  18.440  0.00  0.00    +0.000 C 
ATOM     12  C   UNL     1       4.469   4.393  18.374  0.00  0.00    +0.000 C 
ATOM     13  C   UNL     1       4.064   3.718  17.036  0.00  0.00    +0.000 C 
ATOM     14  C   UNL     1       2.763   2.951  17.263  0.00  0.00    +0.000 C 
ATOM     15  S   UNL     1       2.972   2.198  18.861  0.00  0.00    +0.000 S 
ATOM     16  O   UNL     1       3.693   0.953  18.659  0.00  0.00    +0.000 OA
ATOM     17  O   UNL     1       1.733   2.225  19.604  0.00  0.00    +0.000 OA
ATOM     18  C   UNL     1       4.129   3.392  19.510  0.00  0.00    +0.000 C 
ENDBRANCH   7  12
ENDBRANCH   1   8
BRANCH   5  19
ATOM     19  S   UNL     1       0.909  10.522  21.565  0.00  0.00    +0.000 S 
ATOM     20  O   UNL     1       1.360   9.777  22.731  0.00  0.00    +0.000 OA
ATOM     21  O   UNL     1       1.470  11.822  21.263  0.00  0.00    +0.000 OA
BRANCH  19  22
ATOM     22  N   UNL     1      -0.754  10.705  21.683  0.00  0.00    +0.000 NA
ATOM     23  C   UNL     1      -1.425  10.900  22.988  0.00  0.00    +0.000 C 
ATOM     24  C   UNL     1      -1.679  12.393  23.280  0.00  0.00    +0.000 C 
ATOM     25  N   UNL     1      -2.286  13.079  22.124  0.00  0.00    +0.000 N 
ATOM     26  C   UNL     1      -1.728  12.803  20.787  0.00  0.00    +0.000 C 
ATOM     27  C   UNL     1      -1.532  11.300  20.575  0.00  0.00    +0.000 C 
BRANCH  25  28
ATOM     28  C   UNL     1      -3.355  13.949  22.233  0.00  0.00    +0.000 A 
ATOM     29  C   UNL     1      -4.571  13.688  21.578  0.00  0.00    +0.000 A 
ATOM     30  C   UNL     1      -5.714  14.462  21.799  0.00  0.00    +0.000 A 
ATOM     31  C   UNL     1      -5.658  15.544  22.667  0.00  0.00    +0.000 A 
ATOM     32  C   UNL     1      -4.450  15.870  23.274  0.00  0.00    +0.000 A 
ATOM     33  C   UNL     1      -3.313  15.085  23.052  0.00  0.00    +0.000 A 
ENDBRANCH  25  28
ENDBRANCH  19  22
ENDBRANCH   5  19
TORSDOF 5
ENDMDL
MODEL 7
REMARK VINA RESULT:      -8.0      1.734      2.422
REMARK  Name = 
REMARK  6 active torsions:
REMARK  status: ('A' for Active; 'I' for Inactive)
REMARK    1  A    between atoms: C_1  and  C_2
REMARK    2  A    between atoms: C_2  and  N_3
REMARK    3  A    between atoms: C_4  and  C_6
REMARK    4  A    between atoms: C_10  and  S_11
REMARK    5  A    between atoms: S_11  and  N_14
REMARK    6  A    between atoms: N_17  and  C_18
REMARK                            x       y       z     vdW  Elec       q    Type
REMARK                         _______ _______ _______ _____ _____    ______ ____
ROOT
ATOM      1  C   UNL     1       2.282   6.867  19.775  0.00  0.00    +0.000 A 
ATOM      2  C   UNL     1       1.589   6.693  20.983  0.00  0.00    +0.000 A 
ATOM      3  C   UNL     1       0.723   7.680  21.460  0.00  0.00    +0.000 A 
ATOM      4  C   UNL     1       0.552   8.861  20.739  0.00  0.00    +0.000 A 
ATOM      5  C   UNL     1       1.262   9.065  19.548  0.00  0.00    +0.000 A 
ATOM      6  C   UNL     1       2.116   8.058  19.050  0.00  0.00    +0.000 A 
ENDROOT
BRANCH   1   8
ATOM      7  N   UNL     1       3.828   5.859  18.131  0.00  0.00    +0.000 N 
ATOM      8  C   UNL     1       3.197   5.756  19.351  0.00  0.00    +0.000 C 
ATOM      9  O   UNL     1       3.340   4.788  20.084  0.00  0.00    +0.000 OA
ATOM     10  H   UNL     1       3.448   6.551  17.493  0.00  0.00    +0.000 HD
BRANCH   7  12
ATOM     11  C   UNL     1       3.724   3.683  17.083  0.00  0.00    +0.000 C 
ATOM     12  C   UNL     1       4.689   4.811  17.510  0.00  0.00    +0.000 C 
ATOM     13  C   UNL     1       5.746   4.288  18.518  0.00  0.00    +0.000 C 
ATOM     14  C   UNL     1       6.988   5.170  18.409  0.00  0.00    +0.000 C 
ATOM     15  S   UNL     1       7.173   5.450  16.663  0.00  0.00    +0.000 S 
ATOM     16  O   UNL     1       7.904   4.318  16.120  0.00  0.00    +0.000 OA
ATOM     17  O   UNL     1       7.606   6.804  16.405  0.00  0.00    +0.000 OA
ATOM     18  C   UNL     1       5.455   5.239  16.229  0.00  0.00    +0.000 C 
ENDBRANCH   7  12
ENDBRANCH   1   8
BRANCH   5  19
ATOM     19  S   UNL     1       0.845  10.481  18.539  0.00  0.00    +0.000 S 
ATOM     20  O   UNL     1       1.950  10.651  17.607  0.00  0.00    +0.000 OA
ATOM     21  O   UNL     1      -0.499  10.258  18.050  0.00  0.00    +0.000 OA
BRANCH  19  22
ATOM     22  N   UNL     1       0.801  11.829  19.536  0.00  0.00    +0.000 NA
ATOM     23  C   UNL     1       1.883  12.839  19.528  0.00  0.00    +0.000 C 
ATOM     24  C   UNL     1       1.535  14.039  18.624  0.00  0.00    +0.000 C 
ATOM     25  N   UNL     1       0.173  14.541  18.885  0.00  0.00    +0.000 N 
ATOM     26  C   UNL     1      -0.911  13.553  19.034  0.00  0.00    +0.000 C 
ATOM     27  C   UNL     1      -0.488  12.414  19.965  0.00  0.00    +0.000 C 
BRANCH  25  28
ATOM     28  C   UNL     1      -0.129  15.885  19.011  0.00  0.00    +0.000 A 
ATOM     29  C   UNL     1      -1.240  16.310  19.760  0.00  0.00    +0.000 A 
ATOM     30  C   UNL     1      -1.475  17.660  20.038  0.00  0.00    +0.000 A 
ATOM     31  C   UNL     1      -0.612  18.628  19.542  0.00  0.00    +0.000 A 
ATOM     32  C   UNL     1       0.455  18.243  18.738  0.00  0.00    +0.000 A 
ATOM     33  C   UNL     1       0.687  16.888  18.472  0.00  0.00    +0.000 A 
ENDBRANCH  25  28
ENDBRANCH  19  22
ENDBRANCH   5  19
TORSDOF 5
ENDMDL
MODEL 8
REMARK VINA RESULT:      -8.0      1.913      2.511
REMARK  Name = 
REMARK  6 active torsions:
REMARK  status: ('A' for Active; 'I' for Inactive)
REMARK    1  A    between atoms: C_1  and  C_2
REMARK    2  A    between atoms: C_2  and  N_3
REMARK    3  A    between atoms: C_4  and  C_6
REMARK    4  A    between atoms: C_10  and  S_11
REMARK    5  A    between atoms: S_11  and  N_14
REMARK    6  A    between atoms: N_17  and  C_18
REMARK                            x       y       z     vdW  Elec       q    Type
REMARK                         _______ _______ _______ _____ _____    ______ ____
ROOT
ATOM      1  C   UNL     1       2.150   7.813  19.061  0.00  0.00    +0.000 A 
ATOM      2  C   UNL     1       2.004   7.349  20.378  0.00  0.00    +0.000 A 
ATOM      3  C   UNL     1       1.152   7.997  21.275  0.00  0.00    +0.000 A 
ATOM      4  C   UNL     1       0.446   9.128  20.869  0.00  0.00    +0.000 A 
ATOM      5  C   UNL     1       0.606   9.625  19.568  0.00  0.00    +0.000 A 
ATOM      6  C   UNL     1       1.445   8.956  18.651  0.00  0.00    +0.000 A 
ENDROOT
BRANCH   1   8
ATOM      7  N   UNL     1       3.354   5.738  18.471  0.00  0.00    +0.000 N 
ATOM      8  C   UNL     1       3.096   7.057  18.175  0.00  0.00    +0.000 C 
ATOM      9  O   UNL     1       3.623   7.633  17.235  0.00  0.00    +0.000 OA
ATOM     10  H   UNL     1       3.087   5.432  19.402  0.00  0.00    +0.000 HD
BRANCH   7  12
ATOM     11  C   UNL     1       3.515   3.675  17.222  0.00  0.00    +0.000 C 
ATOM     12  C   UNL     1       4.336   4.866  17.762  0.00  0.00    +0.000 C 
ATOM     13  C   UNL     1       5.451   4.383  18.727  0.00  0.00    +0.000 C 
ATOM     14  C   UNL     1       6.576   5.416  18.713  0.00  0.00    +0.000 C 
ATOM     15  S   UNL     1       6.721   5.881  17.003  0.00  0.00    +0.000 S 
ATOM     16  O   UNL     1       7.584   4.903  16.363  0.00  0.00    +0.000 OA
ATOM     17  O   UNL     1       6.984   7.296  16.878  0.00  0.00    +0.000 OA
ATOM     18  C   UNL     1       5.041   5.503  16.535  0.00  0.00    +0.000 C 
ENDBRANCH   7  12
ENDBRANCH   1   8
BRANCH   5  19
ATOM     19  S   UNL     1      -0.483  10.932  19.015  0.00  0.00    +0.000 S 
ATOM     20  O   UNL     1      -1.054  10.475  17.756  0.00  0.00    +0.000 OA
ATOM     21  O   UNL     1      -1.342  11.254  20.134  0.00  0.00    +0.000 OA
BRANCH  19  22
ATOM     22  N   UNL     1       0.456  12.283  18.693  0.00  0.00    +0.000 NA
ATOM     23  C   UNL     1      -0.151  13.591  18.356  0.00  0.00    +0.000 C 
ATOM     24  C   UNL     1      -0.261  14.503  19.596  0.00  0.00    +0.000 C 
ATOM     25  N   UNL     1       1.002  14.544  20.356  0.00  0.00    +0.000 N 
ATOM     26  C   UNL     1       1.707  13.271  20.594  0.00  0.00    +0.000 C 
ATOM     27  C   UNL     1       1.791  12.444  19.309  0.00  0.00    +0.000 C 
BRANCH  25  28
ATOM     28  C   UNL     1       1.559  15.714  20.839  0.00  0.00    +0.000 A 
ATOM     29  C   UNL     1       2.422  15.702  21.949  0.00  0.00    +0.000 A 
ATOM     30  C   UNL     1       3.123  16.840  22.356  0.00  0.00    +0.000 A 
ATOM     31  C   UNL     1       2.953  18.037  21.674  0.00  0.00    +0.000 A 
ATOM     32  C   UNL     1       2.052  18.098  20.616  0.00  0.00    +0.000 A 
ATOM     33  C   UNL     1       1.360  16.951  20.210  0.00  0.00    +0.000 A 
ENDBRANCH  25  28
ENDBRANCH  19  22
ENDBRANCH   5  19
TORSDOF 5
ENDMDL
MODEL 9
REMARK VINA RESULT:      -8.0      0.782      1.026
REMARK  Name = 
REMARK  6 active torsions:
REMARK  status: ('A' for Active; 'I' for Inactive)
REMARK    1  A    between atoms: C_1  and  C_2
REMARK    2  A    between atoms: C_2  and  N_3
REMARK    3  A    between atoms: C_4  and  C_6
REMARK    4  A    between atoms: C_10  and  S_11
REMARK    5  A    between atoms: S_11  and  N_14
REMARK    6  A    between atoms: N_17  and  C_18
REMARK                            x       y       z     vdW  Elec       q    Type
REMARK                         _______ _______ _______ _____ _____    ______ ____
ROOT
ATOM      1  C   UNL     1       1.935   8.124  19.052  0.00  0.00    +0.000 A 
ATOM      2  C   UNL     1       1.647   8.663  17.788  0.00  0.00    +0.000 A 
ATOM      3  C   UNL     1       0.858   9.808  17.662  0.00  0.00    +0.000 A 
ATOM      4  C   UNL     1       0.334  10.420  18.800  0.00  0.00    +0.000 A 
ATOM      5  C   UNL     1       0.584   9.876  20.067  0.00  0.00    +0.000 A 
ATOM      6  C   UNL     1       1.403   8.735  20.199  0.00  0.00    +0.000 A 
ENDROOT
BRANCH   1   8
ATOM      7  N   UNL     1       3.627   6.645  18.026  0.00  0.00    +0.000 N 
ATOM      8  C   UNL     1       2.782   6.886  19.086  0.00  0.00    +0.000 C 
ATOM      9  O   UNL     1       2.685   6.122  20.034  0.00  0.00    +0.000 OA
ATOM     10  H   UNL     1       3.446   7.181  17.183  0.00  0.00    +0.000 HD
BRANCH   7  12
ATOM     11  C   UNL     1       3.465   4.265  17.635  0.00  0.00    +0.000 C 
ATOM     12  C   UNL     1       4.465   5.423  17.846  0.00  0.00    +0.000 C 
ATOM     13  C   UNL     1       5.356   5.170  19.091  0.00  0.00    +0.000 C 
ATOM     14  C   UNL     1       6.671   5.924  18.898  0.00  0.00    +0.000 C 
ATOM     15  S   UNL     1       7.071   5.673  17.184  0.00  0.00    +0.000 S 
ATOM     16  O   UNL     1       7.764   4.399  17.086  0.00  0.00    +0.000 OA
ATOM     17  O   UNL     1       7.639   6.871  16.611  0.00  0.00    +0.000 OA
ATOM     18  C   UNL     1       5.401   5.422  16.608  0.00  0.00    +0.000 C 
ENDBRANCH   7  12
ENDBRANCH   1   8
BRANCH   5  19
ATOM     19  S   UNL     1       0.092  10.812  21.509  0.00  0.00    +0.000 S 
ATOM     20  O   UNL     1      -1.331  11.075  21.353  0.00  0.00    +0.000 OA
ATOM     21  O   UNL     1       0.581  10.082  22.660  0.00  0.00    +0.000 OA
BRANCH  19  22
ATOM     22  N   UNL     1       0.895  12.284  21.467  0.00  0.00    +0.000 NA
ATOM     23  C   UNL     1       1.910  12.588  20.433  0.00  0.00    +0.000 C 
ATOM     24  C   UNL     1       1.303  13.382  19.258  0.00  0.00    +0.000 C 
ATOM     25  N   UNL     1       0.489  14.517  19.729  0.00  0.00    +0.000 N 
ATOM     26  C   UNL     1      -0.439  14.283  20.852  0.00  0.00    +0.000 C 
ATOM     27  C   UNL     1       0.252  13.513  21.980  0.00  0.00    +0.000 C 
BRANCH  25  28
ATOM     28  C   UNL     1       0.565  15.785  19.182  0.00  0.00    +0.000 A 
ATOM     29  C   UNL     1      -0.431  16.259  18.310  0.00  0.00    +0.000 A 
ATOM     30  C   UNL     1      -0.464  17.586  17.873  0.00  0.00    +0.000 A 
ATOM     31  C   UNL     1       0.526  18.472  18.277  0.00  0.00    +0.000 A 
ATOM     32  C   UNL     1       1.564  18.013  19.081  0.00  0.00    +0.000 A 
ATOM     33  C   UNL     1       1.584  16.685  19.521  0.00  0.00    +0.000 A 
ENDBRANCH  25  28
ENDBRANCH  19  22
ENDBRANCH   5  19
TORSDOF 5
ENDMDL
