MODEL 1
REMARK VINA RESULT:      -7.5      0.000      0.000
REMARK  Name = 
REMARK  6 active torsions:
REMARK  status: ('A' for Active; 'I' for Inactive)
REMARK    1  A    between atoms: C_1  and  C_2
REMARK    2  A    between atoms: C_2  and  C_15
REMARK    3  A    between atoms: N_3  and  N_4
REMARK    4  A    between atoms: N_4  and  C_5
REMARK    5  A    between atoms: C_5  and  N_7
REMARK    6  A    between atoms: N_7  and  C_8
REMARK                            x       y       z     vdW  Elec       q    Type
REMARK                         _______ _______ _______ _____ _____    ______ ____
ROOT
ATOM      1  N   UNL     1       7.543   4.309  17.782  0.00  0.00    +0.000 N 
ATOM      2  H   UNL     1       7.283   3.405  18.160  0.00  0.00    +0.000 HD
ENDROOT
BRANCH   1   5
ATOM      3  C   UNL     1       5.327   3.884  15.952  0.00  0.00    +0.000 C 
ATOM      4  C   UNL     1       6.739   4.274  15.604  0.00  0.00    +0.000 C 
ATOM      5  N   UNL     1       7.728   4.402  16.433  0.00  0.00    +0.000 NA
BRANCH   4   6
ATOM      6  C   UNL     1       7.050   4.528  14.215  0.00  0.00    +0.000 A 
ATOM      7  C   UNL     1       6.628   3.930  13.044  0.00  0.00    +0.000 A 
ATOM      8  C   UNL     1       7.268   4.644  12.014  0.00  0.00    +0.000 A 
ATOM      9  N   UNL     1       8.040   5.626  12.480  0.00  0.00    +0.000 NA
ATOM     10  N   UNL     1       7.900   5.532  13.814  0.00  0.00    +0.000 N 
ATOM     11  H   UNL     1       8.398   6.183  14.416  0.00  0.00    +0.000 HD
ENDBRANCH   4   6
ENDBRANCH   1   5
BRANCH   1  12
ATOM     12  C   UNL     1       7.108   5.447  18.471  0.00  0.00    +0.000 C 
ATOM     13  S   UNL     1       7.659   7.000  18.133  0.00  0.00    +0.000 S 
BRANCH  12  14
ATOM     14  N   UNL     1       6.212   5.108  19.487  0.00  0.00    +0.000 N 
ATOM     15  H   UNL     1       6.424   5.504  20.393  0.00  0.00    +0.000 HD
BRANCH  14  16
ATOM     16  C   UNL     1       4.907   4.585  19.317  0.00  0.00    +0.000 A 
ATOM     17  C   UNL     1       3.838   5.383  18.895  0.00  0.00    +0.000 A 
ATOM     18  C   UNL     1       2.553   4.850  18.765  0.00  0.00    +0.000 A 
ATOM     19  C   UNL     1       2.339   3.503  19.035  0.00  0.00    +0.000 A 
ATOM     20 CL   UNL     1       0.751   2.854  18.917  0.00  0.00    +0.000 Cl
ATOM     21  C   UNL     1       3.405   2.679  19.397  0.00  0.00    +0.000 A 
ATOM     22  C   UNL     1       4.692   3.218  19.521  0.00  0.00    +0.000 A 
ENDBRANCH  14  16
ENDBRANCH  12  14
ENDBRANCH   1  12
TORSDOF 5
ENDMDL
MODEL 2
REMARK VINA RESULT:      -7.3      0.339      1.156
REMARK  Name = 
REMARK  6 active torsions:
REMARK  status: ('A' for Active; 'I' for Inactive)
REMARK    1  A    between atoms: C_1  and  C_2
REMARK    2  A    between atoms: C_2  and  C_15
REMARK    3  A    between atoms: N_3  and  N_4
REMARK    4  A    between atoms: N_4  and  C_5
REMARK    5  A    between atoms: C_5  and  N_7
REMARK    6  A    between atoms: N_7  and  C_8
REMARK                            x       y       z     vdW  Elec       q    Type
REMARK                         _______ _______ _______ _____ _____    ______ ____
ROOT
ATOM      1  N   UNL     1       7.002   4.274  17.852  0.00  0.00    +0.000 N 
ATOM      2  H   UNL     1       6.490   3.458  18.168  0.00  0.00    +0.000 HD
ENDROOT
BRANCH   1   5
ATOM      3  C   UNL     1       4.945   3.941  15.828  0.00  0.00    +0.000 C 
ATOM      4  C   UNL     1       6.399   4.266  15.610  0.00  0.00    +0.000 C 
ATOM      5  N   UNL     1       7.313   4.353  16.525  0.00  0.00    +0.000 NA
BRANCH   4   6
ATOM      6  C   UNL     1       6.846   4.500  14.255  0.00  0.00    +0.000 A 
ATOM      7  C   UNL     1       6.534   3.891  13.056  0.00  0.00    +0.000 A 
ATOM      8  C   UNL     1       7.279   4.587  12.085  0.00  0.00    +0.000 A 
ATOM      9  N   UNL     1       8.010   5.569  12.612  0.00  0.00    +0.000 NA
ATOM     10  N   UNL     1       7.740   5.492  13.928  0.00  0.00    +0.000 N 
ATOM     11  H   UNL     1       8.184   6.146  14.568  0.00  0.00    +0.000 HD
ENDBRANCH   4   6
ENDBRANCH   1   5
BRANCH   1  12
ATOM     12  C   UNL     1       6.819   5.466  18.562  0.00  0.00    +0.000 C 
ATOM     13  S   UNL     1       7.772   6.834  18.334  0.00  0.00    +0.000 S 
BRANCH  12  14
ATOM     14  N   UNL     1       5.791   5.342  19.498  0.00  0.00    +0.000 N 
ATOM     15  H   UNL     1       5.810   6.021  20.247  0.00  0.00    +0.000 HD
BRANCH  14  16
ATOM     16  C   UNL     1       4.581   4.626  19.327  0.00  0.00    +0.000 A 
ATOM     17  C   UNL     1       4.485   3.257  19.597  0.00  0.00    +0.000 A 
ATOM     18  C   UNL     1       3.287   2.567  19.390  0.00  0.00    +0.000 A 
ATOM     19  C   UNL     1       2.169   3.257  18.933  0.00  0.00    +0.000 A 
ATOM     20 CL   UNL     1       0.706   2.403  18.637  0.00  0.00    +0.000 Cl
ATOM     21  C   UNL     1       2.231   4.634  18.717  0.00  0.00    +0.000 A 
ATOM     22  C   UNL     1       3.433   5.321  18.930  0.00  0.00    +0.000 A 
ENDBRANCH  14  16
ENDBRANCH  12  14
ENDBRANCH   1  12
TORSDOF 5
ENDMDL
MODEL 3
REMARK VINA RESULT:      -6.9      3.234      4.457
REMARK  Name = 
REMARK  6 active torsions:
REMARK  status: ('A' for Active; 'I' for Inactive)
REMARK    1  A    between atoms: C_1  and  C_2
REMARK    2  A    between atoms: C_2  and  C_15
REMARK    3  A    between atoms: N_3  and  N_4
REMARK    4  A    between atoms: N_4  and  C_5
REMARK    5  A    between atoms: C_5  and  N_7
REMARK    6  A    between atoms: N_7  and  C_8
REMARK                            x       y       z     vdW  Elec       q    Type
REMARK                         _______ _______ _______ _____ _____    ______ ____
ROOT
ATOM      1  N   UNL     1       5.127   3.152  19.147  0.00  0.00    +0.000 N 
ATOM      2  H   UNL     1       5.524   2.278  18.822  0.00  0.00    +0.000 HD
ENDROOT
BRANCH   1   5
ATOM      3  C   UNL     1       6.090   4.071  16.564  0.00  0.00    +0.000 C 
ATOM      4  C   UNL     1       6.289   4.731  17.902  0.00  0.00    +0.000 C 
ATOM      5  N   UNL     1       5.900   4.273  19.051  0.00  0.00    +0.000 NA
BRANCH   4   6
ATOM      6  C   UNL     1       6.988   5.997  17.937  0.00  0.00    +0.000 A 
ATOM      7  C   UNL     1       7.931   6.513  18.802  0.00  0.00    +0.000 A 
ATOM      8  C   UNL     1       8.244   7.786  18.288  0.00  0.00    +0.000 A 
ATOM      9  N   UNL     1       7.561   8.068  17.179  0.00  0.00    +0.000 NA
ATOM     10  N   UNL     1       6.800   6.976  16.990  0.00  0.00    +0.000 N 
ATOM     11  H   UNL     1       6.171   6.937  16.192  0.00  0.00    +0.000 HD
ENDBRANCH   4   6
ENDBRANCH   1   5
BRANCH   1  12
ATOM     12  C   UNL     1       3.737   3.298  19.072  0.00  0.00    +0.000 C 
ATOM     13  S   UNL     1       2.761   2.357  18.074  0.00  0.00    +0.000 S 
BRANCH  12  14
ATOM     14  N   UNL     1       3.296   4.343  19.885  0.00  0.00    +0.000 N 
ATOM     15  H   UNL     1       3.545   4.258  20.862  0.00  0.00    +0.000 HD
BRANCH  14  16
ATOM     16  C   UNL     1       2.867   5.621  19.453  0.00  0.00    +0.000 A 
ATOM     17  C   UNL     1       3.047   6.057  18.136  0.00  0.00    +0.000 A 
ATOM     18  C   UNL     1       2.642   7.336  17.742  0.00  0.00    +0.000 A 
ATOM     19  C   UNL     1       2.030   8.176  18.666  0.00  0.00    +0.000 A 
ATOM     20 CL   UNL     1       1.569   9.764  18.196  0.00  0.00    +0.000 Cl
ATOM     21  C   UNL     1       1.787   7.734  19.967  0.00  0.00    +0.000 A 
ATOM     22  C   UNL     1       2.191   6.450  20.355  0.00  0.00    +0.000 A 
ENDBRANCH  14  16
ENDBRANCH  12  14
ENDBRANCH   1  12
TORSDOF 5
ENDMDL
MODEL 4
REMARK VINA RESULT:      -6.9      2.017      2.500
REMARK  Name = 
REMARK  6 active torsions:
REMARK  status: ('A' for Active; 'I' for Inactive)
REMARK    1  A    between atoms: C_1  and  C_2
REMARK    2  A    between atoms: C_2  and  C_15
REMARK    3  A    between atoms: N_3  and  N_4
REMARK    4  A    between atoms: N_4  and  C_5
REMARK    5  A    between atoms: C_5  and  N_7
REMARK    6  A    between atoms: N_7  and  C_8
REMARK                            x       y       z     vdW  Elec       q    Type
REMARK                         _______ _______ _______ _____ _____    ______ ____
ROOT
ATOM      1  N   UNL     1       7.361   4.862  15.749  0.00  0.00    +0.000 N 
ATOM      2  H   UNL     1       8.303   4.520  15.904  0.00  0.00    +0.000 HD
ENDROOT
BRANCH   1   5
ATOM      3  C   UNL     1       7.900   5.306  12.929  0.00  0.00    +0.000 C 
ATOM      4  C   UNL     1       6.875   4.382  13.530  0.00  0.00    +0.000 C 
ATOM      5  N   UNL     1       6.611   4.242  14.792  0.00  0.00    +0.000 NA
BRANCH   4   6
ATOM      6  C   UNL     1       6.089   3.565  12.632  0.00  0.00    +0.000 A 
ATOM      7  C   UNL     1       4.803   3.692  12.147  0.00  0.00    +0.000 A 
ATOM      8  C   UNL     1       4.621   2.589  11.292  0.00  0.00    +0.000 A 
ATOM      9  N   UNL     1       5.703   1.814  11.225  0.00  0.00    +0.000 NA
ATOM     10  N   UNL     1       6.576   2.418  12.051  0.00  0.00    +0.000 N 
ATOM     11  H   UNL     1       7.501   2.016  12.181  0.00  0.00    +0.000 HD
ENDBRANCH   4   6
ENDBRANCH   1   5
BRANCH   1  12
ATOM     12  C   UNL     1       6.698   5.444  16.836  0.00  0.00    +0.000 C 
ATOM     13  S   UNL     1       7.444   5.767  18.309  0.00  0.00    +0.000 S 
BRANCH  12  14
ATOM     14  N   UNL     1       5.351   5.664  16.544  0.00  0.00    +0.000 N 
ATOM     15  H   UNL     1       5.174   6.092  15.645  0.00  0.00    +0.000 HD
BRANCH  14  16
ATOM     16  C   UNL     1       4.243   5.059  17.184  0.00  0.00    +0.000 A 
ATOM     17  C   UNL     1       3.313   5.804  17.918  0.00  0.00    +0.000 A 
ATOM     18  C   UNL     1       2.245   5.179  18.566  0.00  0.00    +0.000 A 
ATOM     19  C   UNL     1       2.090   3.801  18.461  0.00  0.00    +0.000 A 
ATOM     20 CL   UNL     1       0.801   3.024  19.293  0.00  0.00    +0.000 Cl
ATOM     21  C   UNL     1       2.973   3.051  17.683  0.00  0.00    +0.000 A 
ATOM     22  C   UNL     1       4.039   3.683  17.031  0.00  0.00    +0.000 A 
ENDBRANCH  14  16
ENDBRANCH  12  14
ENDBRANCH   1  12
TORSDOF 5
ENDMDL
MODEL 5
REMARK VINA RESULT:      -6.9      2.020      2.745
REMARK  Name = 
REMARK  6 active torsions:
REMARK  status: ('A' for Active; 'I' for Inactive)
REMARK    1  A    between atoms: C_1  and  C_2
REMARK    2  A    between atoms: C_2  and  C_15
REMARK    3  A    between atoms: N_3  and  N_4
REMARK    4  A    between atoms: N_4  and  C_5
REMARK    5  A    between atoms: C_5  and  N_7
REMARK    6  A    between atoms: N_7  and  C_8
REMARK                            x       y       z     vdW  Elec       q    Type
REMARK                         _______ _______ _______ _____ _____    ______ ____
ROOT
ATOM      1  N   UNL     1       7.333   5.236  15.511  0.00  0.00    +0.000 N 
ATOM      2  H   UNL     1       8.339   5.113  15.528  0.00  0.00    +0.000 HD
ENDROOT
BRANCH   1   5
ATOM      3  C   UNL     1       7.988   5.369  12.684  0.00  0.00    +0.000 C 
ATOM      4  C   UNL     1       6.937   4.514  13.340  0.00  0.00    +0.000 C 
ATOM      5  N   UNL     1       6.622   4.512  14.598  0.00  0.00    +0.000 NA
BRANCH   4   6
ATOM      6  C   UNL     1       6.187   3.602  12.506  0.00  0.00    +0.000 A 
ATOM      7  C   UNL     1       4.905   3.650  11.997  0.00  0.00    +0.000 A 
ATOM      8  C   UNL     1       4.766   2.474  11.236  0.00  0.00    +0.000 A 
ATOM      9  N   UNL     1       5.870   1.727  11.249  0.00  0.00    +0.000 NA
ATOM     10  N   UNL     1       6.714   2.424  12.030  0.00  0.00    +0.000 N 
ATOM     11  H   UNL     1       7.647   2.061  12.206  0.00  0.00    +0.000 HD
ENDBRANCH   4   6
ENDBRANCH   1   5
BRANCH   1  12
ATOM     12  C   UNL     1       6.704   5.588  16.711  0.00  0.00    +0.000 C 
ATOM     13  S   UNL     1       7.505   5.658  18.189  0.00  0.00    +0.000 S 
BRANCH  12  14
ATOM     14  N   UNL     1       5.341   5.818  16.516  0.00  0.00    +0.000 N 
ATOM     15  H   UNL     1       5.112   6.348  15.686  0.00  0.00    +0.000 HD
BRANCH  14  16
ATOM     16  C   UNL     1       4.274   5.121  17.133  0.00  0.00    +0.000 A 
ATOM     17  C   UNL     1       4.094   3.744  16.967  0.00  0.00    +0.000 A 
ATOM     18  C   UNL     1       3.015   3.085  17.562  0.00  0.00    +0.000 A 
ATOM     19  C   UNL     1       2.122   3.804  18.350  0.00  0.00    +0.000 A 
ATOM     20 CL   UNL     1       0.770   3.004  19.048  0.00  0.00    +0.000 Cl
ATOM     21  C   UNL     1       2.322   5.166  18.576  0.00  0.00    +0.000 A 
ATOM     22  C   UNL     1       3.408   5.820  17.981  0.00  0.00    +0.000 A 
ENDBRANCH  14  16
ENDBRANCH  12  14
ENDBRANCH   1  12
TORSDOF 5
ENDMDL
MODEL 6
REMARK VINA RESULT:      -6.9      3.263      4.192
REMARK  Name = 
REMARK  6 active torsions:
REMARK  status: ('A' for Active; 'I' for Inactive)
REMARK    1  A    between atoms: C_1  and  C_2
REMARK    2  A    between atoms: C_2  and  C_15
REMARK    3  A    between atoms: N_3  and  N_4
REMARK    4  A    between atoms: N_4  and  C_5
REMARK    5  A    between atoms: C_5  and  N_7
REMARK    6  A    between atoms: N_7  and  C_8
REMARK                            x       y       z     vdW  Elec       q    Type
REMARK                         _______ _______ _______ _____ _____    ______ ____
ROOT
ATOM      1  N   UNL     1       4.062   3.197  19.161  0.00  0.00    +0.000 N 
ATOM      2  H   UNL     1       4.423   2.357  19.599  0.00  0.00    +0.000 HD
ENDROOT
BRANCH   1   5
ATOM      3  C   UNL     1       6.145   5.215  18.986  0.00  0.00    +0.000 C 
ATOM      4  C   UNL     1       5.555   4.409  17.860  0.00  0.00    +0.000 C 
ATOM      5  N   UNL     1       4.585   3.554  17.951  0.00  0.00    +0.000 NA
BRANCH   4   6
ATOM      6  C   UNL     1       6.102   4.595  16.534  0.00  0.00    +0.000 A 
ATOM      7  C   UNL     1       5.589   4.355  15.275  0.00  0.00    +0.000 A 
ATOM      8  C   UNL     1       6.596   4.766  14.382  0.00  0.00    +0.000 A 
ATOM      9  N   UNL     1       7.672   5.238  15.012  0.00  0.00    +0.000 NA
ATOM     10  N   UNL     1       7.356   5.117  16.313  0.00  0.00    +0.000 N 
ATOM     11  H   UNL     1       8.024   5.413  17.020  0.00  0.00    +0.000 HD
ENDBRANCH   4   6
ENDBRANCH   1   5
BRANCH   1  12
ATOM     12  C   UNL     1       2.739   3.557  19.443  0.00  0.00    +0.000 C 
ATOM     13  S   UNL     1       1.407   2.707  18.865  0.00  0.00    +0.000 S 
BRANCH  12  14
ATOM     14  N   UNL     1       2.688   4.721  20.211  0.00  0.00    +0.000 N 
ATOM     15  H   UNL     1       3.142   4.658  21.113  0.00  0.00    +0.000 HD
BRANCH  14  16
ATOM     16  C   UNL     1       2.394   6.025  19.743  0.00  0.00    +0.000 A 
ATOM     17  C   UNL     1       2.603   6.399  18.411  0.00  0.00    +0.000 A 
ATOM     18  C   UNL     1       2.334   7.701  17.981  0.00  0.00    +0.000 A 
ATOM     19  C   UNL     1       1.829   8.630  18.884  0.00  0.00    +0.000 A 
ATOM     20 CL   UNL     1       1.537  10.244  18.368  0.00  0.00    +0.000 Cl
ATOM     21  C   UNL     1       1.556   8.257  20.200  0.00  0.00    +0.000 A 
ATOM     22  C   UNL     1       1.824   6.949  20.625  0.00  0.00    +0.000 A 
ENDBRANCH  14  16
ENDBRANCH  12  14
ENDBRANCH   1  12
TORSDOF 5
ENDMDL
MODEL 7
REMARK VINA RESULT:      -6.9      3.225      4.438
REMARK  Name = 
REMARK  6 active torsions:
REMARK  status: ('A' for Active; 'I' for Inactive)
REMARK    1  A    between atoms: C_1  and  C_2
REMARK    2  A    between atoms: C_2  and  C_15
REMARK    3  A    between atoms: N_3  and  N_4
REMARK    4  A    between atoms: N_4  and  C_5
REMARK    5  A    between atoms: C_5  and  N_7
REMARK    6  A    between atoms: N_7  and  C_8
REMARK                            x       y       z     vdW  Elec       q    Type
REMARK                         _______ _______ _______ _____ _____    ______ ____
ROOT
ATOM      1  N   UNL     1       5.069   3.133  19.083  0.00  0.00    +0.000 N 
ATOM      2  H   UNL     1       5.462   2.248  18.782  0.00  0.00    +0.000 HD
ENDROOT
BRANCH   1   5
ATOM      3  C   UNL     1       5.974   4.107  16.499  0.00  0.00    +0.000 C 
ATOM      4  C   UNL     1       6.227   4.723  17.849  0.00  0.00    +0.000 C 
ATOM      5  N   UNL     1       5.863   4.241  18.996  0.00  0.00    +0.000 NA
BRANCH   4   6
ATOM      6  C   UNL     1       6.953   5.973  17.898  0.00  0.00    +0.000 A 
ATOM      7  C   UNL     1       7.932   6.446  18.750  0.00  0.00    +0.000 A 
ATOM      8  C   UNL     1       8.257   7.725  18.262  0.00  0.00    +0.000 A 
ATOM      9  N   UNL     1       7.550   8.052  17.181  0.00  0.00    +0.000 NA
ATOM     10  N   UNL     1       6.761   6.982  16.983  0.00  0.00    +0.000 N 
ATOM     11  H   UNL     1       6.109   6.978  16.203  0.00  0.00    +0.000 HD
ENDBRANCH   4   6
ENDBRANCH   1   5
BRANCH   1  12
ATOM     12  C   UNL     1       3.684   3.300  18.965  0.00  0.00    +0.000 C 
ATOM     13  S   UNL     1       2.741   2.446  17.864  0.00  0.00    +0.000 S 
BRANCH  12  14
ATOM     14  N   UNL     1       3.221   4.289  19.834  0.00  0.00    +0.000 N 
ATOM     15  H   UNL     1       3.418   4.124  20.813  0.00  0.00    +0.000 HD
BRANCH  14  16
ATOM     16  C   UNL     1       2.836   5.605  19.482  0.00  0.00    +0.000 A 
ATOM     17  C   UNL     1       2.192   6.456  20.386  0.00  0.00    +0.000 A 
ATOM     18  C   UNL     1       1.794   7.740  20.004  0.00  0.00    +0.000 A 
ATOM     19  C   UNL     1       2.066   8.186  18.715  0.00  0.00    +0.000 A 
ATOM     20 CL   UNL     1       1.540   9.750  18.229  0.00  0.00    +0.000 Cl
ATOM     21  C   UNL     1       2.762   7.373  17.820  0.00  0.00    +0.000 A 
ATOM     22  C   UNL     1       3.162   6.089  18.210  0.00  0.00    +0.000 A 
ENDBRANCH  14  16
ENDBRANCH  12  14
ENDBRANCH   1  12
TORSDOF 5
ENDMDL
MODEL 8
REMARK VINA RESULT:      -6.8      3.307      3.973
REMARK  Name = 
REMARK  6 active torsions:
REMARK  status: ('A' for Active; 'I' for Inactive)
REMARK    1  A    between atoms: C_1  and  C_2
REMARK    2  A    between atoms: C_2  and  C_15
REMARK    3  A    between atoms: N_3  and  N_4
REMARK    4  A    between atoms: N_4  and  C_5
REMARK    5  A    between atoms: C_5  and  N_7
REMARK    6  A    between atoms: N_7  and  C_8
REMARK                            x       y       z     vdW  Elec       q    Type
REMARK                         _______ _______ _______ _____ _____    ______ ____
ROOT
ATOM      1  N   UNL     1       4.352   3.750  17.938  0.00  0.00    +0.000 N 
ATOM      2  H   UNL     1       4.461   2.795  18.262  0.00  0.00    +0.000 HD
ENDROOT
BRANCH   1   5
ATOM      3  C   UNL     1       7.109   4.653  17.774  0.00  0.00    +0.000 C 
ATOM      4  C   UNL     1       6.152   4.425  16.635  0.00  0.00    +0.000 C 
ATOM      5  N   UNL     1       4.907   4.077  16.734  0.00  0.00    +0.000 NA
BRANCH   4   6
ATOM      6  C   UNL     1       6.643   4.614  15.288  0.00  0.00    +0.000 A 
ATOM      7  C   UNL     1       6.273   4.062  14.078  0.00  0.00    +0.000 A 
ATOM      8  C   UNL     1       7.112   4.668  13.124  0.00  0.00    +0.000 A 
ATOM      9  N   UNL     1       7.954   5.544  13.672  0.00  0.00    +0.000 NA
ATOM     10  N   UNL     1       7.659   5.490  14.983  0.00  0.00    +0.000 N 
ATOM     11  H   UNL     1       8.172   6.076  15.635  0.00  0.00    +0.000 HD
ENDBRANCH   4   6
ENDBRANCH   1   5
BRANCH   1  12
ATOM     12  C   UNL     1       3.213   4.448  18.354  0.00  0.00    +0.000 C 
ATOM     13  S   UNL     1       1.644   3.935  18.030  0.00  0.00    +0.000 S 
BRANCH  12  14
ATOM     14  N   UNL     1       3.560   5.627  19.016  0.00  0.00    +0.000 N 
ATOM     15  H   UNL     1       4.525   5.682  19.313  0.00  0.00    +0.000 HD
BRANCH  14  16
ATOM     16  C   UNL     1       2.834   6.842  19.005  0.00  0.00    +0.000 A 
ATOM     17  C   UNL     1       2.085   7.269  20.107  0.00  0.00    +0.000 A 
ATOM     18  C   UNL     1       1.352   8.458  20.059  0.00  0.00    +0.000 A 
ATOM     19  C   UNL     1       1.386   9.239  18.908  0.00  0.00    +0.000 A 
ATOM     20 CL   UNL     1       0.452  10.680  18.831  0.00  0.00    +0.000 Cl
ATOM     21  C   UNL     1       2.177   8.859  17.823  0.00  0.00    +0.000 A 
ATOM     22  C   UNL     1       2.913   7.669  17.879  0.00  0.00    +0.000 A 
ENDBRANCH  14  16
ENDBRANCH  12  14
ENDBRANCH   1  12
TORSDOF 5
ENDMDL
MODEL 9
REMARK VINA RESULT:      -6.8      3.046      3.908
REMARK  Name = 
REMARK  6 active torsions:
REMARK  status: ('A' for Active; 'I' for Inactive)
REMARK    1  A    between atoms: C_1  and  C_2
REMARK    2  A    between atoms: C_2  and  C_15
REMARK    3  A    between atoms: N_3  and  N_4
REMARK    4  A    between atoms: N_4  and  C_5
REMARK    5  A    between atoms: C_5  and  N_7
REMARK    6  A    between atoms: N_7  and  C_8
REMARK                            x       y       z     vdW  Elec       q    Type
REMARK                         _______ _______ _______ _____ _____    ______ ____
ROOT
ATOM      1  N   UNL     1       5.025   4.018  19.348  0.00  0.00    +0.000 N 
ATOM      2  H   UNL     1       5.742   3.613  19.940  0.00  0.00    +0.000 HD
ENDROOT
BRANCH   1   5
ATOM      3  C   UNL     1       7.343   5.542  18.485  0.00  0.00    +0.000 C 
ATOM      4  C   UNL     1       6.370   4.788  17.619  0.00  0.00    +0.000 C 
ATOM      5  N   UNL     1       5.308   4.162  18.020  0.00  0.00    +0.000 NA
BRANCH   4   6
ATOM      6  C   UNL     1       6.617   4.751  16.195  0.00  0.00    +0.000 A 
ATOM      7  C   UNL     1       6.041   4.026  15.170  0.00  0.00    +0.000 A 
ATOM      8  C   UNL     1       6.699   4.453  14.002  0.00  0.00    +0.000 A 
ATOM      9  N   UNL     1       7.623   5.382  14.249  0.00  0.00    +0.000 NA
ATOM     10  N   UNL     1       7.562   5.541  15.583  0.00  0.00    +0.000 N 
ATOM     11  H   UNL     1       8.181   6.208  16.035  0.00  0.00    +0.000 HD
ENDBRANCH   4   6
ENDBRANCH   1   5
BRANCH   1  12
ATOM     12  C   UNL     1       3.691   3.824  19.725  0.00  0.00    +0.000 C 
ATOM     13  S   UNL     1       3.215   2.737  20.918  0.00  0.00    +0.000 S 
BRANCH  12  14
ATOM     14  N   UNL     1       2.832   4.606  18.951  0.00  0.00    +0.000 N 
ATOM     15  H   UNL     1       2.283   4.094  18.273  0.00  0.00    +0.000 HD
BRANCH  14  16
ATOM     16  C   UNL     1       2.407   5.925  19.239  0.00  0.00    +0.000 A 
ATOM     17  C   UNL     1       1.928   6.290  20.502  0.00  0.00    +0.000 A 
ATOM     18  C   UNL     1       1.485   7.592  20.752  0.00  0.00    +0.000 A 
ATOM     19  C   UNL     1       1.544   8.543  19.739  0.00  0.00    +0.000 A 
ATOM     20 CL   UNL     1       0.961  10.134  20.032  0.00  0.00    +0.000 Cl
ATOM     21  C   UNL     1       2.077   8.212  18.493  0.00  0.00    +0.000 A 
ATOM     22  C   UNL     1       2.523   6.907  18.249  0.00  0.00    +0.000 A 
ENDBRANCH  14  16
ENDBRANCH  12  14
ENDBRANCH   1  12
TORSDOF 5
ENDMDL
