MODEL 1
REMARK VINA RESULT:      -7.8      0.000      0.000
REMARK  Name = 
REMARK  13 active torsions:
REMARK  status: ('A' for Active; 'I' for Inactive)
REMARK    1  A    between atoms: C_1  and  O_2
REMARK    2  A    between atoms: O_2  and  C_3
REMARK    3  A    between atoms: C_3  and  C_5
REMARK    4  A    between atoms: C_8  and  C_9
REMARK    5  A    between atoms: C_9  and  C_10
REMARK    6  A    between atoms: C_10  and  C_11
REMARK    7  A    between atoms: C_10  and  N_12
REMARK    8  A    between atoms: N_12  and  C_13
REMARK    9  A    between atoms: C_13  and  C_14
REMARK   10  A    between atoms: C_14  and  O_15
REMARK   11  A    between atoms: C_14  and  C_16
REMARK   12  A    between atoms: C_20  and  O_21
REMARK   13  A    between atoms: O_21  and  C_22
REMARK                            x       y       z     vdW  Elec       q    Type
REMARK                         _______ _______ _______ _____ _____    ______ ____
ROOT
ATOM      1  N   UNL     1       5.512   3.458  19.196  0.00  0.00    +0.000 NA
ATOM      2  H   UNL     1       5.912   2.881  18.421  0.00  0.00    +0.000 HD
ENDROOT
BRANCH   1   3
ATOM      3  C   UNL     1       4.032   3.430  19.154  0.00  0.00    +0.000 C 
ATOM      4  C   UNL     1       3.542   2.007  18.836  0.00  0.00    +0.000 C 
BRANCH   3   5
ATOM      5  C   UNL     1       3.405   4.451  18.156  0.00  0.00    +0.000 C 
BRANCH   5   9
ATOM      6  C   UNL     1       1.651   7.869  20.137  0.00  0.00    +0.000 A 
ATOM      7  C   UNL     1       2.161   7.984  18.827  0.00  0.00    +0.000 A 
ATOM      8  C   UNL     1       2.712   6.872  18.187  0.00  0.00    +0.000 A 
ATOM      9  C   UNL     1       2.768   5.632  18.840  0.00  0.00    +0.000 A 
ATOM     10  C   UNL     1       2.240   5.514  20.134  0.00  0.00    +0.000 A 
ATOM     11  C   UNL     1       1.693   6.617  20.776  0.00  0.00    +0.000 A 
BRANCH   6  12
ATOM     12  C   UNL     1       1.092   9.025  20.859  0.00  0.00    +0.000 C 
ATOM     13  O   UNL     1       0.951   9.000  22.074  0.00  0.00    +0.000 OA
BRANCH  12  15
ATOM     14  C   UNL     1      -0.609  10.390  19.796  0.00  0.00    +0.000 C 
ATOM     15  O   UNL     1       0.689  10.100  20.133  0.00  0.00    +0.000 OA
ENDBRANCH  12  15
ENDBRANCH   6  12
ENDBRANCH   5   9
ENDBRANCH   3   5
ENDBRANCH   1   3
BRANCH   1  16
ATOM     16  C   UNL     1       6.014   4.840  19.135  0.00  0.00    +0.000 C 
BRANCH  16  17
ATOM     17  C   UNL     1       7.162   5.039  18.128  0.00  0.00    +0.000 C 
BRANCH  17  18
ATOM     18  C   UNL     1       6.561   5.181  16.735  0.00  0.00    +0.000 A 
ATOM     19  C   UNL     1       5.805   6.315  16.404  0.00  0.00    +0.000 A 
ATOM     20  C   UNL     1       5.207   6.420  15.147  0.00  0.00    +0.000 A 
ATOM     21  C   UNL     1       5.362   5.399  14.205  0.00  0.00    +0.000 A 
ATOM     22  C   UNL     1       6.131   4.268  14.496  0.00  0.00    +0.000 A 
ATOM     23  C   UNL     1       6.722   4.161  15.770  0.00  0.00    +0.000 A 
BRANCH  22  24
ATOM     24  O   UNL     1       6.250   3.313  13.534  0.00  0.00    +0.000 OA
BRANCH  24  25
ATOM     25  C   UNL     1       6.398   3.456  12.160  0.00  0.00    +0.000 C 
ATOM     26  F   UNL     1       5.199   3.663  11.504  0.00  0.00    +0.000 F 
ATOM     27  F   UNL     1       7.257   4.505  11.893  0.00  0.00    +0.000 F 
ATOM     28  F   UNL     1       6.950   2.293  11.661  0.00  0.00    +0.000 F 
ENDBRANCH  24  25
ENDBRANCH  22  24
ENDBRANCH  17  18
BRANCH  17  29
ATOM     29  O   UNL     1       8.089   3.979  18.173  0.00  0.00    +0.000 OA
ATOM     30  H   UNL     1       8.338   3.737  17.248  0.00  0.00    +0.000 HD
ENDBRANCH  17  29
ENDBRANCH  16  17
ENDBRANCH   1  16
TORSDOF 11
ENDMDL
MODEL 2
REMARK VINA RESULT:      -7.4      5.073      8.310
REMARK  Name = 
REMARK  13 active torsions:
REMARK  status: ('A' for Active; 'I' for Inactive)
REMARK    1  A    between atoms: C_1  and  O_2
REMARK    2  A    between atoms: O_2  and  C_3
REMARK    3  A    between atoms: C_3  and  C_5
REMARK    4  A    between atoms: C_8  and  C_9
REMARK    5  A    between atoms: C_9  and  C_10
REMARK    6  A    between atoms: C_10  and  C_11
REMARK    7  A    between atoms: C_10  and  N_12
REMARK    8  A    between atoms: N_12  and  C_13
REMARK    9  A    between atoms: C_13  and  C_14
REMARK   10  A    between atoms: C_14  and  O_15
REMARK   11  A    between atoms: C_14  and  C_16
REMARK   12  A    between atoms: C_20  and  O_21
REMARK   13  A    between atoms: O_21  and  C_22
REMARK                            x       y       z     vdW  Elec       q    Type
REMARK                         _______ _______ _______ _____ _____    ______ ____
ROOT
ATOM      1  N   UNL     1       1.361   4.538  19.505  0.00  0.00    +0.000 NA
ATOM      2  H   UNL     1       0.327   4.576  19.354  0.00  0.00    +0.000 HD
ENDROOT
BRANCH   1   3
ATOM      3  C   UNL     1       1.735   3.302  20.231  0.00  0.00    +0.000 C 
ATOM      4  C   UNL     1       2.343   3.659  21.598  0.00  0.00    +0.000 C 
BRANCH   3   5
ATOM      5  C   UNL     1       2.703   2.369  19.440  0.00  0.00    +0.000 C 
BRANCH   5   9
ATOM      6  C   UNL     1       5.873   4.455  17.371  0.00  0.00    +0.000 A 
ATOM      7  C   UNL     1       4.832   3.836  16.648  0.00  0.00    +0.000 A 
ATOM      8  C   UNL     1       3.803   3.177  17.323  0.00  0.00    +0.000 A 
ATOM      9  C   UNL     1       3.795   3.120  18.724  0.00  0.00    +0.000 A 
ATOM     10  C   UNL     1       4.818   3.756  19.442  0.00  0.00    +0.000 A 
ATOM     11  C   UNL     1       5.846   4.410  18.776  0.00  0.00    +0.000 A 
BRANCH   6  12
ATOM     12  C   UNL     1       6.994   5.132  16.696  0.00  0.00    +0.000 C 
ATOM     13  O   UNL     1       7.305   4.841  15.548  0.00  0.00    +0.000 OA
BRANCH  12  15
ATOM     14  C   UNL     1       7.488   7.406  17.381  0.00  0.00    +0.000 C 
ATOM     15  O   UNL     1       7.705   6.051  17.398  0.00  0.00    +0.000 OA
ENDBRANCH  12  15
ENDBRANCH   6  12
ENDBRANCH   5   9
ENDBRANCH   3   5
ENDBRANCH   1   3
BRANCH   1  16
ATOM     16  C   UNL     1       1.831   5.733  20.225  0.00  0.00    +0.000 C 
BRANCH  16  17
ATOM     17  C   UNL     1       2.611   6.722  19.339  0.00  0.00    +0.000 C 
BRANCH  17  18
ATOM     18  C   UNL     1       1.898   8.068  19.377  0.00  0.00    +0.000 A 
ATOM     19  C   UNL     1       1.876   8.888  18.239  0.00  0.00    +0.000 A 
ATOM     20  C   UNL     1       1.272  10.146  18.289  0.00  0.00    +0.000 A 
ATOM     21  C   UNL     1       0.678  10.596  19.472  0.00  0.00    +0.000 A 
ATOM     22  C   UNL     1       0.661   9.791  20.615  0.00  0.00    +0.000 A 
ATOM     23  C   UNL     1       1.283   8.528  20.563  0.00  0.00    +0.000 A 
BRANCH  22  24
ATOM     24  O   UNL     1       0.061  10.283  21.733  0.00  0.00    +0.000 OA
BRANCH  24  25
ATOM     25  C   UNL     1      -0.386   9.612  22.864  0.00  0.00    +0.000 C 
ATOM     26  F   UNL     1      -0.991   8.404  22.574  0.00  0.00    +0.000 F 
ATOM     27  F   UNL     1       0.672   9.403  23.727  0.00  0.00    +0.000 F 
ATOM     28  F   UNL     1      -1.324  10.406  23.496  0.00  0.00    +0.000 F 
ENDBRANCH  24  25
ENDBRANCH  22  24
ENDBRANCH  17  18
BRANCH  17  29
ATOM     29  O   UNL     1       2.739   6.254  18.016  0.00  0.00    +0.000 OA
ATOM     30  H   UNL     1       3.057   6.998  17.447  0.00  0.00    +0.000 HD
ENDBRANCH  17  29
ENDBRANCH  16  17
ENDBRANCH   1  16
TORSDOF 11
ENDMDL
MODEL 3
REMARK VINA RESULT:      -7.2      1.005      1.601
REMARK  Name = 
REMARK  13 active torsions:
REMARK  status: ('A' for Active; 'I' for Inactive)
REMARK    1  A    between atoms: C_1  and  O_2
REMARK    2  A    between atoms: O_2  and  C_3
REMARK    3  A    between atoms: C_3  and  C_5
REMARK    4  A    between atoms: C_8  and  C_9
REMARK    5  A    between atoms: C_9  and  C_10
REMARK    6  A    between atoms: C_10  and  C_11
REMARK    7  A    between atoms: C_10  and  N_12
REMARK    8  A    between atoms: N_12  and  C_13
REMARK    9  A    between atoms: C_13  and  C_14
REMARK   10  A    between atoms: C_14  and  O_15
REMARK   11  A    between atoms: C_14  and  C_16
REMARK   12  A    between atoms: C_20  and  O_21
REMARK   13  A    between atoms: O_21  and  C_22
REMARK                            x       y       z     vdW  Elec       q    Type
REMARK                         _______ _______ _______ _____ _____    ______ ____
ROOT
ATOM      1  N   UNL     1       5.430   4.422  19.408  0.00  0.00    +0.000 NA
ATOM      2  H   UNL     1       5.542   3.768  18.600  0.00  0.00    +0.000 HD
ENDROOT
BRANCH   1   3
ATOM      3  C   UNL     1       4.017   4.843  19.546  0.00  0.00    +0.000 C 
ATOM      4  C   UNL     1       3.133   3.622  19.850  0.00  0.00    +0.000 C 
BRANCH   3   5
ATOM      5  C   UNL     1       3.461   5.616  18.310  0.00  0.00    +0.000 C 
BRANCH   5   9
ATOM      6  C   UNL     1       1.267   9.182  19.383  0.00  0.00    +0.000 A 
ATOM      7  C   UNL     1       1.596   8.222  20.362  0.00  0.00    +0.000 A 
ATOM      8  C   UNL     1       2.318   7.080  20.012  0.00  0.00    +0.000 A 
ATOM      9  C   UNL     1       2.720   6.873  18.684  0.00  0.00    +0.000 A 
ATOM     10  C   UNL     1       2.412   7.839  17.716  0.00  0.00    +0.000 A 
ATOM     11  C   UNL     1       1.691   8.976  18.058  0.00  0.00    +0.000 A 
BRANCH   6  12
ATOM     12  C   UNL     1       0.478  10.384  19.705  0.00  0.00    +0.000 C 
ATOM     13  O   UNL     1      -0.589  10.604  19.148  0.00  0.00    +0.000 OA
BRANCH  12  15
ATOM     14  C   UNL     1       0.490  12.518  20.859  0.00  0.00    +0.000 C 
ATOM     15  O   UNL     1       0.991  11.267  20.601  0.00  0.00    +0.000 OA
ENDBRANCH  12  15
ENDBRANCH   6  12
ENDBRANCH   5   9
ENDBRANCH   3   5
ENDBRANCH   1   3
BRANCH   1  16
ATOM     16  C   UNL     1       6.315   5.589  19.265  0.00  0.00    +0.000 C 
BRANCH  16  17
ATOM     17  C   UNL     1       7.398   5.416  18.184  0.00  0.00    +0.000 C 
BRANCH  17  18
ATOM     18  C   UNL     1       6.726   5.455  16.817  0.00  0.00    +0.000 A 
ATOM     19  C   UNL     1       5.868   6.512  16.482  0.00  0.00    +0.000 A 
ATOM     20  C   UNL     1       5.207   6.519  15.252  0.00  0.00    +0.000 A 
ATOM     21  C   UNL     1       5.400   5.477  14.342  0.00  0.00    +0.000 A 
ATOM     22  C   UNL     1       6.268   4.421  14.637  0.00  0.00    +0.000 A 
ATOM     23  C   UNL     1       6.923   4.412  15.884  0.00  0.00    +0.000 A 
BRANCH  22  24
ATOM     24  O   UNL     1       6.419   3.440  13.706  0.00  0.00    +0.000 OA
BRANCH  24  25
ATOM     25  C   UNL     1       6.015   3.413  12.377  0.00  0.00    +0.000 C 
ATOM     26  F   UNL     1       4.670   3.683  12.213  0.00  0.00    +0.000 F 
ATOM     27  F   UNL     1       6.760   4.321  11.649  0.00  0.00    +0.000 F 
ATOM     28  F   UNL     1       6.249   2.146  11.879  0.00  0.00    +0.000 F 
ENDBRANCH  24  25
ENDBRANCH  22  24
ENDBRANCH  17  18
BRANCH  17  29
ATOM     29  O   UNL     1       8.126   4.222  18.356  0.00  0.00    +0.000 OA
ATOM     30  H   UNL     1       9.035   4.350  17.989  0.00  0.00    +0.000 HD
ENDBRANCH  17  29
ENDBRANCH  16  17
ENDBRANCH   1  16
TORSDOF 11
ENDMDL
MODEL 4
REMARK VINA RESULT:      -7.2      3.278      7.577
REMARK  Name = 
REMARK  13 active torsions:
REMARK  status: ('A' for Active; 'I' for Inactive)
REMARK    1  A    between atoms: C_1  and  O_2
REMARK    2  A    between atoms: O_2  and  C_3
REMARK    3  A    between atoms: C_3  and  C_5
REMARK    4  A    between atoms: C_8  and  C_9
REMARK    5  A    between atoms: C_9  and  C_10
REMARK    6  A    between atoms: C_10  and  C_11
REMARK    7  A    between atoms: C_10  and  N_12
REMARK    8  A    between atoms: N_12  and  C_13
REMARK    9  A    between atoms: C_13  and  C_14
REMARK   10  A    between atoms: C_14  and  O_15
REMARK   11  A    between atoms: C_14  and  C_16
REMARK   12  A    between atoms: C_20  and  O_21
REMARK   13  A    between atoms: O_21  and  C_22
REMARK                            x       y       z     vdW  Elec       q    Type
REMARK                         _______ _______ _______ _____ _____    ______ ____
ROOT
ATOM      1  N   UNL     1       5.816   7.279  16.379  0.00  0.00    +0.000 NA
ATOM      2  H   UNL     1       6.164   6.997  15.435  0.00  0.00    +0.000 HD
ENDROOT
BRANCH   1   3
ATOM      3  C   UNL     1       6.664   6.694  17.443  0.00  0.00    +0.000 C 
ATOM      4  C   UNL     1       7.746   7.702  17.866  0.00  0.00    +0.000 C 
BRANCH   3   5
ATOM      5  C   UNL     1       7.319   5.332  17.056  0.00  0.00    +0.000 C 
BRANCH   5   9
ATOM      6  C   UNL     1       5.914   3.695  13.311  0.00  0.00    +0.000 A 
ATOM      7  C   UNL     1       5.285   3.349  14.525  0.00  0.00    +0.000 A 
ATOM      8  C   UNL     1       5.734   3.893  15.729  0.00  0.00    +0.000 A 
ATOM      9  C   UNL     1       6.816   4.785  15.745  0.00  0.00    +0.000 A 
ATOM     10  C   UNL     1       7.426   5.146  14.535  0.00  0.00    +0.000 A 
ATOM     11  C   UNL     1       6.985   4.605  13.334  0.00  0.00    +0.000 A 
BRANCH   6  12
ATOM     12  C   UNL     1       5.491   3.117  12.023  0.00  0.00    +0.000 C 
ATOM     13  O   UNL     1       6.057   2.137  11.557  0.00  0.00    +0.000 OA
BRANCH  12  15
ATOM     14  C   UNL     1       3.402   3.104  10.790  0.00  0.00    +0.000 C 
ATOM     15  O   UNL     1       4.490   3.732  11.342  0.00  0.00    +0.000 OA
ENDBRANCH  12  15
ENDBRANCH   6  12
ENDBRANCH   5   9
ENDBRANCH   3   5
ENDBRANCH   1   3
BRANCH   1  16
ATOM     16  C   UNL     1       4.407   6.892  16.557  0.00  0.00    +0.000 C 
BRANCH  16  17
ATOM     17  C   UNL     1       3.721   7.581  17.752  0.00  0.00    +0.000 C 
BRANCH  17  18
ATOM     18  C   UNL     1       3.177   6.504  18.682  0.00  0.00    +0.000 A 
ATOM     19  C   UNL     1       2.294   6.844  19.716  0.00  0.00    +0.000 A 
ATOM     20  C   UNL     1       1.839   5.867  20.604  0.00  0.00    +0.000 A 
ATOM     21  C   UNL     1       2.255   4.540  20.465  0.00  0.00    +0.000 A 
ATOM     22  C   UNL     1       3.115   4.165  19.429  0.00  0.00    +0.000 A 
ATOM     23  C   UNL     1       3.581   5.157  18.544  0.00  0.00    +0.000 A 
BRANCH  22  24
ATOM     24  O   UNL     1       3.477   2.856  19.343  0.00  0.00    +0.000 OA
BRANCH  24  25
ATOM     25  C   UNL     1       2.891   1.822  18.625  0.00  0.00    +0.000 C 
ATOM     26  F   UNL     1       3.720   0.727  18.475  0.00  0.00    +0.000 F 
ATOM     27  F   UNL     1       1.719   1.433  19.245  0.00  0.00    +0.000 F 
ATOM     28  F   UNL     1       2.589   2.291  17.361  0.00  0.00    +0.000 F 
ENDBRANCH  24  25
ENDBRANCH  22  24
ENDBRANCH  17  18
BRANCH  17  29
ATOM     29  O   UNL     1       2.698   8.456  17.336  0.00  0.00    +0.000 OA
ATOM     30  H   UNL     1       3.112   9.264  16.946  0.00  0.00    +0.000 HD
ENDBRANCH  17  29
ENDBRANCH  16  17
ENDBRANCH   1  16
TORSDOF 11
ENDMDL
MODEL 5
REMARK VINA RESULT:      -7.1      4.040      8.625
REMARK  Name = 
REMARK  13 active torsions:
REMARK  status: ('A' for Active; 'I' for Inactive)
REMARK    1  A    between atoms: C_1  and  O_2
REMARK    2  A    between atoms: O_2  and  C_3
REMARK    3  A    between atoms: C_3  and  C_5
REMARK    4  A    between atoms: C_8  and  C_9
REMARK    5  A    between atoms: C_9  and  C_10
REMARK    6  A    between atoms: C_10  and  C_11
REMARK    7  A    between atoms: C_10  and  N_12
REMARK    8  A    between atoms: N_12  and  C_13
REMARK    9  A    between atoms: C_13  and  C_14
REMARK   10  A    between atoms: C_14  and  O_15
REMARK   11  A    between atoms: C_14  and  C_16
REMARK   12  A    between atoms: C_20  and  O_21
REMARK   13  A    between atoms: O_21  and  C_22
REMARK                            x       y       z     vdW  Elec       q    Type
REMARK                         _______ _______ _______ _____ _____    ______ ____
ROOT
ATOM      1  N   UNL     1       2.334   6.763  20.650  0.00  0.00    +0.000 NA
ATOM      2  H   UNL     1       3.332   6.888  20.364  0.00  0.00    +0.000 HD
ENDROOT
BRANCH   1   3
ATOM      3  C   UNL     1       1.740   5.592  19.964  0.00  0.00    +0.000 C 
ATOM      4  C   UNL     1       2.354   4.294  20.514  0.00  0.00    +0.000 C 
BRANCH   3   5
ATOM      5  C   UNL     1       1.870   5.633  18.410  0.00  0.00    +0.000 C 
BRANCH   5   9
ATOM      6  C   UNL     1       5.874   4.908  16.952  0.00  0.00    +0.000 A 
ATOM      7  C   UNL     1       5.470   6.208  17.320  0.00  0.00    +0.000 A 
ATOM      8  C   UNL     1       4.180   6.433  17.805  0.00  0.00    +0.000 A 
ATOM      9  C   UNL     1       3.273   5.371  17.927  0.00  0.00    +0.000 A 
ATOM     10  C   UNL     1       3.682   4.075  17.582  0.00  0.00    +0.000 A 
ATOM     11  C   UNL     1       4.964   3.846  17.096  0.00  0.00    +0.000 A 
BRANCH   6  12
ATOM     12  C   UNL     1       7.214   4.635  16.406  0.00  0.00    +0.000 C 
ATOM     13  O   UNL     1       8.111   4.208  17.121  0.00  0.00    +0.000 OA
BRANCH  12  15
ATOM     14  C   UNL     1       6.633   4.551  14.051  0.00  0.00    +0.000 C 
ATOM     15  O   UNL     1       7.443   4.918  15.097  0.00  0.00    +0.000 OA
ENDBRANCH  12  15
ENDBRANCH   6  12
ENDBRANCH   5   9
ENDBRANCH   3   5
ENDBRANCH   1   3
BRANCH   1  16
ATOM     16  C   UNL     1       1.553   7.981  20.383  0.00  0.00    +0.000 C 
BRANCH  16  17
ATOM     17  C   UNL     1       1.048   8.684  21.656  0.00  0.00    +0.000 C 
BRANCH  17  18
ATOM     18  C   UNL     1       0.127   9.826  21.243  0.00  0.00    +0.000 A 
ATOM     19  C   UNL     1      -0.384  10.705  22.208  0.00  0.00    +0.000 A 
ATOM     20  C   UNL     1      -1.273  11.717  21.838  0.00  0.00    +0.000 A 
ATOM     21  C   UNL     1      -1.654  11.867  20.502  0.00  0.00    +0.000 A 
ATOM     22  C   UNL     1      -1.141  11.022  19.513  0.00  0.00    +0.000 A 
ATOM     23  C   UNL     1      -0.256   9.994  19.893  0.00  0.00    +0.000 A 
BRANCH  22  24
ATOM     24  O   UNL     1      -1.546  11.223  18.229  0.00  0.00    +0.000 OA
BRANCH  24  25
ATOM     25  C   UNL     1      -1.947  10.298  17.274  0.00  0.00    +0.000 C 
ATOM     26  F   UNL     1      -2.417  10.885  16.114  0.00  0.00    +0.000 F 
ATOM     27  F   UNL     1      -0.894   9.457  16.972  0.00  0.00    +0.000 F 
ATOM     28  F   UNL     1      -2.976   9.546  17.806  0.00  0.00    +0.000 F 
ENDBRANCH  24  25
ENDBRANCH  22  24
ENDBRANCH  17  18
BRANCH  17  29
ATOM     29  O   UNL     1       2.110   9.153  22.454  0.00  0.00    +0.000 OA
ATOM     30  H   UNL     1       2.672   9.757  21.909  0.00  0.00    +0.000 HD
ENDBRANCH  17  29
ENDBRANCH  16  17
ENDBRANCH   1  16
TORSDOF 11
ENDMDL
MODEL 6
REMARK VINA RESULT:      -7.1      1.515      2.393
REMARK  Name = 
REMARK  13 active torsions:
REMARK  status: ('A' for Active; 'I' for Inactive)
REMARK    1  A    between atoms: C_1  and  O_2
REMARK    2  A    between atoms: O_2  and  C_3
REMARK    3  A    between atoms: C_3  and  C_5
REMARK    4  A    between atoms: C_8  and  C_9
REMARK    5  A    between atoms: C_9  and  C_10
REMARK    6  A    between atoms: C_10  and  C_11
REMARK    7  A    between atoms: C_10  and  N_12
REMARK    8  A    between atoms: N_12  and  C_13
REMARK    9  A    between atoms: C_13  and  C_14
REMARK   10  A    between atoms: C_14  and  O_15
REMARK   11  A    between atoms: C_14  and  C_16
REMARK   12  A    between atoms: C_20  and  O_21
REMARK   13  A    between atoms: O_21  and  C_22
REMARK                            x       y       z     vdW  Elec       q    Type
REMARK                         _______ _______ _______ _____ _____    ______ ____
ROOT
ATOM      1  N   UNL     1       3.756   4.962  20.120  0.00  0.00    +0.000 NA
ATOM      2  H   UNL     1       3.825   3.921  20.187  0.00  0.00    +0.000 HD
ENDROOT
BRANCH   1   3
ATOM      3  C   UNL     1       2.472   5.360  19.498  0.00  0.00    +0.000 C 
ATOM      4  C   UNL     1       1.816   4.142  18.825  0.00  0.00    +0.000 C 
BRANCH   3   5
ATOM      5  C   UNL     1       2.596   6.535  18.480  0.00  0.00    +0.000 C 
BRANCH   5   9
ATOM      6  C   UNL     1       0.877  10.215  19.958  0.00  0.00    +0.000 A 
ATOM      7  C   UNL     1       1.034   9.103  20.812  0.00  0.00    +0.000 A 
ATOM      8  C   UNL     1       1.604   7.923  20.332  0.00  0.00    +0.000 A 
ATOM      9  C   UNL     1       2.023   7.828  18.997  0.00  0.00    +0.000 A 
ATOM     10  C   UNL     1       1.887   8.941  18.155  0.00  0.00    +0.000 A 
ATOM     11  C   UNL     1       1.318  10.117  18.626  0.00  0.00    +0.000 A 
BRANCH   6  12
ATOM     12  C   UNL     1       0.250  11.466  20.417  0.00  0.00    +0.000 C 
ATOM     13  O   UNL     1      -0.907  11.735  20.124  0.00  0.00    +0.000 OA
BRANCH  12  15
ATOM     14  C   UNL     1       0.569  13.532  21.649  0.00  0.00    +0.000 C 
ATOM     15  O   UNL     1       1.008  12.339  21.131  0.00  0.00    +0.000 OA
ENDBRANCH  12  15
ENDBRANCH   6  12
ENDBRANCH   5   9
ENDBRANCH   3   5
ENDBRANCH   1   3
BRANCH   1  16
ATOM     16  C   UNL     1       4.896   5.517  19.373  0.00  0.00    +0.000 C 
BRANCH  16  17
ATOM     17  C   UNL     1       5.719   4.456  18.619  0.00  0.00    +0.000 C 
BRANCH  17  18
ATOM     18  C   UNL     1       5.720   4.811  17.138  0.00  0.00    +0.000 A 
ATOM     19  C   UNL     1       5.439   6.121  16.725  0.00  0.00    +0.000 A 
ATOM     20  C   UNL     1       5.384   6.434  15.365  0.00  0.00    +0.000 A 
ATOM     21  C   UNL     1       5.615   5.446  14.404  0.00  0.00    +0.000 A 
ATOM     22  C   UNL     1       5.922   4.136  14.785  0.00  0.00    +0.000 A 
ATOM     23  C   UNL     1       5.964   3.823  16.157  0.00  0.00    +0.000 A 
BRANCH  22  24
ATOM     24  O   UNL     1       6.144   3.222  13.801  0.00  0.00    +0.000 OA
BRANCH  24  25
ATOM     25  C   UNL     1       5.877   3.306  12.441  0.00  0.00    +0.000 C 
ATOM     26  F   UNL     1       6.710   4.187  11.778  0.00  0.00    +0.000 F 
ATOM     27  F   UNL     1       5.982   2.052  11.870  0.00  0.00    +0.000 F 
ATOM     28  F   UNL     1       4.582   3.759  12.281  0.00  0.00    +0.000 F 
ENDBRANCH  24  25
ENDBRANCH  22  24
ENDBRANCH  17  18
BRANCH  17  29
ATOM     29  O   UNL     1       5.217   3.156  18.828  0.00  0.00    +0.000 OA
ATOM     30  H   UNL     1       5.252   2.955  19.796  0.00  0.00    +0.000 HD
ENDBRANCH  17  29
ENDBRANCH  16  17
ENDBRANCH   1  16
TORSDOF 11
ENDMDL
MODEL 7
REMARK VINA RESULT:      -7.1      5.904      7.625
REMARK  Name = 
REMARK  13 active torsions:
REMARK  status: ('A' for Active; 'I' for Inactive)
REMARK    1  A    between atoms: C_1  and  O_2
REMARK    2  A    between atoms: O_2  and  C_3
REMARK    3  A    between atoms: C_3  and  C_5
REMARK    4  A    between atoms: C_8  and  C_9
REMARK    5  A    between atoms: C_9  and  C_10
REMARK    6  A    between atoms: C_10  and  C_11
REMARK    7  A    between atoms: C_10  and  N_12
REMARK    8  A    between atoms: N_12  and  C_13
REMARK    9  A    between atoms: C_13  and  C_14
REMARK   10  A    between atoms: C_14  and  O_15
REMARK   11  A    between atoms: C_14  and  C_16
REMARK   12  A    between atoms: C_20  and  O_21
REMARK   13  A    between atoms: O_21  and  C_22
REMARK                            x       y       z     vdW  Elec       q    Type
REMARK                         _______ _______ _______ _____ _____    ______ ____
ROOT
ATOM      1  N   UNL     1       7.542   6.240  16.542  0.00  0.00    +0.000 NA
ATOM      2  H   UNL     1       8.322   6.085  15.862  0.00  0.00    +0.000 HD
ENDROOT
BRANCH   1   3
ATOM      3  C   UNL     1       7.983   7.121  17.647  0.00  0.00    +0.000 C 
ATOM      4  C   UNL     1       7.830   6.391  18.993  0.00  0.00    +0.000 C 
BRANCH   3   5
ATOM      5  C   UNL     1       7.248   8.496  17.695  0.00  0.00    +0.000 C 
BRANCH   5   9
ATOM      6  C   UNL     1       9.794  11.781  18.881  0.00  0.00    +0.000 A 
ATOM      7  C   UNL     1       9.892  10.531  19.525  0.00  0.00    +0.000 A 
ATOM      8  C   UNL     1       9.077   9.469  19.127  0.00  0.00    +0.000 A 
ATOM      9  C   UNL     1       8.152   9.636  18.086  0.00  0.00    +0.000 A 
ATOM     10  C   UNL     1       8.071  10.873  17.432  0.00  0.00    +0.000 A 
ATOM     11  C   UNL     1       8.878  11.934  17.826  0.00  0.00    +0.000 A 
BRANCH   6  12
ATOM     12  C   UNL     1      10.612  12.935  19.293  0.00  0.00    +0.000 C 
ATOM     13  O   UNL     1      11.171  13.639  18.462  0.00  0.00    +0.000 OA
BRANCH  12  15
ATOM     14  C   UNL     1      10.068  14.086  21.358  0.00  0.00    +0.000 C 
ATOM     15  O   UNL     1      10.772  13.167  20.622  0.00  0.00    +0.000 OA
ENDBRANCH  12  15
ENDBRANCH   6  12
ENDBRANCH   5   9
ENDBRANCH   3   5
ENDBRANCH   1   3
BRANCH   1  16
ATOM     16  C   UNL     1       7.035   4.959  17.060  0.00  0.00    +0.000 C 
BRANCH  16  17
ATOM     17  C   UNL     1       5.636   4.589  16.533  0.00  0.00    +0.000 C 
BRANCH  17  18
ATOM     18  C   UNL     1       4.597   5.117  17.514  0.00  0.00    +0.000 A 
ATOM     19  C   UNL     1       4.131   6.435  17.408  0.00  0.00    +0.000 A 
ATOM     20  C   UNL     1       3.221   6.938  18.341  0.00  0.00    +0.000 A 
ATOM     21  C   UNL     1       2.762   6.130  19.384  0.00  0.00    +0.000 A 
ATOM     22  C   UNL     1       3.189   4.803  19.502  0.00  0.00    +0.000 A 
ATOM     23  C   UNL     1       4.116   4.305  18.567  0.00  0.00    +0.000 A 
BRANCH  22  24
ATOM     24  O   UNL     1       2.700   4.066  20.536  0.00  0.00    +0.000 OA
BRANCH  24  25
ATOM     25  C   UNL     1       1.526   3.328  20.617  0.00  0.00    +0.000 C 
ATOM     26  F   UNL     1       1.302   2.801  21.875  0.00  0.00    +0.000 F 
ATOM     27  F   UNL     1       0.455   4.119  20.250  0.00  0.00    +0.000 F 
ATOM     28  F   UNL     1       1.619   2.270  19.734  0.00  0.00    +0.000 F 
ENDBRANCH  24  25
ENDBRANCH  22  24
ENDBRANCH  17  18
BRANCH  17  29
ATOM     29  O   UNL     1       5.496   3.199  16.347  0.00  0.00    +0.000 OA
ATOM     30  H   UNL     1       4.686   3.033  15.805  0.00  0.00    +0.000 HD
ENDBRANCH  17  29
ENDBRANCH  16  17
ENDBRANCH   1  16
TORSDOF 11
ENDMDL
MODEL 8
REMARK VINA RESULT:      -7.0      1.514      2.051
REMARK  Name = 
REMARK  13 active torsions:
REMARK  status: ('A' for Active; 'I' for Inactive)
REMARK    1  A    between atoms: C_1  and  O_2
REMARK    2  A    between atoms: O_2  and  C_3
REMARK    3  A    between atoms: C_3  and  C_5
REMARK    4  A    between atoms: C_8  and  C_9
REMARK    5  A    between atoms: C_9  and  C_10
REMARK    6  A    between atoms: C_10  and  C_11
REMARK    7  A    between atoms: C_10  and  N_12
REMARK    8  A    between atoms: N_12  and  C_13
REMARK    9  A    between atoms: C_13  and  C_14
REMARK   10  A    between atoms: C_14  and  O_15
REMARK   11  A    between atoms: C_14  and  C_16
REMARK   12  A    between atoms: C_20  and  O_21
REMARK   13  A    between atoms: O_21  and  C_22
REMARK                            x       y       z     vdW  Elec       q    Type
REMARK                         _______ _______ _______ _____ _____    ______ ____
ROOT
ATOM      1  N   UNL     1       3.906   4.909  20.303  0.00  0.00    +0.000 NA
ATOM      2  H   UNL     1       3.855   3.865  20.342  0.00  0.00    +0.000 HD
ENDROOT
BRANCH   1   3
ATOM      3  C   UNL     1       2.586   5.482  19.957  0.00  0.00    +0.000 C 
ATOM      4  C   UNL     1       1.628   4.363  19.513  0.00  0.00    +0.000 C 
BRANCH   3   5
ATOM      5  C   UNL     1       2.643   6.602  18.872  0.00  0.00    +0.000 C 
BRANCH   5   9
ATOM      6  C   UNL     1       0.771  10.295  20.114  0.00  0.00    +0.000 A 
ATOM      7  C   UNL     1       1.204  10.124  18.783  0.00  0.00    +0.000 A 
ATOM      8  C   UNL     1       1.794   8.923  18.384  0.00  0.00    +0.000 A 
ATOM      9  C   UNL     1       1.966   7.877  19.303  0.00  0.00    +0.000 A 
ATOM     10  C   UNL     1       1.515   8.040  20.621  0.00  0.00    +0.000 A 
ATOM     11  C   UNL     1       0.930   9.234  21.023  0.00  0.00    +0.000 A 
BRANCH   6  12
ATOM     12  C   UNL     1       0.175  11.558  20.582  0.00  0.00    +0.000 C 
ATOM     13  O   UNL     1       0.364  11.959  21.723  0.00  0.00    +0.000 OA
BRANCH  12  15
ATOM     14  C   UNL     1      -1.644  13.091  20.102  0.00  0.00    +0.000 C 
ATOM     15  O   UNL     1      -0.633  12.240  19.730  0.00  0.00    +0.000 OA
ENDBRANCH  12  15
ENDBRANCH   6  12
ENDBRANCH   5   9
ENDBRANCH   3   5
ENDBRANCH   1   3
BRANCH   1  16
ATOM     16  C   UNL     1       4.937   5.349  19.349  0.00  0.00    +0.000 C 
BRANCH  16  17
ATOM     17  C   UNL     1       5.551   4.201  18.526  0.00  0.00    +0.000 C 
BRANCH  17  18
ATOM     18  C   UNL     1       5.606   4.631  17.066  0.00  0.00    +0.000 A 
ATOM     19  C   UNL     1       5.273   5.944  16.703  0.00  0.00    +0.000 A 
ATOM     20  C   UNL     1       5.269   6.324  15.359  0.00  0.00    +0.000 A 
ATOM     21  C   UNL     1       5.602   5.400  14.365  0.00  0.00    +0.000 A 
ATOM     22  C   UNL     1       5.963   4.091  14.697  0.00  0.00    +0.000 A 
ATOM     23  C   UNL     1       5.954   3.709  16.053  0.00  0.00    +0.000 A 
BRANCH  22  24
ATOM     24  O   UNL     1       6.284   3.241  13.683  0.00  0.00    +0.000 OA
BRANCH  24  25
ATOM     25  C   UNL     1       6.202   3.433  12.310  0.00  0.00    +0.000 C 
ATOM     26  F   UNL     1       4.930   3.765  11.884  0.00  0.00    +0.000 F 
ATOM     27  F   UNL     1       7.090   4.420  11.926  0.00  0.00    +0.000 F 
ATOM     28  F   UNL     1       6.555   2.252  11.686  0.00  0.00    +0.000 F 
ENDBRANCH  24  25
ENDBRANCH  22  24
ENDBRANCH  17  18
BRANCH  17  29
ATOM     29  O   UNL     1       4.825   3.003  18.674  0.00  0.00    +0.000 OA
ATOM     30  H   UNL     1       3.867   3.193  18.523  0.00  0.00    +0.000 HD
ENDBRANCH  17  29
ENDBRANCH  16  17
ENDBRANCH   1  16
TORSDOF 11
ENDMDL
MODEL 9
REMARK VINA RESULT:      -7.0      1.959      2.982
REMARK  Name = 
REMARK  13 active torsions:
REMARK  status: ('A' for Active; 'I' for Inactive)
REMARK    1  A    between atoms: C_1  and  O_2
REMARK    2  A    between atoms: O_2  and  C_3
REMARK    3  A    between atoms: C_3  and  C_5
REMARK    4  A    between atoms: C_8  and  C_9
REMARK    5  A    between atoms: C_9  and  C_10
REMARK    6  A    between atoms: C_10  and  C_11
REMARK    7  A    between atoms: C_10  and  N_12
REMARK    8  A    between atoms: N_12  and  C_13
REMARK    9  A    between atoms: C_13  and  C_14
REMARK   10  A    between atoms: C_14  and  O_15
REMARK   11  A    between atoms: C_14  and  C_16
REMARK   12  A    between atoms: C_20  and  O_21
REMARK   13  A    between atoms: O_21  and  C_22
REMARK                            x       y       z     vdW  Elec       q    Type
REMARK                         _______ _______ _______ _____ _____    ______ ____
ROOT
ATOM      1  N   UNL     1       3.205   5.459  20.016  0.00  0.00    +0.000 NA
ATOM      2  H   UNL     1       2.881   5.646  20.992  0.00  0.00    +0.000 HD
ENDROOT
BRANCH   1   3
ATOM      3  C   UNL     1       2.221   5.972  19.035  0.00  0.00    +0.000 C 
ATOM      4  C   UNL     1       1.894   4.882  18.000  0.00  0.00    +0.000 C 
BRANCH   3   5
ATOM      5  C   UNL     1       2.667   7.282  18.314  0.00  0.00    +0.000 C 
BRANCH   5   9
ATOM      6  C   UNL     1       0.713  10.835  19.809  0.00  0.00    +0.000 A 
ATOM      7  C   UNL     1       1.301  10.827  18.527  0.00  0.00    +0.000 A 
ATOM      8  C   UNL     1       1.917   9.671  18.044  0.00  0.00    +0.000 A 
ATOM      9  C   UNL     1       1.961   8.509  18.828  0.00  0.00    +0.000 A 
ATOM     10  C   UNL     1       1.356   8.512  20.094  0.00  0.00    +0.000 A 
ATOM     11  C   UNL     1       0.744   9.660  20.580  0.00  0.00    +0.000 A 
BRANCH   6  12
ATOM     12  C   UNL     1       0.082  12.043  20.368  0.00  0.00    +0.000 C 
ATOM     13  O   UNL     1      -0.961  11.972  21.004  0.00  0.00    +0.000 OA
BRANCH  12  15
ATOM     14  C   UNL     1       1.728  13.772  20.802  0.00  0.00    +0.000 C 
ATOM     15  O   UNL     1       0.663  13.245  20.116  0.00  0.00    +0.000 OA
ENDBRANCH  12  15
ENDBRANCH   6  12
ENDBRANCH   5   9
ENDBRANCH   3   5
ENDBRANCH   1   3
BRANCH   1  16
ATOM     16  C   UNL     1       3.453   4.023  19.810  0.00  0.00    +0.000 C 
BRANCH  16  17
ATOM     17  C   UNL     1       4.947   3.650  19.786  0.00  0.00    +0.000 C 
BRANCH  17  18
ATOM     18  C   UNL     1       5.633   4.478  18.707  0.00  0.00    +0.000 A 
ATOM     19  C   UNL     1       6.654   5.377  19.049  0.00  0.00    +0.000 A 
ATOM     20  C   UNL     1       7.244   6.178  18.069  0.00  0.00    +0.000 A 
ATOM     21  C   UNL     1       6.828   6.085  16.738  0.00  0.00    +0.000 A 
ATOM     22  C   UNL     1       5.831   5.181  16.362  0.00  0.00    +0.000 A 
ATOM     23  C   UNL     1       5.229   4.384  17.356  0.00  0.00    +0.000 A 
BRANCH  22  24
ATOM     24  O   UNL     1       5.475   5.133  15.049  0.00  0.00    +0.000 OA
BRANCH  24  25
ATOM     25  C   UNL     1       5.963   4.326  14.031  0.00  0.00    +0.000 C 
ATOM     26  F   UNL     1       5.004   3.999  13.090  0.00  0.00    +0.000 F 
ATOM     27  F   UNL     1       7.025   4.954  13.409  0.00  0.00    +0.000 F 
ATOM     28  F   UNL     1       6.412   3.146  14.592  0.00  0.00    +0.000 F 
ENDBRANCH  24  25
ENDBRANCH  22  24
ENDBRANCH  17  18
BRANCH  17  29
ATOM     29  O   UNL     1       5.140   2.272  19.566  0.00  0.00    +0.000 OA
ATOM     30  H   UNL     1       5.913   1.971  20.104  0.00  0.00    +0.000 HD
ENDBRANCH  17  29
ENDBRANCH  16  17
ENDBRANCH   1  16
TORSDOF 11
ENDMDL
