MODEL 1
REMARK VINA RESULT:      -7.1      0.000      0.000
REMARK  Name = 
REMARK  4 active torsions:
REMARK  status: ('A' for Active; 'I' for Inactive)
REMARK    1  A    between atoms: C_1  and  C_2
REMARK    2  A    between atoms: N_9  and  C_10
REMARK    3  A    between atoms: C_10  and  C_11
REMARK    4  A    between atoms: C_20  and  O_21
REMARK                            x       y       z     vdW  Elec       q    Type
REMARK                         _______ _______ _______ _____ _____    ______ ____
ROOT
ATOM      1  C   UNL     1      -0.838  11.508  21.375  0.00  0.00    +0.000 C 
ATOM      2  C   UNL     1      -0.042  10.297  21.031  0.00  0.00    +0.000 A 
ATOM      3  N   UNL     1       0.722  10.321  19.932  0.00  0.00    +0.000 NA
ATOM      4  N   UNL     1       1.434   9.193  19.613  0.00  0.00    +0.000 NA
ATOM      5  C   UNL     1       1.370   8.074  20.374  0.00  0.00    +0.000 A 
ATOM      6  N   UNL     1       2.043   6.943  19.983  0.00  0.00    +0.000 N 
ATOM      7  C   UNL     1       1.956   5.699  20.743  0.00  0.00    +0.000 C 
ATOM      8  C   UNL     1       1.731   4.493  19.793  0.00  0.00    +0.000 C 
ATOM      9  N   UNL     1       2.641   4.421  18.620  0.00  0.00    +0.000 NA
ATOM     10  C   UNL     1       2.570   5.724  17.914  0.00  0.00    +0.000 C 
ATOM     11  C   UNL     1       2.886   6.955  18.791  0.00  0.00    +0.000 C 
ATOM     12  N   UNL     1       0.631   8.033  21.493  0.00  0.00    +0.000 NA
ATOM     13  C   UNL     1      -0.050   9.150  21.786  0.00  0.00    +0.000 A 
ENDROOT
BRANCH  13  14
ATOM     14  O   UNL     1      -0.783   9.050  22.926  0.00  0.00    +0.000 OA
ATOM     15  H   UNL     1      -1.620   8.703  22.565  0.00  0.00    +0.000 HD
ENDBRANCH  13  14
BRANCH   9  16
ATOM     16  C   UNL     1       4.005   4.075  19.058  0.00  0.00    +0.000 C 
BRANCH  16  17
ATOM     17  C   UNL     1       5.073   4.220  17.994  0.00  0.00    +0.000 A 
ATOM     18  C   UNL     1       4.862   3.700  16.707  0.00  0.00    +0.000 A 
ATOM     19  C   UNL     1       5.821   3.864  15.707  0.00  0.00    +0.000 A 
ATOM     20  C   UNL     1       7.001   4.553  15.981  0.00  0.00    +0.000 A 
ATOM     21  C   UNL     1       7.226   5.067  17.256  0.00  0.00    +0.000 A 
ATOM     22  C   UNL     1       6.269   4.901  18.259  0.00  0.00    +0.000 A 
ENDBRANCH  16  17
ENDBRANCH   9  16
TORSDOF 3
ENDMDL
MODEL 2
REMARK VINA RESULT:      -6.8      4.979      8.067
REMARK  Name = 
REMARK  4 active torsions:
REMARK  status: ('A' for Active; 'I' for Inactive)
REMARK    1  A    between atoms: C_1  and  C_2
REMARK    2  A    between atoms: N_9  and  C_10
REMARK    3  A    between atoms: C_10  and  C_11
REMARK    4  A    between atoms: C_20  and  O_21
REMARK                            x       y       z     vdW  Elec       q    Type
REMARK                         _______ _______ _______ _____ _____    ______ ____
ROOT
ATOM      1  C   UNL     1       7.799   4.382  11.341  0.00  0.00    +0.000 C 
ATOM      2  C   UNL     1       7.186   4.518  12.691  0.00  0.00    +0.000 A 
ATOM      3  N   UNL     1       7.638   5.476  13.509  0.00  0.00    +0.000 NA
ATOM      4  N   UNL     1       7.080   5.579  14.758  0.00  0.00    +0.000 NA
ATOM      5  C   UNL     1       6.102   4.736  15.170  0.00  0.00    +0.000 A 
ATOM      6  N   UNL     1       5.619   4.826  16.452  0.00  0.00    +0.000 N 
ATOM      7  C   UNL     1       4.606   3.902  16.955  0.00  0.00    +0.000 C 
ATOM      8  C   UNL     1       4.987   3.394  18.371  0.00  0.00    +0.000 C 
ATOM      9  N   UNL     1       5.383   4.443  19.346  0.00  0.00    +0.000 NA
ATOM     10  C   UNL     1       6.458   5.254  18.722  0.00  0.00    +0.000 C 
ATOM     11  C   UNL     1       6.096   5.870  17.354  0.00  0.00    +0.000 C 
ATOM     12  N   UNL     1       5.615   3.783  14.360  0.00  0.00    +0.000 NA
ATOM     13  C   UNL     1       6.173   3.708  13.144  0.00  0.00    +0.000 A 
ENDROOT
BRANCH  13  14
ATOM     14  O   UNL     1       5.644   2.724  12.369  0.00  0.00    +0.000 OA
ATOM     15  H   UNL     1       5.253   2.154  13.056  0.00  0.00    +0.000 HD
ENDBRANCH  13  14
BRANCH   9  16
ATOM     16  C   UNL     1       4.207   5.245  19.733  0.00  0.00    +0.000 C 
BRANCH  16  17
ATOM     17  C   UNL     1       2.991   4.439  20.134  0.00  0.00    +0.000 A 
ATOM     18  C   UNL     1       1.828   4.476  19.349  0.00  0.00    +0.000 A 
ATOM     19  C   UNL     1       0.715   3.705  19.686  0.00  0.00    +0.000 A 
ATOM     20  C   UNL     1       0.753   2.884  20.811  0.00  0.00    +0.000 A 
ATOM     21  C   UNL     1       1.898   2.843  21.604  0.00  0.00    +0.000 A 
ATOM     22  C   UNL     1       3.011   3.617  21.270  0.00  0.00    +0.000 A 
ENDBRANCH  16  17
ENDBRANCH   9  16
TORSDOF 3
ENDMDL
MODEL 3
REMARK VINA RESULT:      -6.8      5.016      8.118
REMARK  Name = 
REMARK  4 active torsions:
REMARK  status: ('A' for Active; 'I' for Inactive)
REMARK    1  A    between atoms: C_1  and  C_2
REMARK    2  A    between atoms: N_9  and  C_10
REMARK    3  A    between atoms: C_10  and  C_11
REMARK    4  A    between atoms: C_20  and  O_21
REMARK                            x       y       z     vdW  Elec       q    Type
REMARK                         _______ _______ _______ _____ _____    ______ ____
ROOT
ATOM      1  C   UNL     1       7.851   4.440  11.345  0.00  0.00    +0.000 C 
ATOM      2  C   UNL     1       7.239   4.553  12.698  0.00  0.00    +0.000 A 
ATOM      3  N   UNL     1       7.693   5.495  13.533  0.00  0.00    +0.000 NA
ATOM      4  N   UNL     1       7.138   5.576  14.784  0.00  0.00    +0.000 NA
ATOM      5  C   UNL     1       6.160   4.727  15.183  0.00  0.00    +0.000 A 
ATOM      6  N   UNL     1       5.678   4.794  16.467  0.00  0.00    +0.000 N 
ATOM      7  C   UNL     1       4.666   3.862  16.954  0.00  0.00    +0.000 C 
ATOM      8  C   UNL     1       5.047   3.328  18.360  0.00  0.00    +0.000 C 
ATOM      9  N   UNL     1       5.447   4.359  19.354  0.00  0.00    +0.000 NA
ATOM     10  C   UNL     1       6.522   5.179  18.743  0.00  0.00    +0.000 C 
ATOM     11  C   UNL     1       6.158   5.821  17.387  0.00  0.00    +0.000 C 
ATOM     12  N   UNL     1       5.670   3.789  14.357  0.00  0.00    +0.000 NA
ATOM     13  C   UNL     1       6.226   3.736  13.138  0.00  0.00    +0.000 A 
ENDROOT
BRANCH  13  14
ATOM     14  O   UNL     1       5.695   2.767  12.346  0.00  0.00    +0.000 OA
ATOM     15  H   UNL     1       6.480   2.519  11.825  0.00  0.00    +0.000 HD
ENDBRANCH  13  14
BRANCH   9  16
ATOM     16  C   UNL     1       4.273   5.154  19.757  0.00  0.00    +0.000 C 
BRANCH  16  17
ATOM     17  C   UNL     1       3.036   4.345  20.085  0.00  0.00    +0.000 A 
ATOM     18  C   UNL     1       3.030   3.482  21.192  0.00  0.00    +0.000 A 
ATOM     19  C   UNL     1       1.883   2.763  21.528  0.00  0.00    +0.000 A 
ATOM     20  C   UNL     1       0.726   2.901  20.764  0.00  0.00    +0.000 A 
ATOM     21  C   UNL     1       0.721   3.748  19.658  0.00  0.00    +0.000 A 
ATOM     22  C   UNL     1       1.869   4.467  19.318  0.00  0.00    +0.000 A 
ENDBRANCH  16  17
ENDBRANCH   9  16
TORSDOF 3
ENDMDL
MODEL 4
REMARK VINA RESULT:      -6.6      0.361      1.107
REMARK  Name = 
REMARK  4 active torsions:
REMARK  status: ('A' for Active; 'I' for Inactive)
REMARK    1  A    between atoms: C_1  and  C_2
REMARK    2  A    between atoms: N_9  and  C_10
REMARK    3  A    between atoms: C_10  and  C_11
REMARK    4  A    between atoms: C_20  and  O_21
REMARK                            x       y       z     vdW  Elec       q    Type
REMARK                         _______ _______ _______ _____ _____    ______ ____
ROOT
ATOM      1  C   UNL     1      -0.515  11.809  20.821  0.00  0.00    +0.000 C 
ATOM      2  C   UNL     1       0.209  10.533  20.573  0.00  0.00    +0.000 A 
ATOM      3  N   UNL     1       0.942  10.414  19.460  0.00  0.00    +0.000 NA
ATOM      4  N   UNL     1       1.589   9.226  19.231  0.00  0.00    +0.000 NA
ATOM      5  C   UNL     1       1.490   8.187  20.096  0.00  0.00    +0.000 A 
ATOM      6  N   UNL     1       2.094   6.991  19.797  0.00  0.00    +0.000 N 
ATOM      7  C   UNL     1       1.967   5.830  20.673  0.00  0.00    +0.000 C 
ATOM      8  C   UNL     1       1.656   4.554  19.846  0.00  0.00    +0.000 C 
ATOM      9  N   UNL     1       2.528   4.325  18.664  0.00  0.00    +0.000 NA
ATOM     10  C   UNL     1       2.502   5.560  17.841  0.00  0.00    +0.000 C 
ATOM     11  C   UNL     1       2.904   6.848  18.590  0.00  0.00    +0.000 C 
ATOM     12  N   UNL     1       0.782   8.289  21.231  0.00  0.00    +0.000 NA
ATOM     13  C   UNL     1       0.166   9.462  21.433  0.00  0.00    +0.000 A 
ENDROOT
BRANCH  13  14
ATOM     14  O   UNL     1      -0.540   9.507  22.595  0.00  0.00    +0.000 OA
ATOM     15  H   UNL     1      -0.705   8.556  22.734  0.00  0.00    +0.000 HD
ENDBRANCH  13  14
BRANCH   9  16
ATOM     16  C   UNL     1       3.885   3.952  19.101  0.00  0.00    +0.000 C 
BRANCH  16  17
ATOM     17  C   UNL     1       4.966   4.141  18.058  0.00  0.00    +0.000 A 
ATOM     18  C   UNL     1       6.224   4.643  18.427  0.00  0.00    +0.000 A 
ATOM     19  C   UNL     1       7.240   4.782  17.482  0.00  0.00    +0.000 A 
ATOM     20  C   UNL     1       7.013   4.418  16.156  0.00  0.00    +0.000 A 
ATOM     21  C   UNL     1       5.767   3.926  15.775  0.00  0.00    +0.000 A 
ATOM     22  C   UNL     1       4.747   3.789  16.719  0.00  0.00    +0.000 A 
ENDBRANCH  16  17
ENDBRANCH   9  16
TORSDOF 3
ENDMDL
MODEL 5
REMARK VINA RESULT:      -6.6      2.446      3.724
REMARK  Name = 
REMARK  4 active torsions:
REMARK  status: ('A' for Active; 'I' for Inactive)
REMARK    1  A    between atoms: C_1  and  C_2
REMARK    2  A    between atoms: N_9  and  C_10
REMARK    3  A    between atoms: C_10  and  C_11
REMARK    4  A    between atoms: C_20  and  O_21
REMARK                            x       y       z     vdW  Elec       q    Type
REMARK                         _______ _______ _______ _____ _____    ______ ____
ROOT
ATOM      1  C   UNL     1       0.438  10.289  20.540  0.00  0.00    +0.000 C 
ATOM      2  C   UNL     1       1.249   9.287  19.796  0.00  0.00    +0.000 A 
ATOM      3  N   UNL     1       1.555   8.131  20.399  0.00  0.00    +0.000 NA
ATOM      4  N   UNL     1       2.320   7.224  19.713  0.00  0.00    +0.000 NA
ATOM      5  C   UNL     1       2.770   7.479  18.460  0.00  0.00    +0.000 A 
ATOM      6  N   UNL     1       3.592   6.575  17.833  0.00  0.00    +0.000 N 
ATOM      7  C   UNL     1       4.144   6.835  16.506  0.00  0.00    +0.000 C 
ATOM      8  C   UNL     1       5.655   6.484  16.466  0.00  0.00    +0.000 C 
ATOM      9  N   UNL     1       6.021   5.155  17.022  0.00  0.00    +0.000 NA
ATOM     10  C   UNL     1       5.451   5.067  18.389  0.00  0.00    +0.000 C 
ATOM     11  C   UNL     1       3.929   5.307  18.474  0.00  0.00    +0.000 C 
ATOM     12  N   UNL     1       2.457   8.618  17.824  0.00  0.00    +0.000 NA
ATOM     13  C   UNL     1       1.703   9.485  18.515  0.00  0.00    +0.000 A 
ENDROOT
BRANCH  13  14
ATOM     14  O   UNL     1       1.420  10.622  17.825  0.00  0.00    +0.000 OA
ATOM     15  H   UNL     1       0.469  10.709  18.016  0.00  0.00    +0.000 HD
ENDBRANCH  13  14
BRANCH   9  16
ATOM     16  C   UNL     1       5.545   4.083  16.128  0.00  0.00    +0.000 C 
BRANCH  16  17
ATOM     17  C   UNL     1       6.065   4.159  14.709  0.00  0.00    +0.000 A 
ATOM     18  C   UNL     1       7.222   4.900  14.419  0.00  0.00    +0.000 A 
ATOM     19  C   UNL     1       7.734   4.942  13.122  0.00  0.00    +0.000 A 
ATOM     20  C   UNL     1       7.098   4.241  12.099  0.00  0.00    +0.000 A 
ATOM     21  C   UNL     1       5.945   3.509  12.371  0.00  0.00    +0.000 A 
ATOM     22  C   UNL     1       5.429   3.467  13.668  0.00  0.00    +0.000 A 
ENDBRANCH  16  17
ENDBRANCH   9  16
TORSDOF 3
ENDMDL
MODEL 6
REMARK VINA RESULT:      -6.6      2.290      3.731
REMARK  Name = 
REMARK  4 active torsions:
REMARK  status: ('A' for Active; 'I' for Inactive)
REMARK    1  A    between atoms: C_1  and  C_2
REMARK    2  A    between atoms: N_9  and  C_10
REMARK    3  A    between atoms: C_10  and  C_11
REMARK    4  A    between atoms: C_20  and  O_21
REMARK                            x       y       z     vdW  Elec       q    Type
REMARK                         _______ _______ _______ _____ _____    ______ ____
ROOT
ATOM      1  C   UNL     1       0.504   8.798  21.534  0.00  0.00    +0.000 C 
ATOM      2  C   UNL     1       1.318   8.015  20.565  0.00  0.00    +0.000 A 
ATOM      3  N   UNL     1       1.673   6.764  20.884  0.00  0.00    +0.000 NA
ATOM      4  N   UNL     1       2.441   6.060  19.993  0.00  0.00    +0.000 NA
ATOM      5  C   UNL     1       2.846   6.604  18.819  0.00  0.00    +0.000 A 
ATOM      6  N   UNL     1       3.672   5.892  17.986  0.00  0.00    +0.000 N 
ATOM      7  C   UNL     1       4.177   6.461  16.740  0.00  0.00    +0.000 C 
ATOM      8  C   UNL     1       5.694   6.177  16.585  0.00  0.00    +0.000 C 
ATOM      9  N   UNL     1       6.112   4.770  16.818  0.00  0.00    +0.000 NA
ATOM     10  C   UNL     1       5.587   4.358  18.143  0.00  0.00    +0.000 C 
ATOM     11  C   UNL     1       4.062   4.524  18.317  0.00  0.00    +0.000 C 
ATOM     12  N   UNL     1       2.483   7.847  18.465  0.00  0.00    +0.000 NA
ATOM     13  C   UNL     1       1.728   8.511  19.351  0.00  0.00    +0.000 A 
ENDROOT
BRANCH  13  14
ATOM     14  O   UNL     1       1.395   9.764  18.942  0.00  0.00    +0.000 OA
ATOM     15  H   UNL     1       2.089   9.919  18.275  0.00  0.00    +0.000 HD
ENDBRANCH  13  14
BRANCH   9  16
ATOM     16  C   UNL     1       5.638   3.912  15.717  0.00  0.00    +0.000 C 
BRANCH  16  17
ATOM     17  C   UNL     1       6.317   4.150  14.386  0.00  0.00    +0.000 A 
ATOM     18  C   UNL     1       5.853   3.501  13.230  0.00  0.00    +0.000 A 
ATOM     19  C   UNL     1       6.445   3.745  11.991  0.00  0.00    +0.000 A 
ATOM     20  C   UNL     1       7.505   4.643  11.890  0.00  0.00    +0.000 A 
ATOM     21  C   UNL     1       7.981   5.287  13.030  0.00  0.00    +0.000 A 
ATOM     22  C   UNL     1       7.392   5.042  14.272  0.00  0.00    +0.000 A 
ENDBRANCH  16  17
ENDBRANCH   9  16
TORSDOF 3
ENDMDL
MODEL 7
REMARK VINA RESULT:      -6.6      4.460      8.156
REMARK  Name = 
REMARK  4 active torsions:
REMARK  status: ('A' for Active; 'I' for Inactive)
REMARK    1  A    between atoms: C_1  and  C_2
REMARK    2  A    between atoms: N_9  and  C_10
REMARK    3  A    between atoms: C_10  and  C_11
REMARK    4  A    between atoms: C_20  and  O_21
REMARK                            x       y       z     vdW  Elec       q    Type
REMARK                         _______ _______ _______ _____ _____    ______ ____
ROOT
ATOM      1  C   UNL     1       7.531   3.953  11.135  0.00  0.00    +0.000 C 
ATOM      2  C   UNL     1       7.036   4.207  12.515  0.00  0.00    +0.000 A 
ATOM      3  N   UNL     1       5.951   3.549  12.942  0.00  0.00    +0.000 NA
ATOM      4  N   UNL     1       5.491   3.806  14.208  0.00  0.00    +0.000 NA
ATOM      5  C   UNL     1       6.102   4.707  15.015  0.00  0.00    +0.000 A 
ATOM      6  N   UNL     1       5.570   4.988  16.249  0.00  0.00    +0.000 N 
ATOM      7  C   UNL     1       6.163   5.992  17.127  0.00  0.00    +0.000 C 
ATOM      8  C   UNL     1       5.065   6.909  17.730  0.00  0.00    +0.000 C 
ATOM      9  N   UNL     1       3.895   6.207  18.319  0.00  0.00    +0.000 NA
ATOM     10  C   UNL     1       3.363   5.278  17.292  0.00  0.00    +0.000 C 
ATOM     11  C   UNL     1       4.392   4.273  16.731  0.00  0.00    +0.000 C 
ATOM     12  N   UNL     1       7.205   5.362  14.621  0.00  0.00    +0.000 NA
ATOM     13  C   UNL     1       7.637   5.087  13.382  0.00  0.00    +0.000 A 
ENDROOT
BRANCH  13  14
ATOM     14  O   UNL     1       8.753   5.782  13.035  0.00  0.00    +0.000 OA
ATOM     15  H   UNL     1       8.809   5.558  12.089  0.00  0.00    +0.000 HD
ENDBRANCH  13  14
BRANCH   9  16
ATOM     16  C   UNL     1       4.289   5.526  19.566  0.00  0.00    +0.000 C 
BRANCH  16  17
ATOM     17  C   UNL     1       3.259   4.564  20.119  0.00  0.00    +0.000 A 
ATOM     18  C   UNL     1       1.935   4.986  20.321  0.00  0.00    +0.000 A 
ATOM     19  C   UNL     1       0.968   4.097  20.791  0.00  0.00    +0.000 A 
ATOM     20  C   UNL     1       1.312   2.774  21.062  0.00  0.00    +0.000 A 
ATOM     21  C   UNL     1       2.624   2.344  20.873  0.00  0.00    +0.000 A 
ATOM     22  C   UNL     1       3.594   3.233  20.405  0.00  0.00    +0.000 A 
ENDBRANCH  16  17
ENDBRANCH   9  16
TORSDOF 3
ENDMDL
MODEL 8
REMARK VINA RESULT:      -6.5      4.467      8.143
REMARK  Name = 
REMARK  4 active torsions:
REMARK  status: ('A' for Active; 'I' for Inactive)
REMARK    1  A    between atoms: C_1  and  C_2
REMARK    2  A    between atoms: N_9  and  C_10
REMARK    3  A    between atoms: C_10  and  C_11
REMARK    4  A    between atoms: C_20  and  O_21
REMARK                            x       y       z     vdW  Elec       q    Type
REMARK                         _______ _______ _______ _____ _____    ______ ____
ROOT
ATOM      1  C   UNL     1       7.554   4.065  11.120  0.00  0.00    +0.000 C 
ATOM      2  C   UNL     1       7.051   4.294  12.502  0.00  0.00    +0.000 A 
ATOM      3  N   UNL     1       5.956   3.638  12.906  0.00  0.00    +0.000 NA
ATOM      4  N   UNL     1       5.489   3.872  14.174  0.00  0.00    +0.000 NA
ATOM      5  C   UNL     1       6.103   4.750  15.005  0.00  0.00    +0.000 A 
ATOM      6  N   UNL     1       5.564   5.010  16.241  0.00  0.00    +0.000 N 
ATOM      7  C   UNL     1       6.161   5.988  17.145  0.00  0.00    +0.000 C 
ATOM      8  C   UNL     1       5.068   6.903  17.759  0.00  0.00    +0.000 C 
ATOM      9  N   UNL     1       3.886   6.201  18.325  0.00  0.00    +0.000 NA
ATOM     10  C   UNL     1       3.353   5.299  17.273  0.00  0.00    +0.000 C 
ATOM     11  C   UNL     1       4.375   4.296  16.698  0.00  0.00    +0.000 C 
ATOM     12  N   UNL     1       7.215   5.402  14.633  0.00  0.00    +0.000 NA
ATOM     13  C   UNL     1       7.654   5.149  13.392  0.00  0.00    +0.000 A 
ENDROOT
BRANCH  13  14
ATOM     14  O   UNL     1       8.780   5.840  13.069  0.00  0.00    +0.000 OA
ATOM     15  H   UNL     1       8.785   5.719  12.102  0.00  0.00    +0.000 HD
ENDBRANCH  13  14
BRANCH   9  16
ATOM     16  C   UNL     1       4.263   5.488  19.559  0.00  0.00    +0.000 C 
BRANCH  16  17
ATOM     17  C   UNL     1       3.232   4.504  20.067  0.00  0.00    +0.000 A 
ATOM     18  C   UNL     1       3.573   3.154  20.247  0.00  0.00    +0.000 A 
ATOM     19  C   UNL     1       2.643   2.246  20.754  0.00  0.00    +0.000 A 
ATOM     20  C   UNL     1       1.362   2.678  21.092  0.00  0.00    +0.000 A 
ATOM     21  C   UNL     1       1.008   4.013  20.911  0.00  0.00    +0.000 A 
ATOM     22  C   UNL     1       1.937   4.923  20.401  0.00  0.00    +0.000 A 
ENDBRANCH  16  17
ENDBRANCH   9  16
TORSDOF 3
ENDMDL
MODEL 9
REMARK VINA RESULT:      -6.5      0.919      1.269
REMARK  Name = 
REMARK  4 active torsions:
REMARK  status: ('A' for Active; 'I' for Inactive)
REMARK    1  A    between atoms: C_1  and  C_2
REMARK    2  A    between atoms: N_9  and  C_10
REMARK    3  A    between atoms: C_10  and  C_11
REMARK    4  A    between atoms: C_20  and  O_21
REMARK                            x       y       z     vdW  Elec       q    Type
REMARK                         _______ _______ _______ _____ _____    ______ ____
ROOT
ATOM      1  C   UNL     1      -1.021  11.765  22.128  0.00  0.00    +0.000 C 
ATOM      2  C   UNL     1      -0.197  10.647  21.595  0.00  0.00    +0.000 A 
ATOM      3  N   UNL     1       0.326  10.761  20.368  0.00  0.00    +0.000 NA
ATOM      4  N   UNL     1       1.067   9.716  19.877  0.00  0.00    +0.000 NA
ATOM      5  C   UNL     1       1.266   8.587  20.600  0.00  0.00    +0.000 A 
ATOM      6  N   UNL     1       1.953   7.535  20.047  0.00  0.00    +0.000 N 
ATOM      7  C   UNL     1       2.141   6.280  20.769  0.00  0.00    +0.000 C 
ATOM      8  C   UNL     1       1.850   5.069  19.844  0.00  0.00    +0.000 C 
ATOM      9  N   UNL     1       2.509   5.104  18.512  0.00  0.00    +0.000 NA
ATOM     10  C   UNL     1       2.172   6.402  17.877  0.00  0.00    +0.000 C 
ATOM     11  C   UNL     1       2.536   7.648  18.713  0.00  0.00    +0.000 C 
ATOM     12  N   UNL     1       0.772   8.457  21.841  0.00  0.00    +0.000 NA
ATOM     13  C   UNL     1       0.058   9.495  22.299  0.00  0.00    +0.000 A 
ENDROOT
BRANCH  13  14
ATOM     14  O   UNL     1      -0.419   9.307  23.558  0.00  0.00    +0.000 OA
ATOM     15  H   UNL     1       0.186   9.882  24.061  0.00  0.00    +0.000 HD
ENDBRANCH  13  14
BRANCH   9  16
ATOM     16  C   UNL     1       3.961   4.894  18.661  0.00  0.00    +0.000 C 
BRANCH  16  17
ATOM     17  C   UNL     1       4.735   4.846  17.361  0.00  0.00    +0.000 A 
ATOM     18  C   UNL     1       5.341   6.007  16.855  0.00  0.00    +0.000 A 
ATOM     19  C   UNL     1       6.091   5.965  15.680  0.00  0.00    +0.000 A 
ATOM     20  C   UNL     1       6.248   4.761  14.997  0.00  0.00    +0.000 A 
ATOM     21  C   UNL     1       5.646   3.602  15.483  0.00  0.00    +0.000 A 
ATOM     22  C   UNL     1       4.891   3.643  16.658  0.00  0.00    +0.000 A 
ENDBRANCH  16  17
ENDBRANCH   9  16
TORSDOF 3
ENDMDL
