MODEL 1
REMARK VINA RESULT:      -7.3      0.000      0.000
REMARK  Name = 
REMARK  7 active torsions:
REMARK  status: ('A' for Active; 'I' for Inactive)
REMARK    1  A    between atoms: C_1  and  C_2
REMARK    2  A    between atoms: C_15  and  N_16
REMARK    3  A    between atoms: C_17  and  C_19
REMARK    4  A    between atoms: C_19  and  C_20
REMARK    5  A    between atoms: C_19  and  C_21
REMARK    6  A    between atoms: C_19  and  C_22
REMARK    7  A    between atoms: N_24  and  C_25
REMARK                            x       y       z     vdW  Elec       q    Type
REMARK                         _______ _______ _______ _____ _____    ______ ____
ROOT
ATOM      1  C   UNL     1      -2.757  10.722  15.757  0.00  0.00    +0.000 C 
ATOM      2  C   UNL     1      -2.377  11.057  17.161  0.00  0.00    +0.000 A 
ATOM      3  N   UNL     1      -2.943  12.029  17.941  0.00  0.00    +0.000 N 
ATOM      4  C   UNL     1      -2.273  12.116  19.162  0.00  0.00    +0.000 A 
ATOM      5  C   UNL     1      -2.390  13.000  20.231  0.00  0.00    +0.000 A 
ATOM      6  C   UNL     1      -1.465  12.820  21.266  0.00  0.00    +0.000 A 
ATOM      7  C   UNL     1      -0.470  11.817  21.268  0.00  0.00    +0.000 A 
ATOM      8  C   UNL     1      -0.362  10.908  20.203  0.00  0.00    +0.000 A 
ATOM      9  C   UNL     1      -1.322  11.124  19.167  0.00  0.00    +0.000 A 
ATOM     10  C   UNL     1      -1.385  10.497  17.933  0.00  0.00    +0.000 A 
ATOM     11  C   UNL     1      -0.424   9.462  17.606  0.00  0.00    +0.000 C 
ATOM     12  C   UNL     1       0.909   9.758  18.335  0.00  0.00    +0.000 C 
ATOM     13  C   UNL     1       0.823   9.933  19.939  0.00  0.00    +0.000 C 
ATOM     14  C   UNL     1       1.065   8.526  20.791  0.00  0.00    +0.000 C 
ATOM     15  C   UNL     1       2.029   7.567  19.934  0.00  0.00    +0.000 C 
ATOM     16  C   UNL     1       1.385   7.496  18.577  0.00  0.00    +0.000 C 
ATOM     17  N   UNL     1       1.740   8.680  17.831  0.00  0.00    +0.000 NA
ATOM     18  C   UNL     1       3.147   9.013  17.697  0.00  0.00    +0.000 C 
ATOM     19  H   UNL     1      -3.695  12.643  17.652  0.00  0.00    +0.000 HD
ENDROOT
BRANCH  15  20
ATOM     20  N   UNL     1       2.881   6.338  20.043  0.00  0.00    +0.000 N 
ATOM     21  C   UNL     1       2.371   5.032  20.008  0.00  0.00    +0.000 C 
ATOM     22  O   UNL     1       1.502   4.687  20.806  0.00  0.00    +0.000 OA
ATOM     23  H   UNL     1       3.587   6.405  19.320  0.00  0.00    +0.000 HD
BRANCH  21  24
ATOM     24  C   UNL     1       2.851   4.047  18.812  0.00  0.00    +0.000 C 
ATOM     25  C   UNL     1       3.473   2.716  19.264  0.00  0.00    +0.000 C 
ATOM     26  C   UNL     1       1.623   3.703  17.937  0.00  0.00    +0.000 C 
ATOM     27  C   UNL     1       3.874   4.697  17.849  0.00  0.00    +0.000 C 
ENDBRANCH  21  24
ENDBRANCH  15  20
TORSDOF 2
ENDMDL
MODEL 2
REMARK VINA RESULT:      -7.3      2.590      7.776
REMARK  Name = 
REMARK  7 active torsions:
REMARK  status: ('A' for Active; 'I' for Inactive)
REMARK    1  A    between atoms: C_1  and  C_2
REMARK    2  A    between atoms: C_15  and  N_16
REMARK    3  A    between atoms: C_17  and  C_19
REMARK    4  A    between atoms: C_19  and  C_20
REMARK    5  A    between atoms: C_19  and  C_21
REMARK    6  A    between atoms: C_19  and  C_22
REMARK    7  A    between atoms: N_24  and  C_25
REMARK                            x       y       z     vdW  Elec       q    Type
REMARK                         _______ _______ _______ _____ _____    ______ ____
ROOT
ATOM      1  C   UNL     1       1.269   2.902  21.141  0.00  0.00    +0.000 C 
ATOM      2  C   UNL     1       1.927   3.746  20.100  0.00  0.00    +0.000 A 
ATOM      3  N   UNL     1       2.799   3.309  19.139  0.00  0.00    +0.000 N 
ATOM      4  C   UNL     1       3.280   4.390  18.400  0.00  0.00    +0.000 A 
ATOM      5  C   UNL     1       4.251   4.484  17.407  0.00  0.00    +0.000 A 
ATOM      6  C   UNL     1       4.528   5.781  16.956  0.00  0.00    +0.000 A 
ATOM      7  C   UNL     1       3.884   6.939  17.443  0.00  0.00    +0.000 A 
ATOM      8  C   UNL     1       2.887   6.848  18.429  0.00  0.00    +0.000 A 
ATOM      9  C   UNL     1       2.634   5.511  18.864  0.00  0.00    +0.000 A 
ATOM     10  C   UNL     1       1.824   5.105  19.912  0.00  0.00    +0.000 A 
ATOM     11  C   UNL     1       1.085   6.095  20.671  0.00  0.00    +0.000 C 
ATOM     12  C   UNL     1       1.881   7.422  20.684  0.00  0.00    +0.000 C 
ATOM     13  C   UNL     1       2.282   8.030  19.242  0.00  0.00    +0.000 C 
ATOM     14  C   UNL     1       1.172   9.101  18.621  0.00  0.00    +0.000 C 
ATOM     15  C   UNL     1       0.418   9.824  19.843  0.00  0.00    +0.000 C 
ATOM     16  C   UNL     1      -0.063   8.695  20.714  0.00  0.00    +0.000 C 
ATOM     17  N   UNL     1       1.034   8.239  21.534  0.00  0.00    +0.000 NA
ATOM     18  C   UNL     1       1.747   9.218  22.336  0.00  0.00    +0.000 C 
ATOM     19  H   UNL     1       3.104   2.350  19.022  0.00  0.00    +0.000 HD
ENDROOT
BRANCH  15  20
ATOM     20  N   UNL     1      -0.464  10.991  20.169  0.00  0.00    +0.000 N 
ATOM     21  C   UNL     1       0.017  12.227  20.628  0.00  0.00    +0.000 C 
ATOM     22  O   UNL     1       0.722  12.280  21.634  0.00  0.00    +0.000 OA
ATOM     23  H   UNL     1      -1.027  11.173  19.348  0.00  0.00    +0.000 HD
BRANCH  21  24
ATOM     24  C   UNL     1      -0.259  13.545  19.726  0.00  0.00    +0.000 C 
ATOM     25  C   UNL     1      -0.574  13.277  18.245  0.00  0.00    +0.000 C 
ATOM     26  C   UNL     1      -1.468  14.303  20.321  0.00  0.00    +0.000 C 
ATOM     27  C   UNL     1       0.911  14.560  19.740  0.00  0.00    +0.000 C 
ENDBRANCH  21  24
ENDBRANCH  15  20
TORSDOF 2
ENDMDL
MODEL 3
REMARK VINA RESULT:      -7.1      2.352      7.515
REMARK  Name = 
REMARK  7 active torsions:
REMARK  status: ('A' for Active; 'I' for Inactive)
REMARK    1  A    between atoms: C_1  and  C_2
REMARK    2  A    between atoms: C_15  and  N_16
REMARK    3  A    between atoms: C_17  and  C_19
REMARK    4  A    between atoms: C_19  and  C_20
REMARK    5  A    between atoms: C_19  and  C_21
REMARK    6  A    between atoms: C_19  and  C_22
REMARK    7  A    between atoms: N_24  and  C_25
REMARK                            x       y       z     vdW  Elec       q    Type
REMARK                         _______ _______ _______ _____ _____    ______ ____
ROOT
ATOM      1  C   UNL     1       5.209   6.470  15.905  0.00  0.00    +0.000 C 
ATOM      2  C   UNL     1       4.533   5.987  17.145  0.00  0.00    +0.000 A 
ATOM      3  N   UNL     1       4.674   4.749  17.713  0.00  0.00    +0.000 N 
ATOM      4  C   UNL     1       3.822   4.624  18.810  0.00  0.00    +0.000 A 
ATOM      5  C   UNL     1       3.517   3.547  19.637  0.00  0.00    +0.000 A 
ATOM      6  C   UNL     1       2.526   3.786  20.598  0.00  0.00    +0.000 A 
ATOM      7  C   UNL     1       1.864   5.023  20.755  0.00  0.00    +0.000 A 
ATOM      8  C   UNL     1       2.184   6.121  19.938  0.00  0.00    +0.000 A 
ATOM      9  C   UNL     1       3.196   5.837  18.971  0.00  0.00    +0.000 A 
ATOM     10  C   UNL     1       3.627   6.653  17.938  0.00  0.00    +0.000 A 
ATOM     11  C   UNL     1       3.057   7.978  17.788  0.00  0.00    +0.000 C 
ATOM     12  C   UNL     1       1.597   7.964  18.300  0.00  0.00    +0.000 C 
ATOM     13  C   UNL     1       1.375   7.445  19.814  0.00  0.00    +0.000 C 
ATOM     14  C   UNL     1       1.403   8.651  20.958  0.00  0.00    +0.000 C 
ATOM     15  C   UNL     1       0.893  10.016  20.277  0.00  0.00    +0.000 C 
ATOM     16  C   UNL     1       1.738  10.162  19.041  0.00  0.00    +0.000 C 
ATOM     17  N   UNL     1       1.190   9.325  18.001  0.00  0.00    +0.000 NA
ATOM     18  C   UNL     1      -0.214   9.476  17.664  0.00  0.00    +0.000 C 
ATOM     19  H   UNL     1       5.261   4.006  17.352  0.00  0.00    +0.000 HD
ENDROOT
BRANCH  15  20
ATOM     20  N   UNL     1       0.412  11.397  20.604  0.00  0.00    +0.000 N 
ATOM     21  C   UNL     1      -0.943  11.753  20.674  0.00  0.00    +0.000 C 
ATOM     22  O   UNL     1      -1.684  11.555  19.713  0.00  0.00    +0.000 OA
ATOM     23  H   UNL     1       0.837  11.656  21.486  0.00  0.00    +0.000 HD
BRANCH  21  24
ATOM     24  C   UNL     1      -1.529  12.292  22.087  0.00  0.00    +0.000 C 
ATOM     25  C   UNL     1      -3.015  12.685  22.078  0.00  0.00    +0.000 C 
ATOM     26  C   UNL     1      -1.357  11.179  23.146  0.00  0.00    +0.000 C 
ATOM     27  C   UNL     1      -0.763  13.515  22.647  0.00  0.00    +0.000 C 
ENDBRANCH  21  24
ENDBRANCH  15  20
TORSDOF 2
ENDMDL
MODEL 4
REMARK VINA RESULT:      -7.1      0.511      1.042
REMARK  Name = 
REMARK  7 active torsions:
REMARK  status: ('A' for Active; 'I' for Inactive)
REMARK    1  A    between atoms: C_1  and  C_2
REMARK    2  A    between atoms: C_15  and  N_16
REMARK    3  A    between atoms: C_17  and  C_19
REMARK    4  A    between atoms: C_19  and  C_20
REMARK    5  A    between atoms: C_19  and  C_21
REMARK    6  A    between atoms: C_19  and  C_22
REMARK    7  A    between atoms: N_24  and  C_25
REMARK                            x       y       z     vdW  Elec       q    Type
REMARK                         _______ _______ _______ _____ _____    ______ ____
ROOT
ATOM      1  C   UNL     1      -3.016  11.188  16.281  0.00  0.00    +0.000 C 
ATOM      2  C   UNL     1      -2.597  11.355  17.704  0.00  0.00    +0.000 A 
ATOM      3  N   UNL     1      -3.165  12.200  18.620  0.00  0.00    +0.000 N 
ATOM      4  C   UNL     1      -2.456  12.154  19.820  0.00  0.00    +0.000 A 
ATOM      5  C   UNL     1      -2.562  12.890  20.996  0.00  0.00    +0.000 A 
ATOM      6  C   UNL     1      -1.595  12.613  21.971  0.00  0.00    +0.000 A 
ATOM      7  C   UNL     1      -0.571  11.654  21.813  0.00  0.00    +0.000 A 
ATOM      8  C   UNL     1      -0.472  10.892  20.637  0.00  0.00    +0.000 A 
ATOM      9  C   UNL     1      -1.474  11.204  19.668  0.00  0.00    +0.000 A 
ATOM     10  C   UNL     1      -1.562  10.737  18.367  0.00  0.00    +0.000 A 
ATOM     11  C   UNL     1      -0.581   9.787  17.880  0.00  0.00    +0.000 C 
ATOM     12  C   UNL     1       0.767  10.034  18.599  0.00  0.00    +0.000 C 
ATOM     13  C   UNL     1       0.733  10.001  20.214  0.00  0.00    +0.000 C 
ATOM     14  C   UNL     1       1.049   8.507  20.871  0.00  0.00    +0.000 C 
ATOM     15  C   UNL     1       2.012   7.699  19.868  0.00  0.00    +0.000 C 
ATOM     16  C   UNL     1       1.322   7.779  18.534  0.00  0.00    +0.000 C 
ATOM     17  N   UNL     1       1.613   9.059  17.935  0.00  0.00    +0.000 NA
ATOM     18  C   UNL     1       3.004   9.457  17.801  0.00  0.00    +0.000 C 
ATOM     19  H   UNL     1      -3.946  12.818  18.435  0.00  0.00    +0.000 HD
ENDROOT
BRANCH  15  20
ATOM     20  N   UNL     1       2.905   6.498  19.792  0.00  0.00    +0.000 N 
ATOM     21  C   UNL     1       2.458   5.182  19.982  0.00  0.00    +0.000 C 
ATOM     22  O   UNL     1       1.872   4.872  21.018  0.00  0.00    +0.000 OA
ATOM     23  H   UNL     1       3.367   6.532  18.892  0.00  0.00    +0.000 HD
BRANCH  21  24
ATOM     24  C   UNL     1       2.606   4.131  18.756  0.00  0.00    +0.000 C 
ATOM     25  C   UNL     1       1.459   4.147  17.732  0.00  0.00    +0.000 C 
ATOM     26  C   UNL     1       3.908   4.453  17.988  0.00  0.00    +0.000 C 
ATOM     27  C   UNL     1       2.752   2.661  19.216  0.00  0.00    +0.000 C 
ENDBRANCH  21  24
ENDBRANCH  15  20
TORSDOF 2
ENDMDL
MODEL 5
REMARK VINA RESULT:      -7.0      2.529      7.626
REMARK  Name = 
REMARK  7 active torsions:
REMARK  status: ('A' for Active; 'I' for Inactive)
REMARK    1  A    between atoms: C_1  and  C_2
REMARK    2  A    between atoms: C_15  and  N_16
REMARK    3  A    between atoms: C_17  and  C_19
REMARK    4  A    between atoms: C_19  and  C_20
REMARK    5  A    between atoms: C_19  and  C_21
REMARK    6  A    between atoms: C_19  and  C_22
REMARK    7  A    between atoms: N_24  and  C_25
REMARK                            x       y       z     vdW  Elec       q    Type
REMARK                         _______ _______ _______ _____ _____    ______ ____
ROOT
ATOM      1  C   UNL     1       2.143   3.775  21.571  0.00  0.00    +0.000 C 
ATOM      2  C   UNL     1       2.619   4.567  20.398  0.00  0.00    +0.000 A 
ATOM      3  N   UNL     1       3.598   4.197  19.516  0.00  0.00    +0.000 N 
ATOM      4  C   UNL     1       3.836   5.224  18.603  0.00  0.00    +0.000 A 
ATOM      5  C   UNL     1       4.788   5.380  17.600  0.00  0.00    +0.000 A 
ATOM      6  C   UNL     1       4.769   6.613  16.937  0.00  0.00    +0.000 A 
ATOM      7  C   UNL     1       3.857   7.651  17.230  0.00  0.00    +0.000 A 
ATOM      8  C   UNL     1       2.879   7.490  18.225  0.00  0.00    +0.000 A 
ATOM      9  C   UNL     1       2.931   6.222  18.879  0.00  0.00    +0.000 A 
ATOM     10  C   UNL     1       2.207   5.814  19.987  0.00  0.00    +0.000 A 
ATOM     11  C   UNL     1       1.234   6.714  20.576  0.00  0.00    +0.000 C 
ATOM     12  C   UNL     1       1.697   8.174  20.361  0.00  0.00    +0.000 C 
ATOM     13  C   UNL     1       1.990   8.614  18.834  0.00  0.00    +0.000 C 
ATOM     14  C   UNL     1       0.680   9.277  18.054  0.00  0.00    +0.000 C 
ATOM     15  C   UNL     1      -0.259   9.993  19.144  0.00  0.00    +0.000 C 
ATOM     16  C   UNL     1      -0.490   8.941  20.195  0.00  0.00    +0.000 C 
ATOM     17  N   UNL     1       0.657   8.897  21.070  0.00  0.00    +0.000 NA
ATOM     18  C   UNL     1       1.097  10.134  21.692  0.00  0.00    +0.000 C 
ATOM     19  H   UNL     1       4.122   3.330  19.558  0.00  0.00    +0.000 HD
ENDROOT
BRANCH  15  20
ATOM     20  N   UNL     1      -1.399  10.957  19.279  0.00  0.00    +0.000 N 
ATOM     21  C   UNL     1      -2.043  11.558  18.187  0.00  0.00    +0.000 C 
ATOM     22  O   UNL     1      -1.393  12.200  17.364  0.00  0.00    +0.000 OA
ATOM     23  H   UNL     1      -2.110  10.496  19.832  0.00  0.00    +0.000 HD
BRANCH  21  24
ATOM     24  C   UNL     1      -3.622  11.265  17.965  0.00  0.00    +0.000 C 
ATOM     25  C   UNL     1      -4.176  11.648  16.583  0.00  0.00    +0.000 C 
ATOM     26  C   UNL     1      -3.873   9.751  18.155  0.00  0.00    +0.000 C 
ATOM     27  C   UNL     1      -4.532  11.966  19.003  0.00  0.00    +0.000 C 
ENDBRANCH  21  24
ENDBRANCH  15  20
TORSDOF 2
ENDMDL
MODEL 6
REMARK VINA RESULT:      -7.0      2.671      7.507
REMARK  Name = 
REMARK  7 active torsions:
REMARK  status: ('A' for Active; 'I' for Inactive)
REMARK    1  A    between atoms: C_1  and  C_2
REMARK    2  A    between atoms: C_15  and  N_16
REMARK    3  A    between atoms: C_17  and  C_19
REMARK    4  A    between atoms: C_19  and  C_20
REMARK    5  A    between atoms: C_19  and  C_21
REMARK    6  A    between atoms: C_19  and  C_22
REMARK    7  A    between atoms: N_24  and  C_25
REMARK                            x       y       z     vdW  Elec       q    Type
REMARK                         _______ _______ _______ _____ _____    ______ ____
ROOT
ATOM      1  C   UNL     1       5.038   6.661  15.945  0.00  0.00    +0.000 C 
ATOM      2  C   UNL     1       4.386   6.219  17.213  0.00  0.00    +0.000 A 
ATOM      3  N   UNL     1       4.540   5.002  17.819  0.00  0.00    +0.000 N 
ATOM      4  C   UNL     1       3.709   4.913  18.936  0.00  0.00    +0.000 A 
ATOM      5  C   UNL     1       3.422   3.864  19.805  0.00  0.00    +0.000 A 
ATOM      6  C   UNL     1       2.449   4.134  20.775  0.00  0.00    +0.000 A 
ATOM      7  C   UNL     1       1.787   5.375  20.903  0.00  0.00    +0.000 A 
ATOM      8  C   UNL     1       2.090   6.445  20.044  0.00  0.00    +0.000 A 
ATOM      9  C   UNL     1       3.085   6.130  19.068  0.00  0.00    +0.000 A 
ATOM     10  C   UNL     1       3.495   6.912  18.000  0.00  0.00    +0.000 A 
ATOM     11  C   UNL     1       2.920   8.230  17.816  0.00  0.00    +0.000 C 
ATOM     12  C   UNL     1       1.469   8.232  18.356  0.00  0.00    +0.000 C 
ATOM     13  C   UNL     1       1.277   7.764  19.891  0.00  0.00    +0.000 C 
ATOM     14  C   UNL     1       1.324   9.007  20.992  0.00  0.00    +0.000 C 
ATOM     15  C   UNL     1       0.799  10.348  20.276  0.00  0.00    +0.000 C 
ATOM     16  C   UNL     1       1.621  10.453  19.020  0.00  0.00    +0.000 C 
ATOM     17  N   UNL     1       1.055   9.581  18.019  0.00  0.00    +0.000 NA
ATOM     18  C   UNL     1      -0.356   9.720  17.704  0.00  0.00    +0.000 C 
ATOM     19  H   UNL     1       5.121   4.248  17.472  0.00  0.00    +0.000 HD
ENDROOT
BRANCH  15  20
ATOM     20  N   UNL     1       0.322  11.739  20.566  0.00  0.00    +0.000 N 
ATOM     21  C   UNL     1       1.154  12.868  20.545  0.00  0.00    +0.000 C 
ATOM     22  O   UNL     1       2.165  12.903  21.245  0.00  0.00    +0.000 OA
ATOM     23  H   UNL     1      -0.450  11.922  19.937  0.00  0.00    +0.000 HD
BRANCH  21  24
ATOM     24  C   UNL     1       0.829  14.047  19.482  0.00  0.00    +0.000 C 
ATOM     25  C   UNL     1       0.351  15.374  20.094  0.00  0.00    +0.000 C 
ATOM     26  C   UNL     1       2.115  14.353  18.678  0.00  0.00    +0.000 C 
ATOM     27  C   UNL     1      -0.232  13.653  18.426  0.00  0.00    +0.000 C 
ENDBRANCH  21  24
ENDBRANCH  15  20
TORSDOF 2
ENDMDL
MODEL 7
REMARK VINA RESULT:      -6.8      4.244      7.495
REMARK  Name = 
REMARK  7 active torsions:
REMARK  status: ('A' for Active; 'I' for Inactive)
REMARK    1  A    between atoms: C_1  and  C_2
REMARK    2  A    between atoms: C_15  and  N_16
REMARK    3  A    between atoms: C_17  and  C_19
REMARK    4  A    between atoms: C_19  and  C_20
REMARK    5  A    between atoms: C_19  and  C_21
REMARK    6  A    between atoms: C_19  and  C_22
REMARK    7  A    between atoms: N_24  and  C_25
REMARK                            x       y       z     vdW  Elec       q    Type
REMARK                         _______ _______ _______ _____ _____    ______ ____
ROOT
ATOM      1  C   UNL     1       1.458   8.381  20.513  0.00  0.00    +0.000 C 
ATOM      2  C   UNL     1       1.841   6.944  20.389  0.00  0.00    +0.000 A 
ATOM      3  N   UNL     1       1.426   5.923  21.202  0.00  0.00    +0.000 N 
ATOM      4  C   UNL     1       2.057   4.733  20.840  0.00  0.00    +0.000 A 
ATOM      5  C   UNL     1       2.058   3.465  21.413  0.00  0.00    +0.000 A 
ATOM      6  C   UNL     1       2.901   2.528  20.803  0.00  0.00    +0.000 A 
ATOM      7  C   UNL     1       3.706   2.809  19.677  0.00  0.00    +0.000 A 
ATOM      8  C   UNL     1       3.691   4.080  19.080  0.00  0.00    +0.000 A 
ATOM      9  C   UNL     1       2.821   5.007  19.730  0.00  0.00    +0.000 A 
ATOM     10  C   UNL     1       2.692   6.363  19.477  0.00  0.00    +0.000 A 
ATOM     11  C   UNL     1       3.470   6.969  18.414  0.00  0.00    +0.000 C 
ATOM     12  C   UNL     1       4.808   6.205  18.264  0.00  0.00    +0.000 C 
ATOM     13  C   UNL     1       4.698   4.612  18.017  0.00  0.00    +0.000 C 
ATOM     14  C   UNL     1       4.662   4.172  16.415  0.00  0.00    +0.000 C 
ATOM     15  C   UNL     1       5.474   5.268  15.564  0.00  0.00    +0.000 C 
ATOM     16  C   UNL     1       4.875   6.586  15.973  0.00  0.00    +0.000 C 
ATOM     17  N   UNL     1       5.456   6.991  17.230  0.00  0.00    +0.000 NA
ATOM     18  C   UNL     1       6.904   7.049  17.333  0.00  0.00    +0.000 C 
ATOM     19  H   UNL     1       0.802   6.027  21.993  0.00  0.00    +0.000 HD
ENDROOT
BRANCH  15  20
ATOM     20  N   UNL     1       6.096   5.505  14.220  0.00  0.00    +0.000 N 
ATOM     21  C   UNL     1       7.037   4.645  13.635  0.00  0.00    +0.000 C 
ATOM     22  O   UNL     1       8.071   4.361  14.236  0.00  0.00    +0.000 OA
ATOM     23  H   UNL     1       5.337   5.615  13.560  0.00  0.00    +0.000 HD
BRANCH  21  24
ATOM     24  C   UNL     1       6.661   3.933  12.228  0.00  0.00    +0.000 C 
ATOM     25  C   UNL     1       5.174   3.598  12.035  0.00  0.00    +0.000 C 
ATOM     26  C   UNL     1       7.070   4.878  11.074  0.00  0.00    +0.000 C 
ATOM     27  C   UNL     1       7.436   2.616  11.976  0.00  0.00    +0.000 C 
ENDBRANCH  21  24
ENDBRANCH  15  20
TORSDOF 2
ENDMDL
MODEL 8
REMARK VINA RESULT:      -6.7      2.642      7.817
REMARK  Name = 
REMARK  7 active torsions:
REMARK  status: ('A' for Active; 'I' for Inactive)
REMARK    1  A    between atoms: C_1  and  C_2
REMARK    2  A    between atoms: C_15  and  N_16
REMARK    3  A    between atoms: C_17  and  C_19
REMARK    4  A    between atoms: C_19  and  C_20
REMARK    5  A    between atoms: C_19  and  C_21
REMARK    6  A    between atoms: C_19  and  C_22
REMARK    7  A    between atoms: N_24  and  C_25
REMARK                            x       y       z     vdW  Elec       q    Type
REMARK                         _______ _______ _______ _____ _____    ______ ____
ROOT
ATOM      1  C   UNL     1       1.196   2.649  20.107  0.00  0.00    +0.000 C 
ATOM      2  C   UNL     1       2.040   3.492  19.208  0.00  0.00    +0.000 A 
ATOM      3  N   UNL     1       2.979   3.039  18.321  0.00  0.00    +0.000 N 
ATOM      4  C   UNL     1       3.631   4.116  17.720  0.00  0.00    +0.000 A 
ATOM      5  C   UNL     1       4.715   4.183  16.851  0.00  0.00    +0.000 A 
ATOM      6  C   UNL     1       5.150   5.475  16.528  0.00  0.00    +0.000 A 
ATOM      7  C   UNL     1       4.551   6.654  17.023  0.00  0.00    +0.000 A 
ATOM      8  C   UNL     1       3.442   6.592  17.883  0.00  0.00    +0.000 A 
ATOM      9  C   UNL     1       3.030   5.260  18.189  0.00  0.00    +0.000 A 
ATOM     10  C   UNL     1       2.072   4.864  19.109  0.00  0.00    +0.000 A 
ATOM     11  C   UNL     1       1.335   5.868  19.850  0.00  0.00    +0.000 C 
ATOM     12  C   UNL     1       2.231   7.115  20.047  0.00  0.00    +0.000 C 
ATOM     13  C   UNL     1       2.847   7.772  18.706  0.00  0.00    +0.000 C 
ATOM     14  C   UNL     1       1.909   8.975  18.045  0.00  0.00    +0.000 C 
ATOM     15  C   UNL     1       1.081   9.687  19.225  0.00  0.00    +0.000 C 
ATOM     16  C   UNL     1       0.409   8.554  19.953  0.00  0.00    +0.000 C 
ATOM     17  N   UNL     1       1.361   7.951  20.855  0.00  0.00    +0.000 NA
ATOM     18  C   UNL     1       2.054   8.809  21.800  0.00  0.00    +0.000 C 
ATOM     19  H   UNL     1       3.214   2.065  18.170  0.00  0.00    +0.000 HD
ENDROOT
BRANCH  15  20
ATOM     20  N   UNL     1       0.267  10.906  19.534  0.00  0.00    +0.000 N 
ATOM     21  C   UNL     1       0.797  12.071  20.110  0.00  0.00    +0.000 C 
ATOM     22  O   UNL     1       1.399  12.011  21.181  0.00  0.00    +0.000 OA
ATOM     23  H   UNL     1      -0.195  11.178  18.676  0.00  0.00    +0.000 HD
BRANCH  21  24
ATOM     24  C   UNL     1       0.719  13.453  19.267  0.00  0.00    +0.000 C 
ATOM     25  C   UNL     1      -0.580  13.671  18.475  0.00  0.00    +0.000 C 
ATOM     26  C   UNL     1       0.858  14.638  20.251  0.00  0.00    +0.000 C 
ATOM     27  C   UNL     1       1.876  13.624  18.252  0.00  0.00    +0.000 C 
ENDBRANCH  21  24
ENDBRANCH  15  20
TORSDOF 2
ENDMDL
MODEL 9
REMARK VINA RESULT:      -6.7      0.864      1.323
REMARK  Name = 
REMARK  7 active torsions:
REMARK  status: ('A' for Active; 'I' for Inactive)
REMARK    1  A    between atoms: C_1  and  C_2
REMARK    2  A    between atoms: C_15  and  N_16
REMARK    3  A    between atoms: C_17  and  C_19
REMARK    4  A    between atoms: C_19  and  C_20
REMARK    5  A    between atoms: C_19  and  C_21
REMARK    6  A    between atoms: C_19  and  C_22
REMARK    7  A    between atoms: N_24  and  C_25
REMARK                            x       y       z     vdW  Elec       q    Type
REMARK                         _______ _______ _______ _____ _____    ______ ____
ROOT
ATOM      1  C   UNL     1      -2.971  10.909  15.913  0.00  0.00    +0.000 C 
ATOM      2  C   UNL     1      -2.644  11.169  17.347  0.00  0.00    +0.000 A 
ATOM      3  N   UNL     1      -3.298  12.035  18.181  0.00  0.00    +0.000 N 
ATOM      4  C   UNL     1      -2.659  12.083  19.420  0.00  0.00    +0.000 A 
ATOM      5  C   UNL     1      -2.865  12.874  20.546  0.00  0.00    +0.000 A 
ATOM      6  C   UNL     1      -1.946  12.691  21.588  0.00  0.00    +0.000 A 
ATOM      7  C   UNL     1      -0.876  11.771  21.541  0.00  0.00    +0.000 A 
ATOM      8  C   UNL     1      -0.678  10.953  20.416  0.00  0.00    +0.000 A 
ATOM      9  C   UNL     1      -1.633  11.170  19.376  0.00  0.00    +0.000 A 
ATOM     10  C   UNL     1      -1.625  10.633  18.100  0.00  0.00    +0.000 A 
ATOM     11  C   UNL     1      -0.579   9.702  17.721  0.00  0.00    +0.000 C 
ATOM     12  C   UNL     1       0.713  10.045  18.501  0.00  0.00    +0.000 C 
ATOM     13  C   UNL     1       0.585  10.095  20.111  0.00  0.00    +0.000 C 
ATOM     14  C   UNL     1       0.923   8.653  20.865  0.00  0.00    +0.000 C 
ATOM     15  C   UNL     1       1.975   7.836  19.964  0.00  0.00    +0.000 C 
ATOM     16  C   UNL     1       1.362   7.816  18.590  0.00  0.00    +0.000 C 
ATOM     17  N   UNL     1       1.635   9.075  17.940  0.00  0.00    +0.000 NA
ATOM     18  C   UNL     1       3.014   9.525  17.863  0.00  0.00    +0.000 C 
ATOM     19  H   UNL     1      -4.092  12.608  17.919  0.00  0.00    +0.000 HD
ENDROOT
BRANCH  15  20
ATOM     20  N   UNL     1       2.919   6.673  20.004  0.00  0.00    +0.000 N 
ATOM     21  C   UNL     1       2.769   5.522  19.216  0.00  0.00    +0.000 C 
ATOM     22  O   UNL     1       1.725   4.874  19.262  0.00  0.00    +0.000 OA
ATOM     23  H   UNL     1       3.845   7.040  19.828  0.00  0.00    +0.000 HD
BRANCH  21  24
ATOM     24  C   UNL     1       3.938   5.155  18.154  0.00  0.00    +0.000 C 
ATOM     25  C   UNL     1       4.217   6.224  17.086  0.00  0.00    +0.000 C 
ATOM     26  C   UNL     1       5.256   4.932  18.932  0.00  0.00    +0.000 C 
ATOM     27  C   UNL     1       3.684   3.835  17.387  0.00  0.00    +0.000 C 
ENDBRANCH  21  24
ENDBRANCH  15  20
TORSDOF 2
ENDMDL
