MODEL 1
REMARK VINA RESULT:      -7.7      0.000      0.000
REMARK  Name = 
REMARK  7 active torsions:
REMARK  status: ('A' for Active; 'I' for Inactive)
REMARK    1  A    between atoms: C_1  and  N_2
REMARK    2  A    between atoms: N_2  and  C_20
REMARK    3  A    between atoms: C_3  and  C_5
REMARK    4  A    between atoms: C_5  and  O_6
REMARK    5  A    between atoms: O_6  and  C_7
REMARK    6  A    between atoms: C_7  and  C_9
REMARK    7  A    between atoms: C_12  and  O_13
REMARK                            x       y       z     vdW  Elec       q    Type
REMARK                         _______ _______ _______ _____ _____    ______ ____
ROOT
ATOM      1  C   UNL     1       3.635   6.686  18.354  0.00  0.00    +0.000 C 
ATOM      2  O   UNL     1       3.144   7.702  17.890  0.00  0.00    +0.000 OA
ENDROOT
BRANCH   1   3
ATOM      3  C   UNL     1       2.885   5.591  19.037  0.00  0.00    +0.000 A 
ATOM      4  N   UNL     1       2.086   6.016  20.060  0.00  0.00    +0.000 NA
ATOM      5  N   UNL     1       1.374   5.117  20.782  0.00  0.00    +0.000 NA
ATOM      6  C   UNL     1       1.470   3.815  20.466  0.00  0.00    +0.000 A 
ATOM      7  C   UNL     1       2.259   3.311  19.434  0.00  0.00    +0.000 A 
ATOM      8  C   UNL     1       2.322   1.933  19.130  0.00  0.00    +0.000 A 
ATOM      9  C   UNL     1       3.114   1.462  18.084  0.00  0.00    +0.000 A 
ATOM     10  C   UNL     1       3.851   2.361  17.324  0.00  0.00    +0.000 A 
ATOM     11  C   UNL     1       3.801   3.727  17.610  0.00  0.00    +0.000 A 
ATOM     12  C   UNL     1       3.010   4.233  18.672  0.00  0.00    +0.000 A 
BRANCH   6  13
ATOM     13  O   UNL     1       0.717   2.998  21.255  0.00  0.00    +0.000 OA
ATOM     14  H   UNL     1      -0.123   2.976  20.761  0.00  0.00    +0.000 HD
ENDBRANCH   6  13
ENDBRANCH   1   3
BRANCH   1  15
ATOM     15  O   UNL     1       4.950   6.349  18.325  0.00  0.00    +0.000 OA
BRANCH  15  16
ATOM     16  C   UNL     1       5.784   7.081  17.419  0.00  0.00    +0.000 C 
BRANCH  16  19
ATOM     17  C   UNL     1       7.299   4.660  16.771  0.00  0.00    +0.000 C 
ATOM     18  N   UNL     1       6.528   5.353  15.731  0.00  0.00    +0.000 N 
ATOM     19  C   UNL     1       5.749   6.500  15.996  0.00  0.00    +0.000 C 
ATOM     20  O   UNL     1       5.025   7.055  15.162  0.00  0.00    +0.000 OA
BRANCH  18  21
ATOM     21  C   UNL     1       6.603   4.782  14.398  0.00  0.00    +0.000 A 
ATOM     22  C   UNL     1       7.588   5.166  13.474  0.00  0.00    +0.000 A 
ATOM     23  C   UNL     1       7.640   4.624  12.184  0.00  0.00    +0.000 A 
ATOM     24  C   UNL     1       6.708   3.674  11.785  0.00  0.00    +0.000 A 
ATOM     25  C   UNL     1       5.735   3.256  12.683  0.00  0.00    +0.000 A 
ATOM     26  C   UNL     1       5.690   3.796  13.976  0.00  0.00    +0.000 A 
ENDBRANCH  18  21
ENDBRANCH  16  19
ENDBRANCH  15  16
ENDBRANCH   1  15
TORSDOF 6
ENDMDL
MODEL 2
REMARK VINA RESULT:      -7.6      1.559      2.365
REMARK  Name = 
REMARK  7 active torsions:
REMARK  status: ('A' for Active; 'I' for Inactive)
REMARK    1  A    between atoms: C_1  and  N_2
REMARK    2  A    between atoms: N_2  and  C_20
REMARK    3  A    between atoms: C_3  and  C_5
REMARK    4  A    between atoms: C_5  and  O_6
REMARK    5  A    between atoms: O_6  and  C_7
REMARK    6  A    between atoms: C_7  and  C_9
REMARK    7  A    between atoms: C_12  and  O_13
REMARK                            x       y       z     vdW  Elec       q    Type
REMARK                         _______ _______ _______ _____ _____    ______ ____
ROOT
ATOM      1  C   UNL     1       3.738   6.334  18.250  0.00  0.00    +0.000 C 
ATOM      2  O   UNL     1       3.155   7.396  18.103  0.00  0.00    +0.000 OA
ENDROOT
BRANCH   1   3
ATOM      3  C   UNL     1       3.101   4.984  18.249  0.00  0.00    +0.000 A 
ATOM      4  N   UNL     1       2.991   4.420  17.011  0.00  0.00    +0.000 NA
ATOM      5  N   UNL     1       2.404   3.207  16.868  0.00  0.00    +0.000 NA
ATOM      6  C   UNL     1       1.941   2.582  17.963  0.00  0.00    +0.000 A 
ATOM      7  C   UNL     1       2.024   3.094  19.256  0.00  0.00    +0.000 A 
ATOM      8  C   UNL     1       1.533   2.396  20.382  0.00  0.00    +0.000 A 
ATOM      9  C   UNL     1       1.640   2.931  21.664  0.00  0.00    +0.000 A 
ATOM     10  C   UNL     1       2.242   4.170  21.842  0.00  0.00    +0.000 A 
ATOM     11  C   UNL     1       2.733   4.875  20.740  0.00  0.00    +0.000 A 
ATOM     12  C   UNL     1       2.632   4.357  19.424  0.00  0.00    +0.000 A 
BRANCH   6  13
ATOM     13  O   UNL     1       1.367   1.373  17.708  0.00  0.00    +0.000 OA
ATOM     14  H   UNL     1       0.640   1.365  18.357  0.00  0.00    +0.000 HD
ENDBRANCH   6  13
ENDBRANCH   1   3
BRANCH   1  15
ATOM     15  O   UNL     1       5.074   6.175  18.425  0.00  0.00    +0.000 OA
BRANCH  15  16
ATOM     16  C   UNL     1       5.933   6.900  17.537  0.00  0.00    +0.000 C 
BRANCH  16  19
ATOM     17  C   UNL     1       7.356   4.465  16.747  0.00  0.00    +0.000 C 
ATOM     18  N   UNL     1       6.582   5.226  15.758  0.00  0.00    +0.000 N 
ATOM     19  C   UNL     1       5.846   6.383  16.091  0.00  0.00    +0.000 C 
ATOM     20  O   UNL     1       5.120   6.996  15.301  0.00  0.00    +0.000 OA
BRANCH  18  21
ATOM     21  C   UNL     1       6.607   4.712  14.399  0.00  0.00    +0.000 A 
ATOM     22  C   UNL     1       5.656   3.791  13.931  0.00  0.00    +0.000 A 
ATOM     23  C   UNL     1       5.699   3.286  12.625  0.00  0.00    +0.000 A 
ATOM     24  C   UNL     1       6.694   3.697  11.748  0.00  0.00    +0.000 A 
ATOM     25  C   UNL     1       7.636   4.625  12.173  0.00  0.00    +0.000 A 
ATOM     26  C   UNL     1       7.586   5.133  13.479  0.00  0.00    +0.000 A 
ENDBRANCH  18  21
ENDBRANCH  16  19
ENDBRANCH  15  16
ENDBRANCH   1  15
TORSDOF 6
ENDMDL
MODEL 3
REMARK VINA RESULT:      -7.6      1.747      2.732
REMARK  Name = 
REMARK  7 active torsions:
REMARK  status: ('A' for Active; 'I' for Inactive)
REMARK    1  A    between atoms: C_1  and  N_2
REMARK    2  A    between atoms: N_2  and  C_20
REMARK    3  A    between atoms: C_3  and  C_5
REMARK    4  A    between atoms: C_5  and  O_6
REMARK    5  A    between atoms: O_6  and  C_7
REMARK    6  A    between atoms: C_7  and  C_9
REMARK    7  A    between atoms: C_12  and  O_13
REMARK                            x       y       z     vdW  Elec       q    Type
REMARK                         _______ _______ _______ _____ _____    ______ ____
ROOT
ATOM      1  C   UNL     1       5.678   5.298  19.196  0.00  0.00    +0.000 C 
ATOM      2  O   UNL     1       6.731   5.225  19.807  0.00  0.00    +0.000 OA
ENDROOT
BRANCH   1   3
ATOM      3  C   UNL     1       4.598   4.267  19.199  0.00  0.00    +0.000 A 
ATOM      4  N   UNL     1       4.985   3.053  18.708  0.00  0.00    +0.000 NA
ATOM      5  N   UNL     1       4.090   2.038  18.628  0.00  0.00    +0.000 NA
ATOM      6  C   UNL     1       2.830   2.255  19.042  0.00  0.00    +0.000 A 
ATOM      7  C   UNL     1       2.368   3.464  19.559  0.00  0.00    +0.000 A 
ATOM      8  C   UNL     1       1.036   3.644  19.993  0.00  0.00    +0.000 A 
ATOM      9  C   UNL     1       0.608   4.863  20.514  0.00  0.00    +0.000 A 
ATOM     10  C   UNL     1       1.504   5.919  20.613  0.00  0.00    +0.000 A 
ATOM     11  C   UNL     1       2.825   5.759  20.189  0.00  0.00    +0.000 A 
ATOM     12  C   UNL     1       3.286   4.533  19.648  0.00  0.00    +0.000 A 
BRANCH   6  13
ATOM     13  O   UNL     1       2.013   1.172  18.916  0.00  0.00    +0.000 OA
ATOM     14  H   UNL     1       2.034   1.027  17.952  0.00  0.00    +0.000 HD
ENDBRANCH   6  13
ENDBRANCH   1   3
BRANCH   1  15
ATOM     15  O   UNL     1       5.279   6.331  18.413  0.00  0.00    +0.000 OA
BRANCH  15  16
ATOM     16  C   UNL     1       6.235   6.834  17.471  0.00  0.00    +0.000 C 
BRANCH  16  19
ATOM     17  C   UNL     1       7.625   4.433  16.532  0.00  0.00    +0.000 C 
ATOM     18  N   UNL     1       6.715   5.160  15.639  0.00  0.00    +0.000 N 
ATOM     19  C   UNL     1       5.989   6.299  16.050  0.00  0.00    +0.000 C 
ATOM     20  O   UNL     1       5.155   6.881  15.349  0.00  0.00    +0.000 OA
BRANCH  18  21
ATOM     21  C   UNL     1       6.591   4.632  14.291  0.00  0.00    +0.000 A 
ATOM     22  C   UNL     1       5.543   3.776  13.917  0.00  0.00    +0.000 A 
ATOM     23  C   UNL     1       5.442   3.256  12.620  0.00  0.00    +0.000 A 
ATOM     24  C   UNL     1       6.388   3.587  11.658  0.00  0.00    +0.000 A 
ATOM     25  C   UNL     1       7.424   4.450  11.990  0.00  0.00    +0.000 A 
ATOM     26  C   UNL     1       7.518   4.973  13.287  0.00  0.00    +0.000 A 
ENDBRANCH  18  21
ENDBRANCH  16  19
ENDBRANCH  15  16
ENDBRANCH   1  15
TORSDOF 6
ENDMDL
MODEL 4
REMARK VINA RESULT:      -7.5      2.273      3.489
REMARK  Name = 
REMARK  7 active torsions:
REMARK  status: ('A' for Active; 'I' for Inactive)
REMARK    1  A    between atoms: C_1  and  N_2
REMARK    2  A    between atoms: N_2  and  C_20
REMARK    3  A    between atoms: C_3  and  C_5
REMARK    4  A    between atoms: C_5  and  O_6
REMARK    5  A    between atoms: O_6  and  C_7
REMARK    6  A    between atoms: C_7  and  C_9
REMARK    7  A    between atoms: C_12  and  O_13
REMARK                            x       y       z     vdW  Elec       q    Type
REMARK                         _______ _______ _______ _____ _____    ______ ____
ROOT
ATOM      1  C   UNL     1       7.223   5.400  18.318  0.00  0.00    +0.000 C 
ATOM      2  O   UNL     1       7.866   6.239  18.927  0.00  0.00    +0.000 OA
ENDROOT
BRANCH   1   3
ATOM      3  C   UNL     1       5.830   4.969  18.639  0.00  0.00    +0.000 A 
ATOM      4  N   UNL     1       5.748   3.736  19.220  0.00  0.00    +0.000 NA
ATOM      5  N   UNL     1       4.538   3.215  19.534  0.00  0.00    +0.000 NA
ATOM      6  C   UNL     1       3.435   3.935  19.267  0.00  0.00    +0.000 A 
ATOM      7  C   UNL     1       3.445   5.200  18.682  0.00  0.00    +0.000 A 
ATOM      8  C   UNL     1       2.260   5.928  18.428  0.00  0.00    +0.000 A 
ATOM      9  C   UNL     1       2.304   7.195  17.852  0.00  0.00    +0.000 A 
ATOM     10  C   UNL     1       3.531   7.757  17.524  0.00  0.00    +0.000 A 
ATOM     11  C   UNL     1       4.712   7.052  17.767  0.00  0.00    +0.000 A 
ATOM     12  C   UNL     1       4.697   5.759  18.346  0.00  0.00    +0.000 A 
BRANCH   6  13
ATOM     13  O   UNL     1       2.273   3.318  19.619  0.00  0.00    +0.000 OA
ATOM     14  H   UNL     1       2.375   2.453  19.184  0.00  0.00    +0.000 HD
ENDBRANCH   6  13
ENDBRANCH   1   3
BRANCH   1  15
ATOM     15  O   UNL     1       7.641   4.711  17.225  0.00  0.00    +0.000 OA
BRANCH  15  16
ATOM     16  C   UNL     1       7.374   5.302  15.948  0.00  0.00    +0.000 C 
BRANCH  16  19
ATOM     17  C   UNL     1       7.899   5.341  13.067  0.00  0.00    +0.000 C 
ATOM     18  N   UNL     1       6.890   4.433  13.624  0.00  0.00    +0.000 N 
ATOM     19  C   UNL     1       6.623   4.344  15.008  0.00  0.00    +0.000 C 
ATOM     20  O   UNL     1       5.840   3.533  15.514  0.00  0.00    +0.000 OA
BRANCH  18  21
ATOM     21  C   UNL     1       6.174   3.611  12.664  0.00  0.00    +0.000 A 
ATOM     22  C   UNL     1       4.843   3.871  12.303  0.00  0.00    +0.000 A 
ATOM     23  C   UNL     1       4.154   3.062  11.390  0.00  0.00    +0.000 A 
ATOM     24  C   UNL     1       4.785   1.970  10.808  0.00  0.00    +0.000 A 
ATOM     25  C   UNL     1       6.109   1.699  11.126  0.00  0.00    +0.000 A 
ATOM     26  C   UNL     1       6.797   2.516  12.035  0.00  0.00    +0.000 A 
ENDBRANCH  18  21
ENDBRANCH  16  19
ENDBRANCH  15  16
ENDBRANCH   1  15
TORSDOF 6
ENDMDL
MODEL 5
REMARK VINA RESULT:      -7.5      3.750      7.192
REMARK  Name = 
REMARK  7 active torsions:
REMARK  status: ('A' for Active; 'I' for Inactive)
REMARK    1  A    between atoms: C_1  and  N_2
REMARK    2  A    between atoms: N_2  and  C_20
REMARK    3  A    between atoms: C_3  and  C_5
REMARK    4  A    between atoms: C_5  and  O_6
REMARK    5  A    between atoms: O_6  and  C_7
REMARK    6  A    between atoms: C_7  and  C_9
REMARK    7  A    between atoms: C_12  and  O_13
REMARK                            x       y       z     vdW  Elec       q    Type
REMARK                         _______ _______ _______ _____ _____    ______ ____
ROOT
ATOM      1  C   UNL     1       2.717   4.870  18.220  0.00  0.00    +0.000 C 
ATOM      2  O   UNL     1       2.001   3.902  18.419  0.00  0.00    +0.000 OA
ENDROOT
BRANCH   1   3
ATOM      3  C   UNL     1       4.210   4.874  18.277  0.00  0.00    +0.000 A 
ATOM      4  N   UNL     1       4.718   5.048  19.532  0.00  0.00    +0.000 NA
ATOM      5  N   UNL     1       6.059   5.101  19.718  0.00  0.00    +0.000 NA
ATOM      6  C   UNL     1       6.864   4.977  18.649  0.00  0.00    +0.000 A 
ATOM      7  C   UNL     1       6.415   4.792  17.343  0.00  0.00    +0.000 A 
ATOM      8  C   UNL     1       7.299   4.655  16.249  0.00  0.00    +0.000 A 
ATOM      9  C   UNL     1       6.818   4.461  14.956  0.00  0.00    +0.000 A 
ATOM     10  C   UNL     1       5.448   4.397  14.736  0.00  0.00    +0.000 A 
ATOM     11  C   UNL     1       4.560   4.531  15.806  0.00  0.00    +0.000 A 
ATOM     12  C   UNL     1       5.020   4.736  17.131  0.00  0.00    +0.000 A 
BRANCH   6  13
ATOM     13  O   UNL     1       8.192   5.048  18.946  0.00  0.00    +0.000 OA
ATOM     14  H   UNL     1       8.450   5.864  18.479  0.00  0.00    +0.000 HD
ENDBRANCH   6  13
ENDBRANCH   1   3
BRANCH   1  15
ATOM     15  O   UNL     1       2.299   6.119  17.893  0.00  0.00    +0.000 OA
BRANCH  15  16
ATOM     16  C   UNL     1       2.585   7.162  18.833  0.00  0.00    +0.000 C 
BRANCH  16  19
ATOM     17  C   UNL     1       1.042   8.767  20.736  0.00  0.00    +0.000 C 
ATOM     18  N   UNL     1       1.219   9.225  19.352  0.00  0.00    +0.000 N 
ATOM     19  C   UNL     1       1.985   8.512  18.404  0.00  0.00    +0.000 C 
ATOM     20  O   UNL     1       2.221   8.913  17.259  0.00  0.00    +0.000 OA
BRANCH  18  21
ATOM     21  C   UNL     1       0.563  10.474  19.007  0.00  0.00    +0.000 A 
ATOM     22  C   UNL     1      -0.765  10.520  18.554  0.00  0.00    +0.000 A 
ATOM     23  C   UNL     1      -1.383  11.728  18.205  0.00  0.00    +0.000 A 
ATOM     24  C   UNL     1      -0.688  12.926  18.307  0.00  0.00    +0.000 A 
ATOM     25  C   UNL     1       0.620  12.916  18.774  0.00  0.00    +0.000 A 
ATOM     26  C   UNL     1       1.233  11.707  19.129  0.00  0.00    +0.000 A 
ENDBRANCH  18  21
ENDBRANCH  16  19
ENDBRANCH  15  16
ENDBRANCH   1  15
TORSDOF 6
ENDMDL
MODEL 6
REMARK VINA RESULT:      -7.5      3.921      7.273
REMARK  Name = 
REMARK  7 active torsions:
REMARK  status: ('A' for Active; 'I' for Inactive)
REMARK    1  A    between atoms: C_1  and  N_2
REMARK    2  A    between atoms: N_2  and  C_20
REMARK    3  A    between atoms: C_3  and  C_5
REMARK    4  A    between atoms: C_5  and  O_6
REMARK    5  A    between atoms: O_6  and  C_7
REMARK    6  A    between atoms: C_7  and  C_9
REMARK    7  A    between atoms: C_12  and  O_13
REMARK                            x       y       z     vdW  Elec       q    Type
REMARK                         _______ _______ _______ _____ _____    ______ ____
ROOT
ATOM      1  C   UNL     1       2.858   5.220  18.143  0.00  0.00    +0.000 C 
ATOM      2  O   UNL     1       2.060   4.316  18.326  0.00  0.00    +0.000 OA
ENDROOT
BRANCH   1   3
ATOM      3  C   UNL     1       4.345   5.095  18.209  0.00  0.00    +0.000 A 
ATOM      4  N   UNL     1       4.859   5.211  19.469  0.00  0.00    +0.000 NA
ATOM      5  N   UNL     1       6.198   5.146  19.662  0.00  0.00    +0.000 NA
ATOM      6  C   UNL     1       6.996   4.964  18.597  0.00  0.00    +0.000 A 
ATOM      7  C   UNL     1       6.541   4.831  17.286  0.00  0.00    +0.000 A 
ATOM      8  C   UNL     1       7.417   4.629  16.196  0.00  0.00    +0.000 A 
ATOM      9  C   UNL     1       6.929   4.491  14.898  0.00  0.00    +0.000 A 
ATOM     10  C   UNL     1       5.560   4.548  14.670  0.00  0.00    +0.000 A 
ATOM     11  C   UNL     1       4.680   4.747  15.736  0.00  0.00    +0.000 A 
ATOM     12  C   UNL     1       5.148   4.898  17.065  0.00  0.00    +0.000 A 
BRANCH   6  13
ATOM     13  O   UNL     1       8.323   4.916  18.902  0.00  0.00    +0.000 OA
ATOM     14  H   UNL     1       8.355   4.150  19.503  0.00  0.00    +0.000 HD
ENDBRANCH   6  13
ENDBRANCH   1   3
BRANCH   1  15
ATOM     15  O   UNL     1       2.552   6.505  17.831  0.00  0.00    +0.000 OA
BRANCH  15  16
ATOM     16  C   UNL     1       2.364   7.409  18.926  0.00  0.00    +0.000 C 
BRANCH  16  19
ATOM     17  C   UNL     1       0.844   9.129  20.745  0.00  0.00    +0.000 C 
ATOM     18  N   UNL     1       1.117   9.563  19.370  0.00  0.00    +0.000 N 
ATOM     19  C   UNL     1       1.878   8.793  18.463  0.00  0.00    +0.000 C 
ATOM     20  O   UNL     1       2.194   9.167  17.329  0.00  0.00    +0.000 OA
BRANCH  18  21
ATOM     21  C   UNL     1       0.564  10.851  18.987  0.00  0.00    +0.000 A 
ATOM     22  C   UNL     1       1.334  12.024  18.986  0.00  0.00    +0.000 A 
ATOM     23  C   UNL     1       0.788  13.265  18.634  0.00  0.00    +0.000 A 
ATOM     24  C   UNL     1      -0.548  13.362  18.265  0.00  0.00    +0.000 A 
ATOM     25  C   UNL     1      -1.331  12.215  18.234  0.00  0.00    +0.000 A 
ATOM     26  C   UNL     1      -0.778  10.975  18.581  0.00  0.00    +0.000 A 
ENDBRANCH  18  21
ENDBRANCH  16  19
ENDBRANCH  15  16
ENDBRANCH   1  15
TORSDOF 6
ENDMDL
MODEL 7
REMARK VINA RESULT:      -7.4      4.953      7.528
REMARK  Name = 
REMARK  7 active torsions:
REMARK  status: ('A' for Active; 'I' for Inactive)
REMARK    1  A    between atoms: C_1  and  N_2
REMARK    2  A    between atoms: N_2  and  C_20
REMARK    3  A    between atoms: C_3  and  C_5
REMARK    4  A    between atoms: C_5  and  O_6
REMARK    5  A    between atoms: O_6  and  C_7
REMARK    6  A    between atoms: C_7  and  C_9
REMARK    7  A    between atoms: C_12  and  O_13
REMARK                            x       y       z     vdW  Elec       q    Type
REMARK                         _______ _______ _______ _____ _____    ______ ____
ROOT
ATOM      1  C   UNL     1       7.777   6.973  17.836  0.00  0.00    +0.000 C 
ATOM      2  O   UNL     1       8.077   6.686  18.982  0.00  0.00    +0.000 OA
ENDROOT
BRANCH   1   3
ATOM      3  C   UNL     1       7.001   6.109  16.896  0.00  0.00    +0.000 A 
ATOM      4  N   UNL     1       7.588   5.949  15.674  0.00  0.00    +0.000 NA
ATOM      5  N   UNL     1       6.971   5.211  14.719  0.00  0.00    +0.000 NA
ATOM      6  C   UNL     1       5.786   4.647  15.004  0.00  0.00    +0.000 A 
ATOM      7  C   UNL     1       5.133   4.763  16.230  0.00  0.00    +0.000 A 
ATOM      8  C   UNL     1       3.891   4.143  16.490  0.00  0.00    +0.000 A 
ATOM      9  C   UNL     1       3.269   4.271  17.730  0.00  0.00    +0.000 A 
ATOM     10  C   UNL     1       3.880   5.016  18.730  0.00  0.00    +0.000 A 
ATOM     11  C   UNL     1       5.108   5.637  18.490  0.00  0.00    +0.000 A 
ATOM     12  C   UNL     1       5.760   5.530  17.237  0.00  0.00    +0.000 A 
BRANCH   6  13
ATOM     13  O   UNL     1       5.253   3.931  13.975  0.00  0.00    +0.000 OA
ATOM     14  H   UNL     1       4.373   3.709  14.331  0.00  0.00    +0.000 HD
ENDBRANCH   6  13
ENDBRANCH   1   3
BRANCH   1  15
ATOM     15  O   UNL     1       8.074   8.135  17.199  0.00  0.00    +0.000 OA
BRANCH  15  16
ATOM     16  C   UNL     1       7.616   9.344  17.816  0.00  0.00    +0.000 C 
BRANCH  16  19
ATOM     17  C   UNL     1       7.926  12.189  17.192  0.00  0.00    +0.000 C 
ATOM     18  N   UNL     1       8.889  11.513  18.070  0.00  0.00    +0.000 N 
ATOM     19  C   UNL     1       8.767  10.155  18.435  0.00  0.00    +0.000 C 
ATOM     20  O   UNL     1       9.513   9.581  19.236  0.00  0.00    +0.000 OA
BRANCH  18  21
ATOM     21  C   UNL     1       9.987  12.330  18.557  0.00  0.00    +0.000 A 
ATOM     22  C   UNL     1       9.836  13.223  19.629  0.00  0.00    +0.000 A 
ATOM     23  C   UNL     1      10.895  14.021  20.079  0.00  0.00    +0.000 A 
ATOM     24  C   UNL     1      12.141  13.939  19.471  0.00  0.00    +0.000 A 
ATOM     25  C   UNL     1      12.330  13.048  18.423  0.00  0.00    +0.000 A 
ATOM     26  C   UNL     1      11.269  12.246  17.979  0.00  0.00    +0.000 A 
ENDBRANCH  18  21
ENDBRANCH  16  19
ENDBRANCH  15  16
ENDBRANCH   1  15
TORSDOF 6
ENDMDL
MODEL 8
REMARK VINA RESULT:      -7.3      1.640      1.935
REMARK  Name = 
REMARK  7 active torsions:
REMARK  status: ('A' for Active; 'I' for Inactive)
REMARK    1  A    between atoms: C_1  and  N_2
REMARK    2  A    between atoms: N_2  and  C_20
REMARK    3  A    between atoms: C_3  and  C_5
REMARK    4  A    between atoms: C_5  and  O_6
REMARK    5  A    between atoms: O_6  and  C_7
REMARK    6  A    between atoms: C_7  and  C_9
REMARK    7  A    between atoms: C_12  and  O_13
REMARK                            x       y       z     vdW  Elec       q    Type
REMARK                         _______ _______ _______ _____ _____    ______ ____
ROOT
ATOM      1  C   UNL     1       3.214   6.865  18.799  0.00  0.00    +0.000 C 
ATOM      2  O   UNL     1       2.468   7.558  19.471  0.00  0.00    +0.000 OA
ENDROOT
BRANCH   1   3
ATOM      3  C   UNL     1       3.632   5.468  19.125  0.00  0.00    +0.000 A 
ATOM      4  N   UNL     1       4.906   5.366  19.604  0.00  0.00    +0.000 NA
ATOM      5  N   UNL     1       5.419   4.149  19.909  0.00  0.00    +0.000 NA
ATOM      6  C   UNL     1       4.649   3.062  19.734  0.00  0.00    +0.000 A 
ATOM      7  C   UNL     1       3.341   3.093  19.256  0.00  0.00    +0.000 A 
ATOM      8  C   UNL     1       2.563   1.924  19.098  0.00  0.00    +0.000 A 
ATOM      9  C   UNL     1       1.253   1.990  18.627  0.00  0.00    +0.000 A 
ATOM     10  C   UNL     1       0.699   3.224  18.311  0.00  0.00    +0.000 A 
ATOM     11  C   UNL     1       1.454   4.390  18.461  0.00  0.00    +0.000 A 
ATOM     12  C   UNL     1       2.790   4.352  18.931  0.00  0.00    +0.000 A 
BRANCH   6  13
ATOM     13  O   UNL     1       5.261   1.892  20.069  0.00  0.00    +0.000 OA
ATOM     14  H   UNL     1       4.620   1.238  19.736  0.00  0.00    +0.000 HD
ENDBRANCH   6  13
ENDBRANCH   1   3
BRANCH   1  15
ATOM     15  O   UNL     1       3.792   7.220  17.623  0.00  0.00    +0.000 OA
BRANCH  15  16
ATOM     16  C   UNL     1       5.125   6.748  17.391  0.00  0.00    +0.000 C 
BRANCH  16  19
ATOM     17  C   UNL     1       6.647   4.325  16.766  0.00  0.00    +0.000 C 
ATOM     18  N   UNL     1       6.119   5.168  15.687  0.00  0.00    +0.000 N 
ATOM     19  C   UNL     1       5.346   6.324  15.929  0.00  0.00    +0.000 C 
ATOM     20  O   UNL     1       4.819   7.006  15.043  0.00  0.00    +0.000 OA
BRANCH  18  21
ATOM     21  C   UNL     1       6.431   4.738  14.334  0.00  0.00    +0.000 A 
ATOM     22  C   UNL     1       7.510   5.270  13.611  0.00  0.00    +0.000 A 
ATOM     23  C   UNL     1       7.792   4.864  12.301  0.00  0.00    +0.000 A 
ATOM     24  C   UNL     1       7.001   3.906  11.679  0.00  0.00    +0.000 A 
ATOM     25  C   UNL     1       5.939   3.343  12.376  0.00  0.00    +0.000 A 
ATOM     26  C   UNL     1       5.665   3.748  13.690  0.00  0.00    +0.000 A 
ENDBRANCH  18  21
ENDBRANCH  16  19
ENDBRANCH  15  16
ENDBRANCH   1  15
TORSDOF 6
ENDMDL
MODEL 9
REMARK VINA RESULT:      -7.3      2.103      3.075
REMARK  Name = 
REMARK  7 active torsions:
REMARK  status: ('A' for Active; 'I' for Inactive)
REMARK    1  A    between atoms: C_1  and  N_2
REMARK    2  A    between atoms: N_2  and  C_20
REMARK    3  A    between atoms: C_3  and  C_5
REMARK    4  A    between atoms: C_5  and  O_6
REMARK    5  A    between atoms: O_6  and  C_7
REMARK    6  A    between atoms: C_7  and  C_9
REMARK    7  A    between atoms: C_12  and  O_13
REMARK                            x       y       z     vdW  Elec       q    Type
REMARK                         _______ _______ _______ _____ _____    ______ ____
ROOT
ATOM      1  C   UNL     1       5.150   3.679  18.477  0.00  0.00    +0.000 C 
ATOM      2  O   UNL     1       5.062   3.193  17.362  0.00  0.00    +0.000 OA
ENDROOT
BRANCH   1   3
ATOM      3  C   UNL     1       4.089   3.644  19.527  0.00  0.00    +0.000 A 
ATOM      4  N   UNL     1       3.999   2.453  20.189  0.00  0.00    +0.000 NA
ATOM      5  N   UNL     1       3.056   2.281  21.147  0.00  0.00    +0.000 NA
ATOM      6  C   UNL     1       2.226   3.300  21.426  0.00  0.00    +0.000 A 
ATOM      7  C   UNL     1       2.265   4.542  20.796  0.00  0.00    +0.000 A 
ATOM      8  C   UNL     1       1.378   5.590  21.130  0.00  0.00    +0.000 A 
ATOM      9  C   UNL     1       1.449   6.825  20.488  0.00  0.00    +0.000 A 
ATOM     10  C   UNL     1       2.409   7.033  19.506  0.00  0.00    +0.000 A 
ATOM     11  C   UNL     1       3.294   6.007  19.163  0.00  0.00    +0.000 A 
ATOM     12  C   UNL     1       3.240   4.739  19.794  0.00  0.00    +0.000 A 
BRANCH   6  13
ATOM     13  O   UNL     1       1.316   3.020  22.401  0.00  0.00    +0.000 OA
ATOM     14  H   UNL     1       1.662   2.179  22.751  0.00  0.00    +0.000 HD
ENDBRANCH   6  13
ENDBRANCH   1   3
BRANCH   1  15
ATOM     15  O   UNL     1       6.230   4.327  18.982  0.00  0.00    +0.000 OA
BRANCH  15  16
ATOM     16  C   UNL     1       6.776   5.388  18.188  0.00  0.00    +0.000 C 
BRANCH  16  19
ATOM     17  C   UNL     1       5.258   6.308  15.859  0.00  0.00    +0.000 C 
ATOM     18  N   UNL     1       6.370   5.365  15.694  0.00  0.00    +0.000 N 
ATOM     19  C   UNL     1       7.161   4.918  16.775  0.00  0.00    +0.000 C 
ATOM     20  O   UNL     1       8.153   4.191  16.657  0.00  0.00    +0.000 OA
BRANCH  18  21
ATOM     21  C   UNL     1       6.625   4.914  14.336  0.00  0.00    +0.000 A 
ATOM     22  C   UNL     1       5.900   3.866  13.748  0.00  0.00    +0.000 A 
ATOM     23  C   UNL     1       6.166   3.426  12.445  0.00  0.00    +0.000 A 
ATOM     24  C   UNL     1       7.164   4.030  11.692  0.00  0.00    +0.000 A 
ATOM     25  C   UNL     1       7.884   5.085  12.237  0.00  0.00    +0.000 A 
ATOM     26  C   UNL     1       7.610   5.527  13.538  0.00  0.00    +0.000 A 
ENDBRANCH  18  21
ENDBRANCH  16  19
ENDBRANCH  15  16
ENDBRANCH   1  15
TORSDOF 6
ENDMDL
