MODEL 1
REMARK VINA RESULT:      -8.3      0.000      0.000
REMARK  Name = 
REMARK  9 active torsions:
REMARK  status: ('A' for Active; 'I' for Inactive)
REMARK    1  A    between atoms: C_1  and  C_2
REMARK    2  A    between atoms: C_5  and  C_6
REMARK    3  A    between atoms: C_8  and  C_9
REMARK    4  A    between atoms: C_9  and  O_10
REMARK    5  A    between atoms: O_10  and  C_11
REMARK    6  A    between atoms: C_13  and  C_14
REMARK    7  A    between atoms: C_17  and  C_18
REMARK    8  A    between atoms: N_21  and  C_22
REMARK    9  A    between atoms: C_22  and  C_23
REMARK                            x       y       z     vdW  Elec       q    Type
REMARK                         _______ _______ _______ _____ _____    ______ ____
ROOT
ATOM      1  C   UNL     1       3.896   4.800  19.379  0.00  0.00    +0.000 A 
ATOM      2  N   UNL     1       4.265   3.516  19.204  0.00  0.00    +0.000 NA
ATOM      3  C   UNL     1       3.301   2.678  18.778  0.00  0.00    +0.000 A 
ATOM      4  C   UNL     1       3.653   1.234  18.588  0.00  0.00    +0.000 C 
ATOM      5  N   UNL     1       2.030   3.039  18.516  0.00  0.00    +0.000 NA
ATOM      6  C   UNL     1       1.718   4.338  18.706  0.00  0.00    +0.000 A 
ATOM      7  C   UNL     1       2.616   5.283  19.151  0.00  0.00    +0.000 A 
ENDROOT
BRANCH   7   8
ATOM      8  C   UNL     1       2.263   6.701  19.312  0.00  0.00    +0.000 A 
ATOM      9  C   UNL     1       1.707   7.219  20.547  0.00  0.00    +0.000 A 
ATOM     10  C   UNL     1       1.235   8.468  20.609  0.00  0.00    +0.000 A 
ATOM     11  N   UNL     1       1.286   9.302  19.506  0.00  0.00    +0.000 N 
ATOM     12  C   UNL     1       1.885   8.915  18.311  0.00  0.00    +0.000 A 
ATOM     13  O   UNL     1       1.986   9.638  17.325  0.00  0.00    +0.000 OA
ATOM     14  C   UNL     1       2.376   7.512  18.246  0.00  0.00    +0.000 A 
BRANCH  11  15
ATOM     15  C   UNL     1       0.697  10.640  19.573  0.00  0.00    +0.000 C 
BRANCH  15  16
ATOM     16  C   UNL     1      -0.110  10.858  20.783  0.00  0.00    +0.000 C 
ATOM     17  N   UNL     1      -0.779  10.996  21.724  0.00  0.00    +0.000 NA
ENDBRANCH  15  16
ENDBRANCH  11  15
ENDBRANCH   7   8
BRANCH   1  18
ATOM     18  O   UNL     1       4.816   5.710  19.870  0.00  0.00    +0.000 OA
BRANCH  18  19
ATOM     19  C   UNL     1       6.159   5.479  19.454  0.00  0.00    +0.000 C 
BRANCH  19  22
ATOM     20  C   UNL     1       7.303   5.141  17.110  0.00  0.00    +0.000 C 
ATOM     21  C   UNL     1       7.294   6.628  17.407  0.00  0.00    +0.000 C 
ATOM     22  C   UNL     1       6.216   5.753  17.979  0.00  0.00    +0.000 C 
BRANCH  20  27
ATOM     23  C   UNL     1       5.972   3.673  11.681  0.00  0.00    +0.000 C 
ATOM     24  C   UNL     1       6.334   3.959  13.103  0.00  0.00    +0.000 A 
ATOM     25  C   UNL     1       5.686   3.340  14.169  0.00  0.00    +0.000 A 
ATOM     26  C   UNL     1       6.018   3.696  15.476  0.00  0.00    +0.000 A 
ATOM     27  C   UNL     1       6.984   4.676  15.708  0.00  0.00    +0.000 A 
ATOM     28  N   UNL     1       7.651   5.249  14.675  0.00  0.00    +0.000 NA
ATOM     29  C   UNL     1       7.317   4.887  13.414  0.00  0.00    +0.000 A 
ENDBRANCH  20  27
ENDBRANCH  19  22
ENDBRANCH  18  19
ENDBRANCH   1  18
TORSDOF 7
ENDMDL
MODEL 2
REMARK VINA RESULT:      -8.0      0.856      1.124
REMARK  Name = 
REMARK  9 active torsions:
REMARK  status: ('A' for Active; 'I' for Inactive)
REMARK    1  A    between atoms: C_1  and  C_2
REMARK    2  A    between atoms: C_5  and  C_6
REMARK    3  A    between atoms: C_8  and  C_9
REMARK    4  A    between atoms: C_9  and  O_10
REMARK    5  A    between atoms: O_10  and  C_11
REMARK    6  A    between atoms: C_13  and  C_14
REMARK    7  A    between atoms: C_17  and  C_18
REMARK    8  A    between atoms: N_21  and  C_22
REMARK    9  A    between atoms: C_22  and  C_23
REMARK                            x       y       z     vdW  Elec       q    Type
REMARK                         _______ _______ _______ _____ _____    ______ ____
ROOT
ATOM      1  C   UNL     1       3.986   4.804  19.427  0.00  0.00    +0.000 A 
ATOM      2  N   UNL     1       4.361   3.519  19.271  0.00  0.00    +0.000 NA
ATOM      3  C   UNL     1       3.384   2.657  18.928  0.00  0.00    +0.000 A 
ATOM      4  C   UNL     1       3.743   1.211  18.763  0.00  0.00    +0.000 C 
ATOM      5  N   UNL     1       2.095   2.996  18.728  0.00  0.00    +0.000 NA
ATOM      6  C   UNL     1       1.779   4.297  18.895  0.00  0.00    +0.000 A 
ATOM      7  C   UNL     1       2.689   5.265  19.257  0.00  0.00    +0.000 A 
ENDROOT
BRANCH   7   8
ATOM      8  C   UNL     1       2.328   6.683  19.393  0.00  0.00    +0.000 A 
ATOM      9  C   UNL     1       1.738   7.213  20.608  0.00  0.00    +0.000 A 
ATOM     10  C   UNL     1       1.262   8.462  20.645  0.00  0.00    +0.000 A 
ATOM     11  N   UNL     1       1.339   9.284  19.534  0.00  0.00    +0.000 N 
ATOM     12  C   UNL     1       1.970   8.885  18.359  0.00  0.00    +0.000 A 
ATOM     13  O   UNL     1       2.094   9.598  17.369  0.00  0.00    +0.000 OA
ATOM     14  C   UNL     1       2.467   7.483  18.322  0.00  0.00    +0.000 A 
BRANCH  11  15
ATOM     15  C   UNL     1       0.745  10.620  19.572  0.00  0.00    +0.000 C 
BRANCH  15  16
ATOM     16  C   UNL     1      -0.655  10.645  19.125  0.00  0.00    +0.000 C 
ATOM     17  N   UNL     1      -1.758  10.711  18.761  0.00  0.00    +0.000 NA
ENDBRANCH  15  16
ENDBRANCH  11  15
ENDBRANCH   7   8
BRANCH   1  18
ATOM     18  O   UNL     1       4.921   5.739  19.834  0.00  0.00    +0.000 OA
BRANCH  18  19
ATOM     19  C   UNL     1       6.243   5.503  19.357  0.00  0.00    +0.000 C 
BRANCH  19  22
ATOM     20  C   UNL     1       7.216   5.100  16.948  0.00  0.00    +0.000 C 
ATOM     21  C   UNL     1       7.348   6.580  17.256  0.00  0.00    +0.000 C 
ATOM     22  C   UNL     1       6.236   5.789  17.884  0.00  0.00    +0.000 C 
BRANCH  20  27
ATOM     23  C   UNL     1       5.599   3.173  11.745  0.00  0.00    +0.000 C 
ATOM     24  C   UNL     1       6.013   3.762  13.055  0.00  0.00    +0.000 A 
ATOM     25  C   UNL     1       7.125   4.590  13.174  0.00  0.00    +0.000 A 
ATOM     26  C   UNL     1       7.505   5.056  14.433  0.00  0.00    +0.000 A 
ATOM     27  C   UNL     1       6.779   4.680  15.564  0.00  0.00    +0.000 A 
ATOM     28  N   UNL     1       5.667   3.911  15.449  0.00  0.00    +0.000 NA
ATOM     29  C   UNL     1       5.313   3.473  14.218  0.00  0.00    +0.000 A 
ENDBRANCH  20  27
ENDBRANCH  19  22
ENDBRANCH  18  19
ENDBRANCH   1  18
TORSDOF 7
ENDMDL
MODEL 3
REMARK VINA RESULT:      -7.8      1.108      1.426
REMARK  Name = 
REMARK  9 active torsions:
REMARK  status: ('A' for Active; 'I' for Inactive)
REMARK    1  A    between atoms: C_1  and  C_2
REMARK    2  A    between atoms: C_5  and  C_6
REMARK    3  A    between atoms: C_8  and  C_9
REMARK    4  A    between atoms: C_9  and  O_10
REMARK    5  A    between atoms: O_10  and  C_11
REMARK    6  A    between atoms: C_13  and  C_14
REMARK    7  A    between atoms: C_17  and  C_18
REMARK    8  A    between atoms: N_21  and  C_22
REMARK    9  A    between atoms: C_22  and  C_23
REMARK                            x       y       z     vdW  Elec       q    Type
REMARK                         _______ _______ _______ _____ _____    ______ ____
ROOT
ATOM      1  C   UNL     1       3.905   4.686  19.320  0.00  0.00    +0.000 A 
ATOM      2  N   UNL     1       4.384   3.435  19.175  0.00  0.00    +0.000 NA
ATOM      3  C   UNL     1       3.502   2.510  18.752  0.00  0.00    +0.000 A 
ATOM      4  C   UNL     1       3.978   1.098  18.594  0.00  0.00    +0.000 C 
ATOM      5  N   UNL     1       2.208   2.757  18.465  0.00  0.00    +0.000 NA
ATOM      6  C   UNL     1       1.784   4.028  18.626  0.00  0.00    +0.000 A 
ATOM      7  C   UNL     1       2.592   5.054  19.065  0.00  0.00    +0.000 A 
ENDROOT
BRANCH   7   8
ATOM      8  C   UNL     1       2.119   6.439  19.194  0.00  0.00    +0.000 A 
ATOM      9  C   UNL     1       2.219   7.390  18.103  0.00  0.00    +0.000 A 
ATOM     10  C   UNL     1       1.943   8.683  18.300  0.00  0.00    +0.000 A 
ATOM     11  N   UNL     1       1.535   9.141  19.540  0.00  0.00    +0.000 N 
ATOM     12  C   UNL     1       1.327   8.282  20.616  0.00  0.00    +0.000 A 
ATOM     13  O   UNL     1       0.927   8.644  21.718  0.00  0.00    +0.000 OA
ATOM     14  C   UNL     1       1.668   6.852  20.391  0.00  0.00    +0.000 A 
BRANCH  11  15
ATOM     15  C   UNL     1       1.310  10.571  19.754  0.00  0.00    +0.000 C 
BRANCH  15  16
ATOM     16  C   UNL     1       0.086  11.068  19.109  0.00  0.00    +0.000 C 
ATOM     17  N   UNL     1      -0.907  11.425  18.622  0.00  0.00    +0.000 NA
ENDBRANCH  15  16
ENDBRANCH  11  15
ENDBRANCH   7   8
BRANCH   1  18
ATOM     18  O   UNL     1       4.737   5.680  19.806  0.00  0.00    +0.000 OA
BRANCH  18  19
ATOM     19  C   UNL     1       6.105   5.544  19.430  0.00  0.00    +0.000 C 
BRANCH  19  22
ATOM     20  C   UNL     1       7.289   5.191  17.110  0.00  0.00    +0.000 C 
ATOM     21  C   UNL     1       7.265   6.681  17.391  0.00  0.00    +0.000 C 
ATOM     22  C   UNL     1       6.184   5.803  17.954  0.00  0.00    +0.000 C 
BRANCH  20  27
ATOM     23  C   UNL     1       6.058   3.660  11.675  0.00  0.00    +0.000 C 
ATOM     24  C   UNL     1       6.395   3.962  13.100  0.00  0.00    +0.000 A 
ATOM     25  C   UNL     1       5.731   3.351  14.160  0.00  0.00    +0.000 A 
ATOM     26  C   UNL     1       6.039   3.723  15.469  0.00  0.00    +0.000 A 
ATOM     27  C   UNL     1       6.996   4.709  15.707  0.00  0.00    +0.000 A 
ATOM     28  N   UNL     1       7.679   5.276  14.680  0.00  0.00    +0.000 NA
ATOM     29  C   UNL     1       7.368   4.898  13.417  0.00  0.00    +0.000 A 
ENDBRANCH  20  27
ENDBRANCH  19  22
ENDBRANCH  18  19
ENDBRANCH   1  18
TORSDOF 7
ENDMDL
MODEL 4
REMARK VINA RESULT:      -7.6      3.792      6.951
REMARK  Name = 
REMARK  9 active torsions:
REMARK  status: ('A' for Active; 'I' for Inactive)
REMARK    1  A    between atoms: C_1  and  C_2
REMARK    2  A    between atoms: C_5  and  C_6
REMARK    3  A    between atoms: C_8  and  C_9
REMARK    4  A    between atoms: C_9  and  O_10
REMARK    5  A    between atoms: O_10  and  C_11
REMARK    6  A    between atoms: C_13  and  C_14
REMARK    7  A    between atoms: C_17  and  C_18
REMARK    8  A    between atoms: N_21  and  C_22
REMARK    9  A    between atoms: C_22  and  C_23
REMARK                            x       y       z     vdW  Elec       q    Type
REMARK                         _______ _______ _______ _____ _____    ______ ____
ROOT
ATOM      1  C   UNL     1       6.328   5.345  16.043  0.00  0.00    +0.000 A 
ATOM      2  N   UNL     1       7.192   5.708  15.075  0.00  0.00    +0.000 NA
ATOM      3  C   UNL     1       7.213   4.926  13.979  0.00  0.00    +0.000 A 
ATOM      4  C   UNL     1       8.173   5.273  12.881  0.00  0.00    +0.000 C 
ATOM      5  N   UNL     1       6.437   3.841  13.794  0.00  0.00    +0.000 NA
ATOM      6  C   UNL     1       5.588   3.527  14.795  0.00  0.00    +0.000 A 
ATOM      7  C   UNL     1       5.488   4.244  15.967  0.00  0.00    +0.000 A 
ENDROOT
BRANCH   7   8
ATOM      8  C   UNL     1       4.527   3.906  17.026  0.00  0.00    +0.000 A 
ATOM      9  C   UNL     1       4.947   3.339  18.293  0.00  0.00    +0.000 A 
ATOM     10  C   UNL     1       4.045   2.882  19.167  0.00  0.00    +0.000 A 
ATOM     11  N   UNL     1       2.690   2.958  18.893  0.00  0.00    +0.000 N 
ATOM     12  C   UNL     1       2.199   3.568  17.743  0.00  0.00    +0.000 A 
ATOM     13  O   UNL     1       1.006   3.691  17.484  0.00  0.00    +0.000 OA
ATOM     14  C   UNL     1       3.216   4.044  16.766  0.00  0.00    +0.000 A 
BRANCH  11  15
ATOM     15  C   UNL     1       1.722   2.384  19.829  0.00  0.00    +0.000 C 
BRANCH  15  16
ATOM     16  C   UNL     1       2.000   2.725  21.232  0.00  0.00    +0.000 C 
ATOM     17  N   UNL     1       2.190   3.034  22.336  0.00  0.00    +0.000 NA
ENDBRANCH  15  16
ENDBRANCH  11  15
ENDBRANCH   7   8
BRANCH   1  18
ATOM     18  O   UNL     1       6.289   6.066  17.224  0.00  0.00    +0.000 OA
BRANCH  18  19
ATOM     19  C   UNL     1       6.157   7.475  17.055  0.00  0.00    +0.000 C 
BRANCH  19  22
ATOM     20  C   UNL     1       8.342   8.789  17.695  0.00  0.00    +0.000 C 
ATOM     21  C   UNL     1       8.336   7.496  18.486  0.00  0.00    +0.000 C 
ATOM     22  C   UNL     1       7.032   8.125  18.086  0.00  0.00    +0.000 C 
BRANCH  20  27
ATOM     23  C   UNL     1       9.790  13.603  20.547  0.00  0.00    +0.000 C 
ATOM     24  C   UNL     1       9.478  12.384  19.739  0.00  0.00    +0.000 A 
ATOM     25  C   UNL     1       9.020  12.466  18.427  0.00  0.00    +0.000 A 
ATOM     26  C   UNL     1       8.679  11.298  17.744  0.00  0.00    +0.000 A 
ATOM     27  C   UNL     1       8.784  10.062  18.381  0.00  0.00    +0.000 A 
ATOM     28  N   UNL     1       9.272   9.972  19.644  0.00  0.00    +0.000 NA
ATOM     29  C   UNL     1       9.602  11.116  20.288  0.00  0.00    +0.000 A 
ENDBRANCH  20  27
ENDBRANCH  19  22
ENDBRANCH  18  19
ENDBRANCH   1  18
TORSDOF 7
ENDMDL
MODEL 5
REMARK VINA RESULT:      -7.5      1.917      8.135
REMARK  Name = 
REMARK  9 active torsions:
REMARK  status: ('A' for Active; 'I' for Inactive)
REMARK    1  A    between atoms: C_1  and  C_2
REMARK    2  A    between atoms: C_5  and  C_6
REMARK    3  A    between atoms: C_8  and  C_9
REMARK    4  A    between atoms: C_9  and  O_10
REMARK    5  A    between atoms: O_10  and  C_11
REMARK    6  A    between atoms: C_13  and  C_14
REMARK    7  A    between atoms: C_17  and  C_18
REMARK    8  A    between atoms: N_21  and  C_22
REMARK    9  A    between atoms: C_22  and  C_23
REMARK                            x       y       z     vdW  Elec       q    Type
REMARK                         _______ _______ _______ _____ _____    ______ ____
ROOT
ATOM      1  C   UNL     1       3.205   4.763  19.623  0.00  0.00    +0.000 A 
ATOM      2  N   UNL     1       2.430   4.442  20.678  0.00  0.00    +0.000 NA
ATOM      3  C   UNL     1       2.291   3.127  20.929  0.00  0.00    +0.000 A 
ATOM      4  C   UNL     1       1.422   2.714  22.078  0.00  0.00    +0.000 C 
ATOM      5  N   UNL     1       2.871   2.142  20.214  0.00  0.00    +0.000 NA
ATOM      6  C   UNL     1       3.638   2.523  19.171  0.00  0.00    +0.000 A 
ATOM      7  C   UNL     1       3.842   3.837  18.811  0.00  0.00    +0.000 A 
ENDROOT
BRANCH   7   8
ATOM      8  C   UNL     1       4.715   4.229  17.696  0.00  0.00    +0.000 A 
ATOM      9  C   UNL     1       4.194   4.486  16.367  0.00  0.00    +0.000 A 
ATOM     10  C   UNL     1       5.024   4.670  15.335  0.00  0.00    +0.000 A 
ATOM     11  N   UNL     1       6.396   4.640  15.513  0.00  0.00    +0.000 N 
ATOM     12  C   UNL     1       6.977   4.490  16.768  0.00  0.00    +0.000 A 
ATOM     13  O   UNL     1       8.187   4.499  16.973  0.00  0.00    +0.000 OA
ATOM     14  C   UNL     1       6.043   4.255  17.902  0.00  0.00    +0.000 A 
BRANCH  11  15
ATOM     15  C   UNL     1       7.286   4.769  14.359  0.00  0.00    +0.000 C 
BRANCH  15  16
ATOM     16  C   UNL     1       6.787   4.074  13.162  0.00  0.00    +0.000 C 
ATOM     17  N   UNL     1       6.411   3.483  12.235  0.00  0.00    +0.000 NA
ENDBRANCH  15  16
ENDBRANCH  11  15
ENDBRANCH   7   8
BRANCH   1  18
ATOM     18  O   UNL     1       3.349   6.093  19.267  0.00  0.00    +0.000 OA
BRANCH  18  19
ATOM     19  C   UNL     1       2.229   6.651  18.587  0.00  0.00    +0.000 C 
BRANCH  19  22
ATOM     20  C   UNL     1       1.066   9.006  18.466  0.00  0.00    +0.000 C 
ATOM     21  C   UNL     1       2.378   9.102  17.710  0.00  0.00    +0.000 C 
ATOM     22  C   UNL     1       2.247   8.129  18.847  0.00  0.00    +0.000 C 
BRANCH  20  27
ATOM     23  C   UNL     1      -0.198  13.405  21.996  0.00  0.00    +0.000 C 
ATOM     24  C   UNL     1       0.034  12.261  21.061  0.00  0.00    +0.000 A 
ATOM     25  C   UNL     1      -0.615  11.040  21.214  0.00  0.00    +0.000 A 
ATOM     26  C   UNL     1      -0.309   9.985  20.353  0.00  0.00    +0.000 A 
ATOM     27  C   UNL     1       0.654  10.156  19.358  0.00  0.00    +0.000 A 
ATOM     28  N   UNL     1       1.258  11.357  19.175  0.00  0.00    +0.000 NA
ATOM     29  C   UNL     1       0.943  12.368  20.018  0.00  0.00    +0.000 A 
ENDBRANCH  20  27
ENDBRANCH  19  22
ENDBRANCH  18  19
ENDBRANCH   1  18
TORSDOF 7
ENDMDL
MODEL 6
REMARK VINA RESULT:      -7.4      2.127      7.793
REMARK  Name = 
REMARK  9 active torsions:
REMARK  status: ('A' for Active; 'I' for Inactive)
REMARK    1  A    between atoms: C_1  and  C_2
REMARK    2  A    between atoms: C_5  and  C_6
REMARK    3  A    between atoms: C_8  and  C_9
REMARK    4  A    between atoms: C_9  and  O_10
REMARK    5  A    between atoms: O_10  and  C_11
REMARK    6  A    between atoms: C_13  and  C_14
REMARK    7  A    between atoms: C_17  and  C_18
REMARK    8  A    between atoms: N_21  and  C_22
REMARK    9  A    between atoms: C_22  and  C_23
REMARK                            x       y       z     vdW  Elec       q    Type
REMARK                         _______ _______ _______ _____ _____    ______ ____
ROOT
ATOM      1  C   UNL     1       3.156   4.651  19.623  0.00  0.00    +0.000 A 
ATOM      2  N   UNL     1       2.384   4.309  20.674  0.00  0.00    +0.000 NA
ATOM      3  C   UNL     1       2.246   2.989  20.898  0.00  0.00    +0.000 A 
ATOM      4  C   UNL     1       1.380   2.553  22.041  0.00  0.00    +0.000 C 
ATOM      5  N   UNL     1       2.824   2.019  20.163  0.00  0.00    +0.000 NA
ATOM      6  C   UNL     1       3.588   2.420  19.125  0.00  0.00    +0.000 A 
ATOM      7  C   UNL     1       3.791   3.741  18.791  0.00  0.00    +0.000 A 
ENDROOT
BRANCH   7   8
ATOM      8  C   UNL     1       4.661   4.156  17.681  0.00  0.00    +0.000 A 
ATOM      9  C   UNL     1       4.143   4.395  16.348  0.00  0.00    +0.000 A 
ATOM     10  C   UNL     1       4.975   4.600  15.322  0.00  0.00    +0.000 A 
ATOM     11  N   UNL     1       6.346   4.611  15.510  0.00  0.00    +0.000 N 
ATOM     12  C   UNL     1       6.922   4.479  16.771  0.00  0.00    +0.000 A 
ATOM     13  O   UNL     1       8.129   4.524  16.984  0.00  0.00    +0.000 OA
ATOM     14  C   UNL     1       5.985   4.220  17.898  0.00  0.00    +0.000 A 
BRANCH  11  15
ATOM     15  C   UNL     1       7.240   4.762  14.363  0.00  0.00    +0.000 C 
BRANCH  15  16
ATOM     16  C   UNL     1       6.772   4.050  13.165  0.00  0.00    +0.000 C 
ATOM     17  N   UNL     1       6.448   3.471  12.210  0.00  0.00    +0.000 NA
ENDBRANCH  15  16
ENDBRANCH  11  15
ENDBRANCH   7   8
BRANCH   1  18
ATOM     18  O   UNL     1       3.300   5.988  19.294  0.00  0.00    +0.000 OA
BRANCH  18  19
ATOM     19  C   UNL     1       2.186   6.807  19.639  0.00  0.00    +0.000 C 
BRANCH  19  22
ATOM     20  C   UNL     1       1.361   8.907  18.288  0.00  0.00    +0.000 C 
ATOM     21  C   UNL     1       2.576   8.347  17.572  0.00  0.00    +0.000 C 
ATOM     22  C   UNL     1       2.444   8.167  19.057  0.00  0.00    +0.000 C 
BRANCH  20  27
ATOM     23  C   UNL     1       1.075  14.630  19.036  0.00  0.00    +0.000 C 
ATOM     24  C   UNL     1       1.068  13.156  18.788  0.00  0.00    +0.000 A 
ATOM     25  C   UNL     1      -0.026  12.358  19.107  0.00  0.00    +0.000 A 
ATOM     26  C   UNL     1       0.049  10.978  18.917  0.00  0.00    +0.000 A 
ATOM     27  C   UNL     1       1.222  10.406  18.424  0.00  0.00    +0.000 A 
ATOM     28  N   UNL     1       2.276  11.182  18.068  0.00  0.00    +0.000 NA
ATOM     29  C   UNL     1       2.181  12.520  18.256  0.00  0.00    +0.000 A 
ENDBRANCH  20  27
ENDBRANCH  19  22
ENDBRANCH  18  19
ENDBRANCH   1  18
TORSDOF 7
ENDMDL
MODEL 7
REMARK VINA RESULT:      -7.2      1.769      8.284
REMARK  Name = 
REMARK  9 active torsions:
REMARK  status: ('A' for Active; 'I' for Inactive)
REMARK    1  A    between atoms: C_1  and  C_2
REMARK    2  A    between atoms: C_5  and  C_6
REMARK    3  A    between atoms: C_8  and  C_9
REMARK    4  A    between atoms: C_9  and  O_10
REMARK    5  A    between atoms: O_10  and  C_11
REMARK    6  A    between atoms: C_13  and  C_14
REMARK    7  A    between atoms: C_17  and  C_18
REMARK    8  A    between atoms: N_21  and  C_22
REMARK    9  A    between atoms: C_22  and  C_23
REMARK                            x       y       z     vdW  Elec       q    Type
REMARK                         _______ _______ _______ _____ _____    ______ ____
ROOT
ATOM      1  C   UNL     1       3.447   4.966  19.226  0.00  0.00    +0.000 A 
ATOM      2  N   UNL     1       2.737   4.639  20.324  0.00  0.00    +0.000 NA
ATOM      3  C   UNL     1       2.616   3.322  20.577  0.00  0.00    +0.000 A 
ATOM      4  C   UNL     1       1.818   2.902  21.774  0.00  0.00    +0.000 C 
ATOM      5  N   UNL     1       3.155   2.342  19.826  0.00  0.00    +0.000 NA
ATOM      6  C   UNL     1       3.858   2.729  18.741  0.00  0.00    +0.000 A 
ATOM      7  C   UNL     1       4.038   4.045  18.375  0.00  0.00    +0.000 A 
ENDROOT
BRANCH   7   8
ATOM      8  C   UNL     1       4.842   4.444  17.211  0.00  0.00    +0.000 A 
ATOM      9  C   UNL     1       4.672   3.824  15.911  0.00  0.00    +0.000 A 
ATOM     10  C   UNL     1       5.529   4.081  14.918  0.00  0.00    +0.000 A 
ATOM     11  N   UNL     1       6.585   4.957  15.099  0.00  0.00    +0.000 N 
ATOM     12  C   UNL     1       6.767   5.661  16.286  0.00  0.00    +0.000 A 
ATOM     13  O   UNL     1       7.665   6.476  16.471  0.00  0.00    +0.000 OA
ATOM     14  C   UNL     1       5.825   5.342  17.392  0.00  0.00    +0.000 A 
BRANCH  11  15
ATOM     15  C   UNL     1       7.554   5.166  14.024  0.00  0.00    +0.000 C 
BRANCH  15  16
ATOM     16  C   UNL     1       7.221   4.435  12.793  0.00  0.00    +0.000 C 
ATOM     17  N   UNL     1       6.943   3.898  11.800  0.00  0.00    +0.000 NA
ENDBRANCH  15  16
ENDBRANCH  11  15
ENDBRANCH   7   8
BRANCH   1  18
ATOM     18  O   UNL     1       3.567   6.298  18.869  0.00  0.00    +0.000 OA
BRANCH  18  19
ATOM     19  C   UNL     1       2.423   6.844  18.220  0.00  0.00    +0.000 C 
BRANCH  19  22
ATOM     20  C   UNL     1       0.896   8.941  18.650  0.00  0.00    +0.000 C 
ATOM     21  C   UNL     1       2.073   9.395  17.808  0.00  0.00    +0.000 C 
ATOM     22  C   UNL     1       2.239   8.236  18.750  0.00  0.00    +0.000 C 
BRANCH  20  27
ATOM     23  C   UNL     1      -1.222  12.176  22.945  0.00  0.00    +0.000 C 
ATOM     24  C   UNL     1      -0.597  11.399  21.831  0.00  0.00    +0.000 A 
ATOM     25  C   UNL     1      -0.253  11.992  20.620  0.00  0.00    +0.000 A 
ATOM     26  C   UNL     1       0.264  11.205  19.590  0.00  0.00    +0.000 A 
ATOM     27  C   UNL     1       0.419   9.831  19.775  0.00  0.00    +0.000 A 
ATOM     28  N   UNL     1       0.128   9.254  20.968  0.00  0.00    +0.000 NA
ATOM     29  C   UNL     1      -0.368  10.037  21.955  0.00  0.00    +0.000 A 
ENDBRANCH  20  27
ENDBRANCH  19  22
ENDBRANCH  18  19
ENDBRANCH   1  18
TORSDOF 7
ENDMDL
MODEL 8
REMARK VINA RESULT:      -7.1      1.888      8.112
REMARK  Name = 
REMARK  9 active torsions:
REMARK  status: ('A' for Active; 'I' for Inactive)
REMARK    1  A    between atoms: C_1  and  C_2
REMARK    2  A    between atoms: C_5  and  C_6
REMARK    3  A    between atoms: C_8  and  C_9
REMARK    4  A    between atoms: C_9  and  O_10
REMARK    5  A    between atoms: O_10  and  C_11
REMARK    6  A    between atoms: C_13  and  C_14
REMARK    7  A    between atoms: C_17  and  C_18
REMARK    8  A    between atoms: N_21  and  C_22
REMARK    9  A    between atoms: C_22  and  C_23
REMARK                            x       y       z     vdW  Elec       q    Type
REMARK                         _______ _______ _______ _____ _____    ______ ____
ROOT
ATOM      1  C   UNL     1       3.431   5.047  19.329  0.00  0.00    +0.000 A 
ATOM      2  N   UNL     1       2.749   4.725  20.446  0.00  0.00    +0.000 NA
ATOM      3  C   UNL     1       2.714   3.416  20.759  0.00  0.00    +0.000 A 
ATOM      4  C   UNL     1       1.951   3.001  21.980  0.00  0.00    +0.000 C 
ATOM      5  N   UNL     1       3.310   2.439  20.047  0.00  0.00    +0.000 NA
ATOM      6  C   UNL     1       3.981   2.821  18.940  0.00  0.00    +0.000 A 
ATOM      7  C   UNL     1       4.074   4.128  18.514  0.00  0.00    +0.000 A 
ENDROOT
BRANCH   7   8
ATOM      8  C   UNL     1       4.845   4.524  17.327  0.00  0.00    +0.000 A 
ATOM      9  C   UNL     1       4.614   3.925  16.027  0.00  0.00    +0.000 A 
ATOM     10  C   UNL     1       5.441   4.175  15.006  0.00  0.00    +0.000 A 
ATOM     11  N   UNL     1       6.521   5.026  15.160  0.00  0.00    +0.000 N 
ATOM     12  C   UNL     1       6.762   5.711  16.347  0.00  0.00    +0.000 A 
ATOM     13  O   UNL     1       7.684   6.504  16.510  0.00  0.00    +0.000 OA
ATOM     14  C   UNL     1       5.853   5.399  17.483  0.00  0.00    +0.000 A 
BRANCH  11  15
ATOM     15  C   UNL     1       7.456   5.228  14.053  0.00  0.00    +0.000 C 
BRANCH  15  16
ATOM     16  C   UNL     1       7.152   4.397  12.879  0.00  0.00    +0.000 C 
ATOM     17  N   UNL     1       6.935   3.772  11.923  0.00  0.00    +0.000 NA
ENDBRANCH  15  16
ENDBRANCH  11  15
ENDBRANCH   7   8
BRANCH   1  18
ATOM     18  O   UNL     1       3.464   6.366  18.911  0.00  0.00    +0.000 OA
BRANCH  18  19
ATOM     19  C   UNL     1       2.298   6.798  18.216  0.00  0.00    +0.000 C 
BRANCH  19  22
ATOM     20  C   UNL     1       1.085   9.099  17.829  0.00  0.00    +0.000 C 
ATOM     21  C   UNL     1       2.579   9.350  17.761  0.00  0.00    +0.000 C 
ATOM     22  C   UNL     1       2.055   8.226  18.609  0.00  0.00    +0.000 C 
BRANCH  20  27
ATOM     23  C   UNL     1      -2.241  12.720  20.867  0.00  0.00    +0.000 C 
ATOM     24  C   UNL     1      -1.400  11.836  20.002  0.00  0.00    +0.000 A 
ATOM     25  C   UNL     1      -1.914  11.202  18.874  0.00  0.00    +0.000 A 
ATOM     26  C   UNL     1      -1.102  10.335  18.143  0.00  0.00    +0.000 A 
ATOM     27  C   UNL     1       0.211  10.097  18.552  0.00  0.00    +0.000 A 
ATOM     28  N   UNL     1       0.731  10.747  19.624  0.00  0.00    +0.000 NA
ATOM     29  C   UNL     1      -0.072  11.588  20.317  0.00  0.00    +0.000 A 
ENDBRANCH  20  27
ENDBRANCH  19  22
ENDBRANCH  18  19
ENDBRANCH   1  18
TORSDOF 7
ENDMDL
MODEL 9
REMARK VINA RESULT:      -7.1      3.655      6.787
REMARK  Name = 
REMARK  9 active torsions:
REMARK  status: ('A' for Active; 'I' for Inactive)
REMARK    1  A    between atoms: C_1  and  C_2
REMARK    2  A    between atoms: C_5  and  C_6
REMARK    3  A    between atoms: C_8  and  C_9
REMARK    4  A    between atoms: C_9  and  O_10
REMARK    5  A    between atoms: O_10  and  C_11
REMARK    6  A    between atoms: C_13  and  C_14
REMARK    7  A    between atoms: C_17  and  C_18
REMARK    8  A    between atoms: N_21  and  C_22
REMARK    9  A    between atoms: C_22  and  C_23
REMARK                            x       y       z     vdW  Elec       q    Type
REMARK                         _______ _______ _______ _____ _____    ______ ____
ROOT
ATOM      1  C   UNL     1       6.809   5.571  15.751  0.00  0.00    +0.000 A 
ATOM      2  N   UNL     1       7.445   5.516  14.565  0.00  0.00    +0.000 NA
ATOM      3  C   UNL     1       6.932   4.661  13.660  0.00  0.00    +0.000 A 
ATOM      4  C   UNL     1       7.615   4.543  12.331  0.00  0.00    +0.000 C 
ATOM      5  N   UNL     1       5.846   3.888  13.862  0.00  0.00    +0.000 NA
ATOM      6  C   UNL     1       5.248   3.988  15.067  0.00  0.00    +0.000 A 
ATOM      7  C   UNL     1       5.691   4.817  16.074  0.00  0.00    +0.000 A 
ENDROOT
BRANCH   7   8
ATOM      8  C   UNL     1       4.999   4.940  17.365  0.00  0.00    +0.000 A 
ATOM      9  C   UNL     1       5.297   4.065  18.483  0.00  0.00    +0.000 A 
ATOM     10  C   UNL     1       4.537   4.082  19.582  0.00  0.00    +0.000 A 
ATOM     11  N   UNL     1       3.462   4.948  19.689  0.00  0.00    +0.000 N 
ATOM     12  C   UNL     1       3.162   5.881  18.701  0.00  0.00    +0.000 A 
ATOM     13  O   UNL     1       2.244   6.692  18.776  0.00  0.00    +0.000 OA
ATOM     14  C   UNL     1       3.997   5.829  17.471  0.00  0.00    +0.000 A 
BRANCH  11  15
ATOM     15  C   UNL     1       2.598   4.899  20.869  0.00  0.00    +0.000 C 
BRANCH  15  16
ATOM     16  C   UNL     1       1.707   3.730  20.886  0.00  0.00    +0.000 C 
ATOM     17  N   UNL     1       0.996   2.811  20.852  0.00  0.00    +0.000 NA
ENDBRANCH  15  16
ENDBRANCH  11  15
ENDBRANCH   7   8
BRANCH   1  18
ATOM     18  O   UNL     1       7.311   6.385  16.753  0.00  0.00    +0.000 OA
BRANCH  18  19
ATOM     19  C   UNL     1       6.867   7.737  16.697  0.00  0.00    +0.000 C 
BRANCH  19  22
ATOM     20  C   UNL     1       8.777   9.061  17.927  0.00  0.00    +0.000 C 
ATOM     21  C   UNL     1       8.502   7.803  18.727  0.00  0.00    +0.000 C 
ATOM     22  C   UNL     1       7.397   8.425  17.921  0.00  0.00    +0.000 C 
BRANCH  20  27
ATOM     23  C   UNL     1       9.404  13.957  20.934  0.00  0.00    +0.000 C 
ATOM     24  C   UNL     1       9.315  12.720  20.098  0.00  0.00    +0.000 A 
ATOM     25  C   UNL     1       9.106  12.772  18.723  0.00  0.00    +0.000 A 
ATOM     26  C   UNL     1       8.963  11.585  18.004  0.00  0.00    +0.000 A 
ATOM     27  C   UNL     1       9.014  10.358  18.666  0.00  0.00    +0.000 A 
ATOM     28  N   UNL     1       9.262  10.299  19.999  0.00  0.00    +0.000 NA
ATOM     29  C   UNL     1       9.403  11.463  20.678  0.00  0.00    +0.000 A 
ENDBRANCH  20  27
ENDBRANCH  19  22
ENDBRANCH  18  19
ENDBRANCH   1  18
TORSDOF 7
ENDMDL
