MODEL 1
REMARK VINA RESULT:      -6.6      0.000      0.000
REMARK  Name = 
REMARK  3 active torsions:
REMARK  status: ('A' for Active; 'I' for Inactive)
REMARK    1  A    between atoms: C_1  and  C_2
REMARK    2  A    between atoms: C_5  and  C_7
REMARK    3  A    between atoms: N_19  and  C_20
REMARK                            x       y       z     vdW  Elec       q    Type
REMARK                         _______ _______ _______ _____ _____    ______ ____
ROOT
ATOM      1  C   UNL     1      -1.948  11.826  17.478  0.00  0.00    +0.000 C 
ATOM      2  C   UNL     1      -2.322  11.796  18.962  0.00  0.00    +0.000 C 
ATOM      3  C   UNL     1      -3.832  11.523  19.407  0.00  0.00    +0.000 C 
ATOM      4  N   UNL     1      -4.963  12.543  19.452  0.00  0.00    +0.000 N 
ATOM      5  C   UNL     1      -6.325  12.187  19.332  0.00  0.00    +0.000 C 
ATOM      6  O   UNL     1      -7.212  12.755  19.969  0.00  0.00    +0.000 OA
ATOM      7  C   UNL     1      -4.832  13.841  20.134  0.00  0.00    +0.000 C 
ATOM      8  C   UNL     1      -4.452  13.754  21.563  0.00  0.00    +0.000 A 
ATOM      9  C   UNL     1      -5.027  13.223  22.732  0.00  0.00    +0.000 A 
ATOM     10  N   UNL     1      -4.206  13.327  23.796  0.00  0.00    +0.000 NA
ATOM     11  N   UNL     1      -3.074  13.911  23.309  0.00  0.00    +0.000 N 
ATOM     12  C   UNL     1      -1.795  14.047  23.865  0.00  0.00    +0.000 A 
ATOM     13  C   UNL     1      -0.758  14.423  23.080  0.00  0.00    +0.000 A 
ATOM     14  C   UNL     1      -1.079  14.647  21.615  0.00  0.00    +0.000 A 
ATOM     15  N   UNL     1      -2.305  14.767  21.197  0.00  0.00    +0.000 NA
ATOM     16  C   UNL     1      -3.265  14.271  21.992  0.00  0.00    +0.000 A 
ATOM     17  N   UNL     1      -0.149  14.619  20.592  0.00  0.00    +0.000 N 
ATOM     18  C   UNL     1      -0.513  15.365  19.360  0.00  0.00    +0.000 C 
ATOM     19  C   UNL     1       0.546  13.341  20.302  0.00  0.00    +0.000 C 
ATOM     20  C   UNL     1      -0.100  12.013  20.705  0.00  0.00    +0.000 A 
ATOM     21  C   UNL     1      -0.482  11.598  21.973  0.00  0.00    +0.000 A 
ATOM     22  C   UNL     1      -0.268  10.295  22.415  0.00  0.00    +0.000 A 
ATOM     23  F   UNL     1      -0.656   9.950  23.646  0.00  0.00    +0.000 F 
ATOM     24  C   UNL     1       0.358   9.388  21.590  0.00  0.00    +0.000 A 
ATOM     25  C   UNL     1       0.459   9.734  20.247  0.00  0.00    +0.000 A 
ATOM     26  C   UNL     1      -0.115  10.954  19.813  0.00  0.00    +0.000 A 
ATOM     27  O   UNL     1      -1.507  10.657  19.440  0.00  0.00    +0.000 OA
ENDROOT
BRANCH   5  28
ATOM     28  C   UNL     1      -6.740  11.095  18.376  0.00  0.00    +0.000 C 
ATOM     29 CL   UNL     1      -6.968   9.550  19.210  0.00  0.00    +0.000 Cl
ENDBRANCH   5  28
TORSDOF 1
ENDMDL
MODEL 2
REMARK VINA RESULT:      -6.1      8.447     10.484
REMARK  Name = 
REMARK  3 active torsions:
REMARK  status: ('A' for Active; 'I' for Inactive)
REMARK    1  A    between atoms: C_1  and  C_2
REMARK    2  A    between atoms: C_5  and  C_7
REMARK    3  A    between atoms: N_19  and  C_20
REMARK                            x       y       z     vdW  Elec       q    Type
REMARK                         _______ _______ _______ _____ _____    ______ ____
ROOT
ATOM      1  C   UNL     1       8.616  16.238  17.838  0.00  0.00    +0.000 C 
ATOM      2  C   UNL     1       8.036  15.247  18.851  0.00  0.00    +0.000 C 
ATOM      3  C   UNL     1       6.481  14.878  18.818  0.00  0.00    +0.000 C 
ATOM      4  N   UNL     1       5.343  15.694  19.418  0.00  0.00    +0.000 N 
ATOM      5  C   UNL     1       4.016  15.633  18.936  0.00  0.00    +0.000 C 
ATOM      6  O   UNL     1       3.041  15.696  19.684  0.00  0.00    +0.000 OA
ATOM      7  C   UNL     1       5.360  16.173  20.809  0.00  0.00    +0.000 C 
ATOM      8  C   UNL     1       5.535  15.112  21.828  0.00  0.00    +0.000 A 
ATOM      9  C   UNL     1       4.807  13.984  22.249  0.00  0.00    +0.000 A 
ATOM     10  N   UNL     1       5.469  13.271  23.182  0.00  0.00    +0.000 NA
ATOM     11  N   UNL     1       6.651  13.928  23.354  0.00  0.00    +0.000 N 
ATOM     12  C   UNL     1       7.836  13.541  23.992  0.00  0.00    +0.000 A 
ATOM     13  C   UNL     1       8.969  14.257  23.795  0.00  0.00    +0.000 A 
ATOM     14  C   UNL     1       8.856  15.437  22.852  0.00  0.00    +0.000 A 
ATOM     15  N   UNL     1       7.699  15.914  22.493  0.00  0.00    +0.000 NA
ATOM     16  C   UNL     1       6.643  15.098  22.623  0.00  0.00    +0.000 A 
ATOM     17  N   UNL     1       9.921  16.026  22.196  0.00  0.00    +0.000 N 
ATOM     18  C   UNL     1       9.725  17.437  21.770  0.00  0.00    +0.000 C 
ATOM     19  C   UNL     1      10.666  15.225  21.193  0.00  0.00    +0.000 C 
ATOM     20  C   UNL     1       9.986  14.036  20.510  0.00  0.00    +0.000 A 
ATOM     21  C   UNL     1       9.434  12.910  21.103  0.00  0.00    +0.000 A 
ATOM     22  C   UNL     1       9.600  11.638  20.560  0.00  0.00    +0.000 A 
ATOM     23  F   UNL     1       9.046  10.588  21.174  0.00  0.00    +0.000 F 
ATOM     24  C   UNL     1      10.347  11.475  19.416  0.00  0.00    +0.000 A 
ATOM     25  C   UNL     1      10.633  12.626  18.690  0.00  0.00    +0.000 A 
ATOM     26  C   UNL     1      10.111  13.864  19.141  0.00  0.00    +0.000 A 
ATOM     27  O   UNL     1       8.790  14.019  18.513  0.00  0.00    +0.000 OA
ENDROOT
BRANCH   5  28
ATOM     28  C   UNL     1       3.754  15.514  17.454  0.00  0.00    +0.000 C 
ATOM     29 CL   UNL     1       2.935  16.950  16.820  0.00  0.00    +0.000 Cl
ENDBRANCH   5  28
TORSDOF 1
ENDMDL
MODEL 3
REMARK VINA RESULT:      -5.9      3.089      5.075
REMARK  Name = 
REMARK  3 active torsions:
REMARK  status: ('A' for Active; 'I' for Inactive)
REMARK    1  A    between atoms: C_1  and  C_2
REMARK    2  A    between atoms: C_5  and  C_7
REMARK    3  A    between atoms: N_19  and  C_20
REMARK                            x       y       z     vdW  Elec       q    Type
REMARK                         _______ _______ _______ _____ _____    ______ ____
ROOT
ATOM      1  C   UNL     1      -1.684  14.766  20.119  0.00  0.00    +0.000 C 
ATOM      2  C   UNL     1      -2.727  13.744  20.579  0.00  0.00    +0.000 C 
ATOM      3  C   UNL     1      -2.716  12.260  19.988  0.00  0.00    +0.000 C 
ATOM      4  N   UNL     1      -3.302  11.809  18.656  0.00  0.00    +0.000 N 
ATOM      5  C   UNL     1      -2.832  10.677  17.952  0.00  0.00    +0.000 C 
ATOM      6  O   UNL     1      -3.585   9.931  17.327  0.00  0.00    +0.000 OA
ATOM      7  C   UNL     1      -4.680  12.128  18.250  0.00  0.00    +0.000 C 
ATOM      8  C   UNL     1      -5.725  11.683  19.201  0.00  0.00    +0.000 A 
ATOM      9  C   UNL     1      -6.181  10.449  19.698  0.00  0.00    +0.000 A 
ATOM     10  N   UNL     1      -7.128  10.600  20.645  0.00  0.00    +0.000 NA
ATOM     11  N   UNL     1      -7.273  11.949  20.783  0.00  0.00    +0.000 N 
ATOM     12  C   UNL     1      -7.913  12.710  21.770  0.00  0.00    +0.000 A 
ATOM     13  C   UNL     1      -7.689  14.044  21.838  0.00  0.00    +0.000 A 
ATOM     14  C   UNL     1      -6.716  14.609  20.824  0.00  0.00    +0.000 A 
ATOM     15  N   UNL     1      -6.352  13.929  19.776  0.00  0.00    +0.000 NA
ATOM     16  C   UNL     1      -6.513  12.598  19.835  0.00  0.00    +0.000 A 
ATOM     17  N   UNL     1      -6.036  15.805  20.965  0.00  0.00    +0.000 N 
ATOM     18  C   UNL     1      -5.575  16.446  19.706  0.00  0.00    +0.000 C 
ATOM     19  C   UNL     1      -5.050  15.934  22.066  0.00  0.00    +0.000 C 
ATOM     20  C   UNL     1      -4.404  14.681  22.661  0.00  0.00    +0.000 A 
ATOM     21  C   UNL     1      -5.030  13.594  23.255  0.00  0.00    +0.000 A 
ATOM     22  C   UNL     1      -4.520  12.989  24.401  0.00  0.00    +0.000 A 
ATOM     23  F   UNL     1      -5.165  11.945  24.931  0.00  0.00    +0.000 F 
ATOM     24  C   UNL     1      -3.375  13.483  24.983  0.00  0.00    +0.000 A 
ATOM     25  C   UNL     1      -2.616  14.362  24.218  0.00  0.00    +0.000 A 
ATOM     26  C   UNL     1      -3.039  14.654  22.897  0.00  0.00    +0.000 A 
ATOM     27  O   UNL     1      -2.416  13.649  22.023  0.00  0.00    +0.000 OA
ENDROOT
BRANCH   5  28
ATOM     28  C   UNL     1      -1.355  10.364  17.925  0.00  0.00    +0.000 C 
ATOM     29 CL   UNL     1      -0.740   9.986  19.542  0.00  0.00    +0.000 Cl
ENDBRANCH   5  28
TORSDOF 1
ENDMDL
MODEL 4
REMARK VINA RESULT:      -5.8      4.072      7.038
REMARK  Name = 
REMARK  3 active torsions:
REMARK  status: ('A' for Active; 'I' for Inactive)
REMARK    1  A    between atoms: C_1  and  C_2
REMARK    2  A    between atoms: C_5  and  C_7
REMARK    3  A    between atoms: N_19  and  C_20
REMARK                            x       y       z     vdW  Elec       q    Type
REMARK                         _______ _______ _______ _____ _____    ______ ____
ROOT
ATOM      1  C   UNL     1      -1.994  15.230  21.178  0.00  0.00    +0.000 C 
ATOM      2  C   UNL     1      -0.842  15.200  20.170  0.00  0.00    +0.000 C 
ATOM      3  C   UNL     1      -0.509  13.860  19.366  0.00  0.00    +0.000 C 
ATOM      4  N   UNL     1       0.302  12.675  19.873  0.00  0.00    +0.000 N 
ATOM      5  C   UNL     1       0.135  11.361  19.381  0.00  0.00    +0.000 C 
ATOM      6  O   UNL     1       1.081  10.587  19.235  0.00  0.00    +0.000 OA
ATOM      7  C   UNL     1       1.636  12.829  20.476  0.00  0.00    +0.000 C 
ATOM      8  C   UNL     1       2.626  13.524  19.621  0.00  0.00    +0.000 A 
ATOM      9  C   UNL     1       3.240  13.277  18.380  0.00  0.00    +0.000 A 
ATOM     10  N   UNL     1       4.026  14.301  17.988  0.00  0.00    +0.000 NA
ATOM     11  N   UNL     1       3.902  15.234  18.974  0.00  0.00    +0.000 N 
ATOM     12  C   UNL     1       4.270  16.586  19.015  0.00  0.00    +0.000 A 
ATOM     13  C   UNL     1       3.797  17.380  20.004  0.00  0.00    +0.000 A 
ATOM     14  C   UNL     1       2.862  16.722  20.998  0.00  0.00    +0.000 A 
ATOM     15  N   UNL     1       2.756  15.427  21.080  0.00  0.00    +0.000 NA
ATOM     16  C   UNL     1       3.151  14.721  20.010  0.00  0.00    +0.000 A 
ATOM     17  N   UNL     1       1.962  17.398  21.800  0.00  0.00    +0.000 N 
ATOM     18  C   UNL     1       1.541  16.699  23.042  0.00  0.00    +0.000 C 
ATOM     19  C   UNL     1       0.846  18.131  21.152  0.00  0.00    +0.000 C 
ATOM     20  C   UNL     1       0.377  17.723  19.753  0.00  0.00    +0.000 A 
ATOM     21  C   UNL     1       1.120  17.674  18.582  0.00  0.00    +0.000 A 
ATOM     22  C   UNL     1       0.599  18.106  17.364  0.00  0.00    +0.000 A 
ATOM     23  F   UNL     1       1.359  18.037  16.267  0.00  0.00    +0.000 F 
ATOM     24  C   UNL     1      -0.678  18.617  17.309  0.00  0.00    +0.000 A 
ATOM     25  C   UNL     1      -1.491  18.382  18.413  0.00  0.00    +0.000 A 
ATOM     26  C   UNL     1      -0.977  17.611  19.485  0.00  0.00    +0.000 A 
ATOM     27  O   UNL     1      -1.297  16.207  19.186  0.00  0.00    +0.000 OA
ENDROOT
BRANCH   5  28
ATOM     28  C   UNL     1      -1.244  10.851  19.040  0.00  0.00    +0.000 C 
ATOM     29 CL   UNL     1      -1.252   9.966  17.507  0.00  0.00    +0.000 Cl
ENDBRANCH   5  28
TORSDOF 1
ENDMDL
MODEL 5
REMARK VINA RESULT:      -5.8      3.154      6.156
REMARK  Name = 
REMARK  3 active torsions:
REMARK  status: ('A' for Active; 'I' for Inactive)
REMARK    1  A    between atoms: C_1  and  C_2
REMARK    2  A    between atoms: C_5  and  C_7
REMARK    3  A    between atoms: N_19  and  C_20
REMARK                            x       y       z     vdW  Elec       q    Type
REMARK                         _______ _______ _______ _____ _____    ______ ____
ROOT
ATOM      1  C   UNL     1      -4.469  12.316  24.806  0.00  0.00    +0.000 C 
ATOM      2  C   UNL     1      -4.060  12.833  23.425  0.00  0.00    +0.000 C 
ATOM      3  C   UNL     1      -2.889  12.114  22.609  0.00  0.00    +0.000 C 
ATOM      4  N   UNL     1      -1.392  12.321  22.798  0.00  0.00    +0.000 N 
ATOM      5  C   UNL     1      -0.432  11.338  22.467  0.00  0.00    +0.000 C 
ATOM      6  O   UNL     1       0.665  11.625  21.987  0.00  0.00    +0.000 OA
ATOM      7  C   UNL     1      -0.773  13.656  22.813  0.00  0.00    +0.000 C 
ATOM      8  C   UNL     1      -1.037  14.475  21.606  0.00  0.00    +0.000 A 
ATOM      9  C   UNL     1      -0.743  14.378  20.234  0.00  0.00    +0.000 A 
ATOM     10  N   UNL     1      -1.308  15.373  19.521  0.00  0.00    +0.000 NA
ATOM     11  N   UNL     1      -1.998  16.112  20.436  0.00  0.00    +0.000 N 
ATOM     12  C   UNL     1      -2.971  17.106  20.272  0.00  0.00    +0.000 A 
ATOM     13  C   UNL     1      -3.710  17.503  21.335  0.00  0.00    +0.000 A 
ATOM     14  C   UNL     1      -3.427  16.797  22.646  0.00  0.00    +0.000 A 
ATOM     15  N   UNL     1      -2.354  16.080  22.815  0.00  0.00    +0.000 NA
ATOM     16  C   UNL     1      -1.742  15.638  21.705  0.00  0.00    +0.000 A 
ATOM     17  N   UNL     1      -4.304  16.733  23.712  0.00  0.00    +0.000 N 
ATOM     18  C   UNL     1      -3.693  16.495  25.046  0.00  0.00    +0.000 C 
ATOM     19  C   UNL     1      -5.585  16.006  23.533  0.00  0.00    +0.000 C 
ATOM     20  C   UNL     1      -5.704  14.926  22.455  0.00  0.00    +0.000 A 
ATOM     21  C   UNL     1      -5.506  15.055  21.088  0.00  0.00    +0.000 A 
ATOM     22  C   UNL     1      -6.339  14.432  20.163  0.00  0.00    +0.000 A 
ATOM     23  F   UNL     1      -6.102  14.591  18.858  0.00  0.00    +0.000 F 
ATOM     24  C   UNL     1      -7.406  13.680  20.601  0.00  0.00    +0.000 A 
ATOM     25  C   UNL     1      -7.408  13.326  21.946  0.00  0.00    +0.000 A 
ATOM     26  C   UNL     1      -6.312  13.717  22.754  0.00  0.00    +0.000 A 
ATOM     27  O   UNL     1      -5.314  12.640  22.664  0.00  0.00    +0.000 OA
ENDROOT
BRANCH   5  28
ATOM     28  C   UNL     1      -0.722   9.880  22.725  0.00  0.00    +0.000 C 
ATOM     29 CL   UNL     1      -0.069   8.848  21.443  0.00  0.00    +0.000 Cl
ENDBRANCH   5  28
TORSDOF 1
ENDMDL
MODEL 6
REMARK VINA RESULT:      -5.7      9.849     12.139
REMARK  Name = 
REMARK  3 active torsions:
REMARK  status: ('A' for Active; 'I' for Inactive)
REMARK    1  A    between atoms: C_1  and  C_2
REMARK    2  A    between atoms: C_5  and  C_7
REMARK    3  A    between atoms: N_19  and  C_20
REMARK                            x       y       z     vdW  Elec       q    Type
REMARK                         _______ _______ _______ _____ _____    ______ ____
ROOT
ATOM      1  C   UNL     1       6.940  16.641  22.743  0.00  0.00    +0.000 C 
ATOM      2  C   UNL     1       7.159  15.390  21.889  0.00  0.00    +0.000 C 
ATOM      3  C   UNL     1       6.925  13.938  22.513  0.00  0.00    +0.000 C 
ATOM      4  N   UNL     1       7.903  13.153  23.377  0.00  0.00    +0.000 N 
ATOM      5  C   UNL     1       7.493  12.172  24.308  0.00  0.00    +0.000 C 
ATOM      6  O   UNL     1       8.137  11.142  24.507  0.00  0.00    +0.000 OA
ATOM      7  C   UNL     1       9.304  12.929  22.983  0.00  0.00    +0.000 C 
ATOM      8  C   UNL     1       9.480  12.275  21.665  0.00  0.00    +0.000 A 
ATOM      9  C   UNL     1       9.145  11.031  21.101  0.00  0.00    +0.000 A 
ATOM     10  N   UNL     1       9.457  10.965  19.791  0.00  0.00    +0.000 NA
ATOM     11  N   UNL     1       9.979  12.190  19.494  0.00  0.00    +0.000 N 
ATOM     12  C   UNL     1      10.248  12.802  18.262  0.00  0.00    +0.000 A 
ATOM     13  C   UNL     1      10.511  14.130  18.217  0.00  0.00    +0.000 A 
ATOM     14  C   UNL     1      10.466  14.864  19.542  0.00  0.00    +0.000 A 
ATOM     15  N   UNL     1      10.475  14.225  20.676  0.00  0.00    +0.000 NA
ATOM     16  C   UNL     1      10.098  12.937  20.646  0.00  0.00    +0.000 A 
ATOM     17  N   UNL     1      10.286  16.227  19.682  0.00  0.00    +0.000 N 
ATOM     18  C   UNL     1      10.794  16.826  20.944  0.00  0.00    +0.000 C 
ATOM     19  C   UNL     1       8.997  16.820  19.247  0.00  0.00    +0.000 C 
ATOM     20  C   UNL     1       7.742  15.947  19.174  0.00  0.00    +0.000 A 
ATOM     21  C   UNL     1       7.545  14.794  18.427  0.00  0.00    +0.000 A 
ATOM     22  C   UNL     1       6.346  14.545  17.763  0.00  0.00    +0.000 A 
ATOM     23  F   UNL     1       6.211  13.419  17.058  0.00  0.00    +0.000 F 
ATOM     24  C   UNL     1       5.327  15.469  17.824  0.00  0.00    +0.000 A 
ATOM     25  C   UNL     1       5.435  16.453  18.801  0.00  0.00    +0.000 A 
ATOM     26  C   UNL     1       6.544  16.418  19.683  0.00  0.00    +0.000 A 
ATOM     27  O   UNL     1       6.145  15.586  20.829  0.00  0.00    +0.000 OA
ENDROOT
BRANCH   5  28
ATOM     28  C   UNL     1       6.238  12.381  25.121  0.00  0.00    +0.000 C 
ATOM     29 CL   UNL     1       5.950  11.032  26.231  0.00  0.00    +0.000 Cl
ENDBRANCH   5  28
TORSDOF 1
ENDMDL
MODEL 7
REMARK VINA RESULT:      -5.7     10.631     13.258
REMARK  Name = 
REMARK  3 active torsions:
REMARK  status: ('A' for Active; 'I' for Inactive)
REMARK    1  A    between atoms: C_1  and  C_2
REMARK    2  A    between atoms: C_5  and  C_7
REMARK    3  A    between atoms: N_19  and  C_20
REMARK                            x       y       z     vdW  Elec       q    Type
REMARK                         _______ _______ _______ _____ _____    ______ ____
ROOT
ATOM      1  C   UNL     1       8.544  13.531  23.132  0.00  0.00    +0.000 C 
ATOM      2  C   UNL     1       8.587  14.126  21.722  0.00  0.00    +0.000 C 
ATOM      3  C   UNL     1       8.855  13.185  20.458  0.00  0.00    +0.000 C 
ATOM      4  N   UNL     1      10.209  12.692  19.965  0.00  0.00    +0.000 N 
ATOM      5  C   UNL     1      10.371  11.500  19.224  0.00  0.00    +0.000 C 
ATOM      6  O   UNL     1      11.191  11.398  18.312  0.00  0.00    +0.000 OA
ATOM      7  C   UNL     1      11.343  13.600  19.727  0.00  0.00    +0.000 C 
ATOM      8  C   UNL     1      11.065  14.703  18.779  0.00  0.00    +0.000 A 
ATOM      9  C   UNL     1      10.726  14.805  17.418  0.00  0.00    +0.000 A 
ATOM     10  N   UNL     1      10.484  16.079  17.048  0.00  0.00    +0.000 NA
ATOM     11  N   UNL     1      10.643  16.811  18.187  0.00  0.00    +0.000 N 
ATOM     12  C   UNL     1      10.287  18.132  18.490  0.00  0.00    +0.000 A 
ATOM     13  C   UNL     1      10.300  18.551  19.778  0.00  0.00    +0.000 A 
ATOM     14  C   UNL     1      10.687  17.514  20.813  0.00  0.00    +0.000 A 
ATOM     15  N   UNL     1      11.256  16.393  20.475  0.00  0.00    +0.000 NA
ATOM     16  C   UNL     1      11.104  15.999  19.201  0.00  0.00    +0.000 A 
ATOM     17  N   UNL     1      10.371  17.586  22.157  0.00  0.00    +0.000 N 
ATOM     18  C   UNL     1      11.250  16.817  23.075  0.00  0.00    +0.000 C 
ATOM     19  C   UNL     1       8.942  17.530  22.553  0.00  0.00    +0.000 C 
ATOM     20  C   UNL     1       7.918  16.876  21.621  0.00  0.00    +0.000 A 
ATOM     21  C   UNL     1       7.614  17.217  20.311  0.00  0.00    +0.000 A 
ATOM     22  C   UNL     1       6.303  17.231  19.841  0.00  0.00    +0.000 A 
ATOM     23  F   UNL     1       6.068  17.567  18.570  0.00  0.00    +0.000 F 
ATOM     24  C   UNL     1       5.268  16.922  20.694  0.00  0.00    +0.000 A 
ATOM     25  C   UNL     1       5.612  16.307  21.894  0.00  0.00    +0.000 A 
ATOM     26  C   UNL     1       6.974  16.004  22.138  0.00  0.00    +0.000 A 
ATOM     27  O   UNL     1       7.212  14.658  21.594  0.00  0.00    +0.000 OA
ENDROOT
BRANCH   5  28
ATOM     28  C   UNL     1       9.542  10.284  19.559  0.00  0.00    +0.000 C 
ATOM     29 CL   UNL     1       8.603   9.731  18.163  0.00  0.00    +0.000 Cl
ENDBRANCH   5  28
TORSDOF 1
ENDMDL
MODEL 8
REMARK VINA RESULT:      -5.7      2.560      5.542
REMARK  Name = 
REMARK  3 active torsions:
REMARK  status: ('A' for Active; 'I' for Inactive)
REMARK    1  A    between atoms: C_1  and  C_2
REMARK    2  A    between atoms: C_5  and  C_7
REMARK    3  A    between atoms: N_19  and  C_20
REMARK                            x       y       z     vdW  Elec       q    Type
REMARK                         _______ _______ _______ _____ _____    ______ ____
ROOT
ATOM      1  C   UNL     1      -5.567  12.036  20.389  0.00  0.00    +0.000 C 
ATOM      2  C   UNL     1      -4.334  12.920  20.592  0.00  0.00    +0.000 C 
ATOM      3  C   UNL     1      -2.995  12.640  19.766  0.00  0.00    +0.000 C 
ATOM      4  N   UNL     1      -1.931  11.599  20.090  0.00  0.00    +0.000 N 
ATOM      5  C   UNL     1      -1.085  11.033  19.109  0.00  0.00    +0.000 C 
ATOM      6  O   UNL     1       0.094  10.762  19.334  0.00  0.00    +0.000 OA
ATOM      7  C   UNL     1      -1.318  11.482  21.423  0.00  0.00    +0.000 C 
ATOM      8  C   UNL     1      -0.683  12.723  21.924  0.00  0.00    +0.000 A 
ATOM      9  C   UNL     1       0.389  13.543  21.527  0.00  0.00    +0.000 A 
ATOM     10  N   UNL     1       0.502  14.643  22.299  0.00  0.00    +0.000 NA
ATOM     11  N   UNL     1      -0.524  14.550  23.193  0.00  0.00    +0.000 N 
ATOM     12  C   UNL     1      -1.070  15.497  24.070  0.00  0.00    +0.000 A 
ATOM     13  C   UNL     1      -2.262  15.253  24.663  0.00  0.00    +0.000 A 
ATOM     14  C   UNL     1      -2.934  13.946  24.295  0.00  0.00    +0.000 A 
ATOM     15  N   UNL     1      -2.285  12.991  23.694  0.00  0.00    +0.000 NA
ATOM     16  C   UNL     1      -1.167  13.341  23.040  0.00  0.00    +0.000 A 
ATOM     17  N   UNL     1      -4.285  13.688  24.434  0.00  0.00    +0.000 N 
ATOM     18  C   UNL     1      -4.668  12.256  24.544  0.00  0.00    +0.000 C 
ATOM     19  C   UNL     1      -5.244  14.474  23.619  0.00  0.00    +0.000 C 
ATOM     20  C   UNL     1      -4.781  15.125  22.314  0.00  0.00    +0.000 A 
ATOM     21  C   UNL     1      -3.761  16.049  22.133  0.00  0.00    +0.000 A 
ATOM     22  C   UNL     1      -3.897  17.133  21.269  0.00  0.00    +0.000 A 
ATOM     23  F   UNL     1      -2.883  17.992  21.134  0.00  0.00    +0.000 F 
ATOM     24  C   UNL     1      -5.077  17.317  20.584  0.00  0.00    +0.000 A 
ATOM     25  C   UNL     1      -5.954  16.239  20.552  0.00  0.00    +0.000 A 
ATOM     26  C   UNL     1      -5.566  15.027  21.177  0.00  0.00    +0.000 A 
ATOM     27  O   UNL     1      -4.852  14.238  20.162  0.00  0.00    +0.000 OA
ENDROOT
BRANCH   5  28
ATOM     28  C   UNL     1      -1.627  10.713  17.737  0.00  0.00    +0.000 C 
ATOM     29 CL   UNL     1      -3.025   9.631  17.825  0.00  0.00    +0.000 Cl
ENDBRANCH   5  28
TORSDOF 1
ENDMDL
MODEL 9
REMARK VINA RESULT:      -5.7      3.644      5.845
REMARK  Name = 
REMARK  3 active torsions:
REMARK  status: ('A' for Active; 'I' for Inactive)
REMARK    1  A    between atoms: C_1  and  C_2
REMARK    2  A    between atoms: C_5  and  C_7
REMARK    3  A    between atoms: N_19  and  C_20
REMARK                            x       y       z     vdW  Elec       q    Type
REMARK                         _______ _______ _______ _____ _____    ______ ____
ROOT
ATOM      1  C   UNL     1       2.232  10.786  18.151  0.00  0.00    +0.000 C 
ATOM      2  C   UNL     1       1.154  11.755  18.644  0.00  0.00    +0.000 C 
ATOM      3  C   UNL     1       1.363  13.333  18.500  0.00  0.00    +0.000 C 
ATOM      4  N   UNL     1       2.169  14.230  19.431  0.00  0.00    +0.000 N 
ATOM      5  C   UNL     1       2.754  15.446  19.011  0.00  0.00    +0.000 C 
ATOM      6  O   UNL     1       2.808  16.436  19.740  0.00  0.00    +0.000 OA
ATOM      7  C   UNL     1       1.979  14.230  20.890  0.00  0.00    +0.000 C 
ATOM      8  C   UNL     1       0.594  14.509  21.335  0.00  0.00    +0.000 A 
ATOM      9  C   UNL     1      -0.300  15.590  21.241  0.00  0.00    +0.000 A 
ATOM     10  N   UNL     1      -1.514  15.293  21.747  0.00  0.00    +0.000 NA
ATOM     11  N   UNL     1      -1.415  13.995  22.153  0.00  0.00    +0.000 N 
ATOM     12  C   UNL     1      -2.399  13.067  22.522  0.00  0.00    +0.000 A 
ATOM     13  C   UNL     1      -2.080  11.756  22.624  0.00  0.00    +0.000 A 
ATOM     14  C   UNL     1      -0.645  11.391  22.297  0.00  0.00    +0.000 A 
ATOM     15  N   UNL     1       0.287  12.296  22.219  0.00  0.00    +0.000 NA
ATOM     16  C   UNL     1      -0.115  13.560  22.010  0.00  0.00    +0.000 A 
ATOM     17  N   UNL     1      -0.217  10.128  21.934  0.00  0.00    +0.000 N 
ATOM     18  C   UNL     1       1.220   9.833  22.176  0.00  0.00    +0.000 C 
ATOM     19  C   UNL     1      -0.712   9.551  20.660  0.00  0.00    +0.000 C 
ATOM     20  C   UNL     1      -1.207  10.476  19.545  0.00  0.00    +0.000 A 
ATOM     21  C   UNL     1      -2.230  11.412  19.601  0.00  0.00    +0.000 A 
ATOM     22  C   UNL     1      -3.130  11.580  18.552  0.00  0.00    +0.000 A 
ATOM     23  F   UNL     1      -4.097  12.495  18.659  0.00  0.00    +0.000 F 
ATOM     24  C   UNL     1      -3.026  10.789  17.429  0.00  0.00    +0.000 A 
ATOM     25  C   UNL     1      -1.839  10.082  17.273  0.00  0.00    +0.000 A 
ATOM     26  C   UNL     1      -0.814  10.251  18.237  0.00  0.00    +0.000 A 
ATOM     27  O   UNL     1       0.014  11.378  17.780  0.00  0.00    +0.000 OA
ENDROOT
BRANCH   5  28
ATOM     28  C   UNL     1       3.365  15.556  17.636  0.00  0.00    +0.000 C 
ATOM     29 CL   UNL     1       2.893  17.060  16.830  0.00  0.00    +0.000 Cl
ENDBRANCH   5  28
TORSDOF 1
ENDMDL
