MODEL 1
REMARK VINA RESULT:      -8.1      0.000      0.000
REMARK  Name = 
REMARK  10 active torsions:
REMARK  status: ('A' for Active; 'I' for Inactive)
REMARK    1  A    between atoms: C_1  and  O_2
REMARK    2  A    between atoms: O_2  and  C_3
REMARK    3  A    between atoms: C_5  and  O_6
REMARK    4  A    between atoms: O_6  and  C_7
REMARK    5  A    between atoms: C_9  and  N_10
REMARK    6  A    between atoms: N_10  and  C_11
REMARK    7  A    between atoms: N_10  and  C_17
REMARK    8  A    between atoms: C_11  and  C_12
REMARK    9  A    between atoms: C_23  and  C_24
REMARK   10  A    between atoms: N_27  and  C_28
REMARK                            x       y       z     vdW  Elec       q    Type
REMARK                         _______ _______ _______ _____ _____    ______ ____
ROOT
ATOM      1  N   UNL     1       2.598   6.386  18.180  0.00  0.00    +0.000 N 
ENDROOT
BRANCH   1   2
ATOM      2  C   UNL     1       1.993   7.449  18.907  0.00  0.00    +0.000 A 
ATOM      3  C   UNL     1       1.673   7.268  20.255  0.00  0.00    +0.000 A 
ATOM      4  C   UNL     1       1.322   8.344  21.056  0.00  0.00    +0.000 A 
ATOM      5  C   UNL     1       1.251   9.618  20.541  0.00  0.00    +0.000 A 
ATOM      6  N   UNL     1       1.043  10.589  21.432  0.00  0.00    +0.000 NA
ATOM      7  C   UNL     1       0.970  11.837  20.937  0.00  0.00    +0.000 A 
ATOM      8  C   UNL     1       1.036  12.131  19.584  0.00  0.00    +0.000 A 
ATOM      9  N   UNL     1       1.260  11.138  18.670  0.00  0.00    +0.000 NA
ATOM     10  C   UNL     1       1.410   9.857  19.152  0.00  0.00    +0.000 A 
ATOM     11  C   UNL     1       1.768   8.739  18.360  0.00  0.00    +0.000 A 
BRANCH   8  12
ATOM     12  C   UNL     1       0.808  13.502  19.139  0.00  0.00    +0.000 A 
ATOM     13  C   UNL     1      -0.375  14.261  18.988  0.00  0.00    +0.000 A 
ATOM     14  N   UNL     1      -0.147  15.542  18.653  0.00  0.00    +0.000 NA
ATOM     15  N   UNL     1       1.195  15.616  18.596  0.00  0.00    +0.000 N 
ATOM     16  C   UNL     1       1.861  16.875  18.353  0.00  0.00    +0.000 C 
ATOM     17  C   UNL     1       1.808  14.421  18.847  0.00  0.00    +0.000 A 
ENDBRANCH   8  12
ENDBRANCH   1   2
BRANCH   1  22
ATOM     18  C   UNL     1       5.988   5.988  16.622  0.00  0.00    +0.000 A 
ATOM     19  C   UNL     1       6.736   5.604  17.729  0.00  0.00    +0.000 A 
ATOM     20  C   UNL     1       6.138   5.508  18.984  0.00  0.00    +0.000 A 
ATOM     21  C   UNL     1       4.775   5.793  19.130  0.00  0.00    +0.000 A 
ATOM     22  C   UNL     1       3.982   6.129  18.019  0.00  0.00    +0.000 A 
ATOM     23  C   UNL     1       4.621   6.229  16.768  0.00  0.00    +0.000 A 
BRANCH  18  25
ATOM     24  C   UNL     1       6.691   4.828  14.695  0.00  0.00    +0.000 C 
ATOM     25  O   UNL     1       6.664   6.046  15.435  0.00  0.00    +0.000 OA
ENDBRANCH  18  25
BRANCH  20  26
ATOM     26  O   UNL     1       6.987   5.155  19.998  0.00  0.00    +0.000 OA
ATOM     27  C   UNL     1       8.338   5.571  19.845  0.00  0.00    +0.000 C 
ENDBRANCH  20  26
ENDBRANCH   1  22
BRANCH   1  28
ATOM     28  C   UNL     1       1.674   5.276  17.789  0.00  0.00    +0.000 C 
BRANCH  28  29
ATOM     29  C   UNL     1       1.650   4.036  18.664  0.00  0.00    +0.000 A 
ATOM     30  C   UNL     1       1.084   3.833  19.910  0.00  0.00    +0.000 A 
ATOM     31  C   UNL     1       1.270   2.502  20.388  0.00  0.00    +0.000 A 
ATOM     32  C   UNL     1       1.985   1.732  19.501  0.00  0.00    +0.000 A 
ATOM     33  S   UNL     1       2.438   2.612  18.109  0.00  0.00    +0.000 S 
ENDBRANCH  28  29
ENDBRANCH   1  28
TORSDOF 7
ENDMDL
MODEL 2
REMARK VINA RESULT:      -8.1      0.066      1.954
REMARK  Name = 
REMARK  10 active torsions:
REMARK  status: ('A' for Active; 'I' for Inactive)
REMARK    1  A    between atoms: C_1  and  O_2
REMARK    2  A    between atoms: O_2  and  C_3
REMARK    3  A    between atoms: C_5  and  O_6
REMARK    4  A    between atoms: O_6  and  C_7
REMARK    5  A    between atoms: C_9  and  N_10
REMARK    6  A    between atoms: N_10  and  C_11
REMARK    7  A    between atoms: N_10  and  C_17
REMARK    8  A    between atoms: C_11  and  C_12
REMARK    9  A    between atoms: C_23  and  C_24
REMARK   10  A    between atoms: N_27  and  C_28
REMARK                            x       y       z     vdW  Elec       q    Type
REMARK                         _______ _______ _______ _____ _____    ______ ____
ROOT
ATOM      1  N   UNL     1       2.634   6.395  18.209  0.00  0.00    +0.000 N 
ENDROOT
BRANCH   1   2
ATOM      2  C   UNL     1       2.015   7.449  18.939  0.00  0.00    +0.000 A 
ATOM      3  C   UNL     1       1.698   7.261  20.286  0.00  0.00    +0.000 A 
ATOM      4  C   UNL     1       1.335   8.331  21.090  0.00  0.00    +0.000 A 
ATOM      5  C   UNL     1       1.247   9.605  20.578  0.00  0.00    +0.000 A 
ATOM      6  N   UNL     1       1.027  10.572  21.470  0.00  0.00    +0.000 NA
ATOM      7  C   UNL     1       0.938  11.820  20.977  0.00  0.00    +0.000 A 
ATOM      8  C   UNL     1       1.000  12.117  19.625  0.00  0.00    +0.000 A 
ATOM      9  N   UNL     1       1.236  11.129  18.709  0.00  0.00    +0.000 NA
ATOM     10  C   UNL     1       1.402   9.849  19.189  0.00  0.00    +0.000 A 
ATOM     11  C   UNL     1       1.774   8.737  18.394  0.00  0.00    +0.000 A 
BRANCH   8  12
ATOM     12  C   UNL     1       0.755  13.486  19.183  0.00  0.00    +0.000 A 
ATOM     13  C   UNL     1      -0.430  14.254  19.102  0.00  0.00    +0.000 A 
ATOM     14  N   UNL     1      -0.214  15.530  18.740  0.00  0.00    +0.000 NA
ATOM     15  N   UNL     1       1.122  15.591  18.595  0.00  0.00    +0.000 N 
ATOM     16  C   UNL     1       1.781  16.842  18.296  0.00  0.00    +0.000 C 
ATOM     17  C   UNL     1       1.740  14.393  18.817  0.00  0.00    +0.000 A 
ENDBRANCH   8  12
ENDBRANCH   1   2
BRANCH   1  22
ATOM     18  C   UNL     1       6.193   5.525  19.015  0.00  0.00    +0.000 A 
ATOM     19  C   UNL     1       6.778   5.648  17.760  0.00  0.00    +0.000 A 
ATOM     20  C   UNL     1       6.002   5.983  16.651  0.00  0.00    +0.000 A 
ATOM     21  C   UNL     1       4.628   6.204  16.803  0.00  0.00    +0.000 A 
ATOM     22  C   UNL     1       4.020   6.141  18.069  0.00  0.00    +0.000 A 
ATOM     23  C   UNL     1       4.831   5.788  19.165  0.00  0.00    +0.000 A 
BRANCH  18  25
ATOM     24  C   UNL     1       8.406   5.534  19.822  0.00  0.00    +0.000 C 
ATOM     25  O   UNL     1       7.038   5.200  20.039  0.00  0.00    +0.000 OA
ENDBRANCH  18  25
BRANCH  20  26
ATOM     26  O   UNL     1       6.688   6.039  15.469  0.00  0.00    +0.000 OA
ATOM     27  C   UNL     1       6.727   4.831  14.720  0.00  0.00    +0.000 C 
ENDBRANCH  20  26
ENDBRANCH   1  22
BRANCH   1  28
ATOM     28  C   UNL     1       1.717   5.288  17.791  0.00  0.00    +0.000 C 
BRANCH  28  29
ATOM     29  C   UNL     1       1.654   4.053  18.670  0.00  0.00    +0.000 A 
ATOM     30  C   UNL     1       1.124   3.884  19.937  0.00  0.00    +0.000 A 
ATOM     31  C   UNL     1       1.252   2.545  20.412  0.00  0.00    +0.000 A 
ATOM     32  C   UNL     1       1.889   1.734  19.501  0.00  0.00    +0.000 A 
ATOM     33  S   UNL     1       2.340   2.586  18.091  0.00  0.00    +0.000 S 
ENDBRANCH  28  29
ENDBRANCH   1  28
TORSDOF 7
ENDMDL
MODEL 3
REMARK VINA RESULT:      -8.1      1.936      2.959
REMARK  Name = 
REMARK  10 active torsions:
REMARK  status: ('A' for Active; 'I' for Inactive)
REMARK    1  A    between atoms: C_1  and  O_2
REMARK    2  A    between atoms: O_2  and  C_3
REMARK    3  A    between atoms: C_5  and  O_6
REMARK    4  A    between atoms: O_6  and  C_7
REMARK    5  A    between atoms: C_9  and  N_10
REMARK    6  A    between atoms: N_10  and  C_11
REMARK    7  A    between atoms: N_10  and  C_17
REMARK    8  A    between atoms: C_11  and  C_12
REMARK    9  A    between atoms: C_23  and  C_24
REMARK   10  A    between atoms: N_27  and  C_28
REMARK                            x       y       z     vdW  Elec       q    Type
REMARK                         _______ _______ _______ _____ _____    ______ ____
ROOT
ATOM      1  N   UNL     1       2.680   6.221  18.197  0.00  0.00    +0.000 N 
ENDROOT
BRANCH   1   2
ATOM      2  C   UNL     1       2.352   7.577  18.480  0.00  0.00    +0.000 A 
ATOM      3  C   UNL     1       2.788   8.586  17.617  0.00  0.00    +0.000 A 
ATOM      4  C   UNL     1       2.283   9.873  17.713  0.00  0.00    +0.000 A 
ATOM      5  C   UNL     1       1.360  10.203  18.678  0.00  0.00    +0.000 A 
ATOM      6  N   UNL     1       0.842  11.430  18.585  0.00  0.00    +0.000 NA
ATOM      7  C   UNL     1      -0.060  11.761  19.527  0.00  0.00    +0.000 A 
ATOM      8  C   UNL     1      -0.407  10.932  20.582  0.00  0.00    +0.000 A 
ATOM      9  N   UNL     1       0.114   9.670  20.673  0.00  0.00    +0.000 NA
ATOM     10  C   UNL     1       0.987   9.275  19.684  0.00  0.00    +0.000 A 
ATOM     11  C   UNL     1       1.518   7.968  19.559  0.00  0.00    +0.000 A 
BRANCH   8  12
ATOM     12  C   UNL     1      -1.292  11.438  21.626  0.00  0.00    +0.000 A 
ATOM     13  C   UNL     1      -1.374  11.162  23.010  0.00  0.00    +0.000 A 
ATOM     14  N   UNL     1      -2.269  11.930  23.655  0.00  0.00    +0.000 NA
ATOM     15  N   UNL     1      -2.762  12.717  22.682  0.00  0.00    +0.000 N 
ATOM     16  C   UNL     1      -3.704  13.770  22.984  0.00  0.00    +0.000 C 
ATOM     17  C   UNL     1      -2.236  12.442  21.452  0.00  0.00    +0.000 A 
ENDBRANCH   8  12
ENDBRANCH   1   2
BRANCH   1  22
ATOM     18  C   UNL     1       5.667   4.439  16.791  0.00  0.00    +0.000 A 
ATOM     19  C   UNL     1       6.548   4.529  17.861  0.00  0.00    +0.000 A 
ATOM     20  C   UNL     1       6.176   5.199  19.026  0.00  0.00    +0.000 A 
ATOM     21  C   UNL     1       4.904   5.778  19.120  0.00  0.00    +0.000 A 
ATOM     22  C   UNL     1       3.973   5.654  18.075  0.00  0.00    +0.000 A 
ATOM     23  C   UNL     1       4.387   4.981  16.909  0.00  0.00    +0.000 A 
BRANCH  18  25
ATOM     24  C   UNL     1       5.896   4.401  14.446  0.00  0.00    +0.000 C 
ATOM     25  O   UNL     1       6.123   3.756  15.697  0.00  0.00    +0.000 OA
ENDBRANCH  18  25
BRANCH  20  26
ATOM     26  O   UNL     1       7.143   5.249  19.992  0.00  0.00    +0.000 OA
ATOM     27  C   UNL     1       8.389   5.804  19.591  0.00  0.00    +0.000 C 
ENDBRANCH  20  26
ENDBRANCH   1  22
BRANCH   1  28
ATOM     28  C   UNL     1       1.547   5.251  18.328  0.00  0.00    +0.000 C 
BRANCH  28  29
ATOM     29  C   UNL     1       1.624   4.221  19.440  0.00  0.00    +0.000 A 
ATOM     30  C   UNL     1       1.635   4.389  20.814  0.00  0.00    +0.000 A 
ATOM     31  C   UNL     1       1.697   3.150  21.518  0.00  0.00    +0.000 A 
ATOM     32  C   UNL     1       1.747   2.074  20.663  0.00  0.00    +0.000 A 
ATOM     33  S   UNL     1       1.731   2.556  19.024  0.00  0.00    +0.000 S 
ENDBRANCH  28  29
ENDBRANCH   1  28
TORSDOF 7
ENDMDL
MODEL 4
REMARK VINA RESULT:      -8.0      1.282      2.245
REMARK  Name = 
REMARK  10 active torsions:
REMARK  status: ('A' for Active; 'I' for Inactive)
REMARK    1  A    between atoms: C_1  and  O_2
REMARK    2  A    between atoms: O_2  and  C_3
REMARK    3  A    between atoms: C_5  and  O_6
REMARK    4  A    between atoms: O_6  and  C_7
REMARK    5  A    between atoms: C_9  and  N_10
REMARK    6  A    between atoms: N_10  and  C_11
REMARK    7  A    between atoms: N_10  and  C_17
REMARK    8  A    between atoms: C_11  and  C_12
REMARK    9  A    between atoms: C_23  and  C_24
REMARK   10  A    between atoms: N_27  and  C_28
REMARK                            x       y       z     vdW  Elec       q    Type
REMARK                         _______ _______ _______ _____ _____    ______ ____
ROOT
ATOM      1  N   UNL     1       3.201   5.774  17.805  0.00  0.00    +0.000 N 
ENDROOT
BRANCH   1   2
ATOM      2  C   UNL     1       2.469   6.746  18.543  0.00  0.00    +0.000 A 
ATOM      3  C   UNL     1       2.084   6.469  19.856  0.00  0.00    +0.000 A 
ATOM      4  C   UNL     1       1.601   7.469  20.685  0.00  0.00    +0.000 A 
ATOM      5  C   UNL     1       1.458   8.760  20.230  0.00  0.00    +0.000 A 
ATOM      6  N   UNL     1       1.119   9.663  21.152  0.00  0.00    +0.000 NA
ATOM      7  C   UNL     1       0.976  10.927  20.714  0.00  0.00    +0.000 A 
ATOM      8  C   UNL     1       1.100  11.297  19.384  0.00  0.00    +0.000 A 
ATOM      9  N   UNL     1       1.458  10.375  18.439  0.00  0.00    +0.000 NA
ATOM     10  C   UNL     1       1.681   9.085  18.867  0.00  0.00    +0.000 A 
ATOM     11  C   UNL     1       2.175   8.043  18.046  0.00  0.00    +0.000 A 
BRANCH   8  12
ATOM     12  C   UNL     1       0.790  12.668  18.993  0.00  0.00    +0.000 A 
ATOM     13  C   UNL     1      -0.412  13.280  18.569  0.00  0.00    +0.000 A 
ATOM     14  N   UNL     1      -0.305  14.610  18.406  0.00  0.00    +0.000 NA
ATOM     15  N   UNL     1       0.975  14.861  18.736  0.00  0.00    +0.000 N 
ATOM     16  C   UNL     1       1.477  16.215  18.782  0.00  0.00    +0.000 C 
ATOM     17  C   UNL     1       1.675  13.735  19.062  0.00  0.00    +0.000 A 
ENDBRANCH   8  12
ENDBRANCH   1   2
BRANCH   1  22
ATOM     18  C   UNL     1       6.867   6.563  17.693  0.00  0.00    +0.000 A 
ATOM     19  C   UNL     1       7.212   6.009  16.466  0.00  0.00    +0.000 A 
ATOM     20  C   UNL     1       6.254   5.353  15.696  0.00  0.00    +0.000 A 
ATOM     21  C   UNL     1       4.935   5.257  16.156  0.00  0.00    +0.000 A 
ATOM     22  C   UNL     1       4.546   5.855  17.367  0.00  0.00    +0.000 A 
ATOM     23  C   UNL     1       5.542   6.500  18.126  0.00  0.00    +0.000 A 
BRANCH  18  25
ATOM     24  C   UNL     1       8.138   8.529  17.958  0.00  0.00    +0.000 C 
ATOM     25  O   UNL     1       7.875   7.191  18.371  0.00  0.00    +0.000 OA
ENDBRANCH  18  25
BRANCH  20  26
ATOM     26  O   UNL     1       6.726   4.821  14.526  0.00  0.00    +0.000 OA
ATOM     27  C   UNL     1       5.860   3.902  13.872  0.00  0.00    +0.000 C 
ENDBRANCH  20  26
ENDBRANCH   1  22
BRANCH   1  28
ATOM     28  C   UNL     1       2.569   4.418  17.738  0.00  0.00    +0.000 C 
BRANCH  28  29
ATOM     29  C   UNL     1       2.344   3.679  19.044  0.00  0.00    +0.000 A 
ATOM     30  C   UNL     1       1.167   3.356  19.696  0.00  0.00    +0.000 A 
ATOM     31  C   UNL     1       1.389   2.631  20.903  0.00  0.00    +0.000 A 
ATOM     32  C   UNL     1       2.729   2.435  21.147  0.00  0.00    +0.000 A 
ATOM     33  S   UNL     1       3.709   3.131  19.934  0.00  0.00    +0.000 S 
ENDBRANCH  28  29
ENDBRANCH   1  28
TORSDOF 7
ENDMDL
MODEL 5
REMARK VINA RESULT:      -8.0      1.270      1.352
REMARK  Name = 
REMARK  10 active torsions:
REMARK  status: ('A' for Active; 'I' for Inactive)
REMARK    1  A    between atoms: C_1  and  O_2
REMARK    2  A    between atoms: O_2  and  C_3
REMARK    3  A    between atoms: C_5  and  O_6
REMARK    4  A    between atoms: O_6  and  C_7
REMARK    5  A    between atoms: C_9  and  N_10
REMARK    6  A    between atoms: N_10  and  C_11
REMARK    7  A    between atoms: N_10  and  C_17
REMARK    8  A    between atoms: C_11  and  C_12
REMARK    9  A    between atoms: C_23  and  C_24
REMARK   10  A    between atoms: N_27  and  C_28
REMARK                            x       y       z     vdW  Elec       q    Type
REMARK                         _______ _______ _______ _____ _____    ______ ____
ROOT
ATOM      1  N   UNL     1       3.184   5.759  17.794  0.00  0.00    +0.000 N 
ENDROOT
BRANCH   1   2
ATOM      2  C   UNL     1       2.461   6.732  18.541  0.00  0.00    +0.000 A 
ATOM      3  C   UNL     1       2.091   6.455  19.859  0.00  0.00    +0.000 A 
ATOM      4  C   UNL     1       1.618   7.456  20.692  0.00  0.00    +0.000 A 
ATOM      5  C   UNL     1       1.471   8.747  20.238  0.00  0.00    +0.000 A 
ATOM      6  N   UNL     1       1.143   9.650  21.164  0.00  0.00    +0.000 NA
ATOM      7  C   UNL     1       0.995  10.914  20.727  0.00  0.00    +0.000 A 
ATOM      8  C   UNL     1       1.103  11.283  19.395  0.00  0.00    +0.000 A 
ATOM      9  N   UNL     1       1.449  10.360  18.447  0.00  0.00    +0.000 NA
ATOM     10  C   UNL     1       1.677   9.071  18.873  0.00  0.00    +0.000 A 
ATOM     11  C   UNL     1       2.161   8.028  18.047  0.00  0.00    +0.000 A 
BRANCH   8  12
ATOM     12  C   UNL     1       0.788  12.654  19.008  0.00  0.00    +0.000 A 
ATOM     13  C   UNL     1      -0.437  13.292  18.706  0.00  0.00    +0.000 A 
ATOM     14  N   UNL     1      -0.312  14.614  18.498  0.00  0.00    +0.000 NA
ATOM     15  N   UNL     1       1.003  14.835  18.675  0.00  0.00    +0.000 N 
ATOM     16  C   UNL     1       1.545  16.173  18.630  0.00  0.00    +0.000 C 
ATOM     17  C   UNL     1       1.705  13.695  18.949  0.00  0.00    +0.000 A 
ENDBRANCH   8  12
ENDBRANCH   1   2
BRANCH   1  22
ATOM     18  C   UNL     1       6.248   5.400  15.659  0.00  0.00    +0.000 A 
ATOM     19  C   UNL     1       7.199   6.007  16.470  0.00  0.00    +0.000 A 
ATOM     20  C   UNL     1       6.830   6.560  17.696  0.00  0.00    +0.000 A 
ATOM     21  C   UNL     1       5.496   6.496  18.116  0.00  0.00    +0.000 A 
ATOM     22  C   UNL     1       4.524   5.839  17.342  0.00  0.00    +0.000 A 
ATOM     23  C   UNL     1       4.929   5.303  16.104  0.00  0.00    +0.000 A 
BRANCH  18  25
ATOM     24  C   UNL     1       5.896   3.861  13.910  0.00  0.00    +0.000 C 
ATOM     25  O   UNL     1       6.709   4.883  14.480  0.00  0.00    +0.000 OA
ENDBRANCH  18  25
BRANCH  20  26
ATOM     26  O   UNL     1       7.850   7.159  18.384  0.00  0.00    +0.000 OA
ATOM     27  C   UNL     1       8.181   8.479  17.972  0.00  0.00    +0.000 C 
ENDBRANCH  20  26
ENDBRANCH   1  22
BRANCH   1  28
ATOM     28  C   UNL     1       2.550   4.404  17.734  0.00  0.00    +0.000 C 
BRANCH  28  29
ATOM     29  C   UNL     1       2.320   3.673  19.044  0.00  0.00    +0.000 A 
ATOM     30  C   UNL     1       1.141   3.361  19.697  0.00  0.00    +0.000 A 
ATOM     31  C   UNL     1       1.358   2.641  20.909  0.00  0.00    +0.000 A 
ATOM     32  C   UNL     1       2.697   2.437  21.154  0.00  0.00    +0.000 A 
ATOM     33  S   UNL     1       3.681   3.121  19.937  0.00  0.00    +0.000 S 
ENDBRANCH  28  29
ENDBRANCH   1  28
TORSDOF 7
ENDMDL
MODEL 6
REMARK VINA RESULT:      -8.0      2.006      3.581
REMARK  Name = 
REMARK  10 active torsions:
REMARK  status: ('A' for Active; 'I' for Inactive)
REMARK    1  A    between atoms: C_1  and  O_2
REMARK    2  A    between atoms: O_2  and  C_3
REMARK    3  A    between atoms: C_5  and  O_6
REMARK    4  A    between atoms: O_6  and  C_7
REMARK    5  A    between atoms: C_9  and  N_10
REMARK    6  A    between atoms: N_10  and  C_11
REMARK    7  A    between atoms: N_10  and  C_17
REMARK    8  A    between atoms: C_11  and  C_12
REMARK    9  A    between atoms: C_23  and  C_24
REMARK   10  A    between atoms: N_27  and  C_28
REMARK                            x       y       z     vdW  Elec       q    Type
REMARK                         _______ _______ _______ _____ _____    ______ ____
ROOT
ATOM      1  N   UNL     1       2.857   6.277  19.095  0.00  0.00    +0.000 N 
ENDROOT
BRANCH   1   2
ATOM      2  C   UNL     1       2.419   7.632  19.082  0.00  0.00    +0.000 A 
ATOM      3  C   UNL     1       2.489   8.368  17.897  0.00  0.00    +0.000 A 
ATOM      4  C   UNL     1       1.846   9.590  17.778  0.00  0.00    +0.000 A 
ATOM      5  C   UNL     1       1.144  10.129  18.832  0.00  0.00    +0.000 A 
ATOM      6  N   UNL     1       0.453  11.237  18.558  0.00  0.00    +0.000 NA
ATOM      7  C   UNL     1      -0.234  11.770  19.585  0.00  0.00    +0.000 A 
ATOM      8  C   UNL     1      -0.198  11.268  20.876  0.00  0.00    +0.000 A 
ATOM      9  N   UNL     1       0.502  10.127  21.156  0.00  0.00    +0.000 NA
ATOM     10  C   UNL     1       1.158   9.516  20.111  0.00  0.00    +0.000 A 
ATOM     11  C   UNL     1       1.822   8.268  20.201  0.00  0.00    +0.000 A 
BRANCH   8  12
ATOM     12  C   UNL     1      -0.868  12.001  21.945  0.00  0.00    +0.000 A 
ATOM     13  C   UNL     1      -0.601  13.255  22.541  0.00  0.00    +0.000 A 
ATOM     14  N   UNL     1      -1.534  13.629  23.434  0.00  0.00    +0.000 NA
ATOM     15  N   UNL     1      -2.415  12.614  23.409  0.00  0.00    +0.000 N 
ATOM     16  C   UNL     1      -3.639  12.673  24.175  0.00  0.00    +0.000 C 
ATOM     17  C   UNL     1      -2.048  11.607  22.562  0.00  0.00    +0.000 A 
ENDBRANCH   8  12
ENDBRANCH   1   2
BRANCH   1  22
ATOM     18  C   UNL     1       6.301   4.951  18.423  0.00  0.00    +0.000 A 
ATOM     19  C   UNL     1       6.198   4.639  17.073  0.00  0.00    +0.000 A 
ATOM     20  C   UNL     1       4.995   4.832  16.396  0.00  0.00    +0.000 A 
ATOM     21  C   UNL     1       3.887   5.351  17.077  0.00  0.00    +0.000 A 
ATOM     22  C   UNL     1       3.979   5.728  18.428  0.00  0.00    +0.000 A 
ATOM     23  C   UNL     1       5.206   5.507  19.084  0.00  0.00    +0.000 A 
BRANCH  18  25
ATOM     24  C   UNL     1       8.030   5.815  19.771  0.00  0.00    +0.000 C 
ATOM     25  O   UNL     1       7.524   4.732  18.996  0.00  0.00    +0.000 OA
ENDBRANCH  18  25
BRANCH  20  26
ATOM     26  O   UNL     1       5.011   4.454  15.081  0.00  0.00    +0.000 OA
ATOM     27  C   UNL     1       6.281   4.085  14.559  0.00  0.00    +0.000 C 
ENDBRANCH  20  26
ENDBRANCH   1  22
BRANCH   1  28
ATOM     28  C   UNL     1       2.231   5.416  20.148  0.00  0.00    +0.000 C 
BRANCH  28  29
ATOM     29  C   UNL     1       1.846   3.999  19.764  0.00  0.00    +0.000 A 
ATOM     30  C   UNL     1       1.018   3.541  18.755  0.00  0.00    +0.000 A 
ATOM     31  C   UNL     1       0.934   2.118  18.717  0.00  0.00    +0.000 A 
ATOM     32  C   UNL     1       1.689   1.531  19.707  0.00  0.00    +0.000 A 
ATOM     33  S   UNL     1       2.481   2.690  20.680  0.00  0.00    +0.000 S 
ENDBRANCH  28  29
ENDBRANCH   1  28
TORSDOF 7
ENDMDL
MODEL 7
REMARK VINA RESULT:      -7.9      4.713      9.617
REMARK  Name = 
REMARK  10 active torsions:
REMARK  status: ('A' for Active; 'I' for Inactive)
REMARK    1  A    between atoms: C_1  and  O_2
REMARK    2  A    between atoms: O_2  and  C_3
REMARK    3  A    between atoms: C_5  and  O_6
REMARK    4  A    between atoms: O_6  and  C_7
REMARK    5  A    between atoms: C_9  and  N_10
REMARK    6  A    between atoms: N_10  and  C_11
REMARK    7  A    between atoms: N_10  and  C_17
REMARK    8  A    between atoms: C_11  and  C_12
REMARK    9  A    between atoms: C_23  and  C_24
REMARK   10  A    between atoms: N_27  and  C_28
REMARK                            x       y       z     vdW  Elec       q    Type
REMARK                         _______ _______ _______ _____ _____    ______ ____
ROOT
ATOM      1  N   UNL     1      -0.909  11.859  18.883  0.00  0.00    +0.000 N 
ENDROOT
BRANCH   1   2
ATOM      2  C   UNL     1      -0.049  10.827  19.355  0.00  0.00    +0.000 A 
ATOM      3  C   UNL     1      -0.105  10.443  20.697  0.00  0.00    +0.000 A 
ATOM      4  C   UNL     1       0.522   9.287  21.134  0.00  0.00    +0.000 A 
ATOM      5  C   UNL     1       1.243   8.499  20.267  0.00  0.00    +0.000 A 
ATOM      6  N   UNL     1       1.682   7.343  20.767  0.00  0.00    +0.000 NA
ATOM      7  C   UNL     1       2.390   6.568  19.925  0.00  0.00    +0.000 A 
ATOM      8  C   UNL     1       2.719   6.941  18.632  0.00  0.00    +0.000 A 
ATOM      9  N   UNL     1       2.261   8.121  18.113  0.00  0.00    +0.000 NA
ATOM     10  C   UNL     1       1.474   8.905  18.927  0.00  0.00    +0.000 A 
ATOM     11  C   UNL     1       0.819  10.089  18.509  0.00  0.00    +0.000 A 
BRANCH   8  12
ATOM     12  C   UNL     1       3.607   6.089  17.847  0.00  0.00    +0.000 A 
ATOM     13  C   UNL     1       3.780   4.686  17.812  0.00  0.00    +0.000 A 
ATOM     14  N   UNL     1       4.636   4.279  16.858  0.00  0.00    +0.000 NA
ATOM     15  N   UNL     1       5.011   5.427  16.265  0.00  0.00    +0.000 N 
ATOM     16  C   UNL     1       5.872   5.417  15.105  0.00  0.00    +0.000 C 
ATOM     17  C   UNL     1       4.451   6.533  16.838  0.00  0.00    +0.000 A 
ENDBRANCH   8  12
ENDBRANCH   1   2
BRANCH   1  22
ATOM     18  C   UNL     1      -4.649  11.967  18.612  0.00  0.00    +0.000 A 
ATOM     19  C   UNL     1      -4.831  11.428  17.344  0.00  0.00    +0.000 A 
ATOM     20  C   UNL     1      -3.730  11.062  16.570  0.00  0.00    +0.000 A 
ATOM     21  C   UNL     1      -2.436  11.231  17.076  0.00  0.00    +0.000 A 
ATOM     22  C   UNL     1      -2.225  11.721  18.376  0.00  0.00    +0.000 A 
ATOM     23  C   UNL     1      -3.358  12.092  19.125  0.00  0.00    +0.000 A 
BRANCH  18  25
ATOM     24  C   UNL     1      -5.642  12.378  20.709  0.00  0.00    +0.000 C 
ATOM     25  O   UNL     1      -5.790  12.288  19.294  0.00  0.00    +0.000 OA
ENDBRANCH  18  25
BRANCH  20  26
ATOM     26  O   UNL     1      -4.039  10.578  15.328  0.00  0.00    +0.000 OA
ATOM     27  C   UNL     1      -2.939  10.119  14.553  0.00  0.00    +0.000 C 
ENDBRANCH  20  26
ENDBRANCH   1  22
BRANCH   1  28
ATOM     28  C   UNL     1      -0.480  13.251  19.228  0.00  0.00    +0.000 C 
BRANCH  28  29
ATOM     29  C   UNL     1       1.004  13.564  19.183  0.00  0.00    +0.000 A 
ATOM     30  C   UNL     1       1.874  13.620  18.108  0.00  0.00    +0.000 A 
ATOM     31  C   UNL     1       3.201  13.971  18.493  0.00  0.00    +0.000 A 
ATOM     32  C   UNL     1       3.311  14.159  19.851  0.00  0.00    +0.000 A 
ATOM     33  S   UNL     1       1.827  13.900  20.656  0.00  0.00    +0.000 S 
ENDBRANCH  28  29
ENDBRANCH   1  28
TORSDOF 7
ENDMDL
MODEL 8
REMARK VINA RESULT:      -7.9      4.667      9.259
REMARK  Name = 
REMARK  10 active torsions:
REMARK  status: ('A' for Active; 'I' for Inactive)
REMARK    1  A    between atoms: C_1  and  O_2
REMARK    2  A    between atoms: O_2  and  C_3
REMARK    3  A    between atoms: C_5  and  O_6
REMARK    4  A    between atoms: O_6  and  C_7
REMARK    5  A    between atoms: C_9  and  N_10
REMARK    6  A    between atoms: N_10  and  C_11
REMARK    7  A    between atoms: N_10  and  C_17
REMARK    8  A    between atoms: C_11  and  C_12
REMARK    9  A    between atoms: C_23  and  C_24
REMARK   10  A    between atoms: N_27  and  C_28
REMARK                            x       y       z     vdW  Elec       q    Type
REMARK                         _______ _______ _______ _____ _____    ______ ____
ROOT
ATOM      1  N   UNL     1      -0.036  10.883  18.992  0.00  0.00    +0.000 N 
ENDROOT
BRANCH   1   2
ATOM      2  C   UNL     1       0.877   9.814  19.213  0.00  0.00    +0.000 A 
ATOM      3  C   UNL     1       0.727   9.000  20.339  0.00  0.00    +0.000 A 
ATOM      4  C   UNL     1       1.427   7.809  20.456  0.00  0.00    +0.000 A 
ATOM      5  C   UNL     1       2.312   7.407  19.483  0.00  0.00    +0.000 A 
ATOM      6  N   UNL     1       2.820   6.183  19.635  0.00  0.00    +0.000 NA
ATOM      7  C   UNL     1       3.688   5.784  18.688  0.00  0.00    +0.000 A 
ATOM      8  C   UNL     1       4.105   6.589  17.640  0.00  0.00    +0.000 A 
ATOM      9  N   UNL     1       3.578   7.841  17.476  0.00  0.00    +0.000 NA
ATOM     10  C   UNL     1       2.633   8.252  18.390  0.00  0.00    +0.000 A 
ATOM     11  C   UNL     1       1.901   9.461  18.296  0.00  0.00    +0.000 A 
BRANCH   8  12
ATOM     12  C   UNL     1       5.154   6.111  16.745  0.00  0.00    +0.000 A 
ATOM     13  C   UNL     1       6.561   6.237  16.788  0.00  0.00    +0.000 A 
ATOM     14  N   UNL     1       7.188   5.548  15.818  0.00  0.00    +0.000 NA
ATOM     15  N   UNL     1       6.178   4.964  15.149  0.00  0.00    +0.000 N 
ATOM     16  C   UNL     1       6.439   4.042  14.067  0.00  0.00    +0.000 C 
ATOM     17  C   UNL     1       4.947   5.292  15.643  0.00  0.00    +0.000 A 
ENDBRANCH   8  12
ENDBRANCH   1   2
BRANCH   1  22
ATOM     18  C   UNL     1      -2.771   9.994  16.583  0.00  0.00    +0.000 A 
ATOM     19  C   UNL     1      -3.830  10.718  17.117  0.00  0.00    +0.000 A 
ATOM     20  C   UNL     1      -3.655  11.468  18.279  0.00  0.00    +0.000 A 
ATOM     21  C   UNL     1      -2.404  11.498  18.908  0.00  0.00    +0.000 A 
ATOM     22  C   UNL     1      -1.302  10.820  18.360  0.00  0.00    +0.000 A 
ATOM     23  C   UNL     1      -1.517  10.062  17.192  0.00  0.00    +0.000 A 
BRANCH  18  25
ATOM     24  C   UNL     1      -3.213  10.095  14.271  0.00  0.00    +0.000 C 
ATOM     25  O   UNL     1      -3.041   9.296  15.439  0.00  0.00    +0.000 OA
ENDBRANCH  18  25
BRANCH  20  26
ATOM     26  O   UNL     1      -4.780  12.107  18.724  0.00  0.00    +0.000 OA
ATOM     27  C   UNL     1      -6.006  11.667  18.154  0.00  0.00    +0.000 C 
ENDBRANCH  20  26
ENDBRANCH   1  22
BRANCH   1  28
ATOM     28  C   UNL     1       0.253  12.135  19.762  0.00  0.00    +0.000 C 
BRANCH  28  29
ATOM     29  C   UNL     1      -0.427  12.309  21.107  0.00  0.00    +0.000 A 
ATOM     30  C   UNL     1      -0.781  11.368  22.058  0.00  0.00    +0.000 A 
ATOM     31  C   UNL     1      -1.391  11.951  23.207  0.00  0.00    +0.000 A 
ATOM     32  C   UNL     1      -1.500  13.318  23.095  0.00  0.00    +0.000 A 
ATOM     33  S   UNL     1      -0.881  13.890  21.609  0.00  0.00    +0.000 S 
ENDBRANCH  28  29
ENDBRANCH   1  28
TORSDOF 7
ENDMDL
MODEL 9
REMARK VINA RESULT:      -7.8      4.381      9.473
REMARK  Name = 
REMARK  10 active torsions:
REMARK  status: ('A' for Active; 'I' for Inactive)
REMARK    1  A    between atoms: C_1  and  O_2
REMARK    2  A    between atoms: O_2  and  C_3
REMARK    3  A    between atoms: C_5  and  O_6
REMARK    4  A    between atoms: O_6  and  C_7
REMARK    5  A    between atoms: C_9  and  N_10
REMARK    6  A    between atoms: N_10  and  C_11
REMARK    7  A    between atoms: N_10  and  C_17
REMARK    8  A    between atoms: C_11  and  C_12
REMARK    9  A    between atoms: C_23  and  C_24
REMARK   10  A    between atoms: N_27  and  C_28
REMARK                            x       y       z     vdW  Elec       q    Type
REMARK                         _______ _______ _______ _____ _____    ______ ____
ROOT
ATOM      1  N   UNL     1      -0.179  10.774  19.383  0.00  0.00    +0.000 N 
ENDROOT
BRANCH   1   2
ATOM      2  C   UNL     1       0.661   9.664  19.680  0.00  0.00    +0.000 A 
ATOM      3  C   UNL     1       0.435   8.918  20.838  0.00  0.00    +0.000 A 
ATOM      4  C   UNL     1       1.058   7.695  21.033  0.00  0.00    +0.000 A 
ATOM      5  C   UNL     1       1.941   7.193  20.105  0.00  0.00    +0.000 A 
ATOM      6  N   UNL     1       2.369   5.950  20.329  0.00  0.00    +0.000 NA
ATOM      7  C   UNL     1       3.235   5.453  19.427  0.00  0.00    +0.000 A 
ATOM      8  C   UNL     1       3.726   6.180  18.354  0.00  0.00    +0.000 A 
ATOM      9  N   UNL     1       3.280   7.451  18.116  0.00  0.00    +0.000 NA
ATOM     10  C   UNL     1       2.339   7.963  18.982  0.00  0.00    +0.000 A 
ATOM     11  C   UNL     1       1.685   9.207  18.809  0.00  0.00    +0.000 A 
BRANCH   8  12
ATOM     12  C   UNL     1       4.765   5.596  17.513  0.00  0.00    +0.000 A 
ATOM     13  C   UNL     1       5.879   4.780  17.818  0.00  0.00    +0.000 A 
ATOM     14  N   UNL     1       6.543   4.355  16.729  0.00  0.00    +0.000 NA
ATOM     15  N   UNL     1       5.848   4.893  15.711  0.00  0.00    +0.000 N 
ATOM     16  C   UNL     1       6.189   4.594  14.339  0.00  0.00    +0.000 C 
ATOM     17  C   UNL     1       4.801   5.665  16.126  0.00  0.00    +0.000 A 
ENDBRANCH   8  12
ENDBRANCH   1   2
BRANCH   1  22
ATOM     18  C   UNL     1      -3.684  11.495  18.258  0.00  0.00    +0.000 A 
ATOM     19  C   UNL     1      -3.740  10.743  17.091  0.00  0.00    +0.000 A 
ATOM     20  C   UNL     1      -2.623  10.029  16.660  0.00  0.00    +0.000 A 
ATOM     21  C   UNL     1      -1.441  10.064  17.409  0.00  0.00    +0.000 A 
ATOM     22  C   UNL     1      -1.374  10.772  18.622  0.00  0.00    +0.000 A 
ATOM     23  C   UNL     1      -2.517  11.491  19.021  0.00  0.00    +0.000 A 
BRANCH  18  25
ATOM     24  C   UNL     1      -6.041  11.483  18.251  0.00  0.00    +0.000 C 
ATOM     25  O   UNL     1      -4.833  12.154  18.600  0.00  0.00    +0.000 OA
ENDBRANCH  18  25
BRANCH  20  26
ATOM     26  O   UNL     1      -2.793   9.357  15.480  0.00  0.00    +0.000 OA
ATOM     27  C   UNL     1      -3.058  10.165  14.340  0.00  0.00    +0.000 C 
ENDBRANCH  20  26
ENDBRANCH   1  22
BRANCH   1  28
ATOM     28  C   UNL     1       0.079  12.003  20.197  0.00  0.00    +0.000 C 
BRANCH  28  29
ATOM     29  C   UNL     1       0.761  13.174  19.512  0.00  0.00    +0.000 A 
ATOM     30  C   UNL     1       0.326  14.473  19.321  0.00  0.00    +0.000 A 
ATOM     31  C   UNL     1       1.286  15.278  18.638  0.00  0.00    +0.000 A 
ATOM     32  C   UNL     1       2.418  14.567  18.314  0.00  0.00    +0.000 A 
ATOM     33  S   UNL     1       2.317  12.938  18.819  0.00  0.00    +0.000 S 
ENDBRANCH  28  29
ENDBRANCH   1  28
TORSDOF 7
ENDMDL
