MODEL 1
REMARK VINA RESULT:      -7.2      0.000      0.000
REMARK  Name = 
REMARK  9 active torsions:
REMARK  status: ('A' for Active; 'I' for Inactive)
REMARK    1  A    between atoms: C_1  and  N_2
REMARK    2  A    between atoms: N_2  and  C_3
REMARK    3  A    between atoms: C_4  and  C_6
REMARK    4  A    between atoms: C_9  and  N_10
REMARK    5  A    between atoms: N_10  and  C_11
REMARK    6  A    between atoms: C_11  and  C_12
REMARK    7  A    between atoms: C_22  and  C_24
REMARK    8  A    between atoms: C_27  and  O_28
REMARK    9  A    between atoms: C_30  and  O_31
REMARK                            x       y       z     vdW  Elec       q    Type
REMARK                         _______ _______ _______ _____ _____    ______ ____
ROOT
ATOM      1  N   UNL     1       0.712  10.268  19.815  0.00  0.00    +0.000 N 
ATOM      2  C   UNL     1       0.911  10.725  21.160  0.00  0.00    +0.000 C 
ATOM      3  O   UNL     1       1.961  10.522  21.750  0.00  0.00    +0.000 OA
ENDROOT
BRANCH   1   7
ATOM      4  C   UNL     1      -2.909  11.166  17.695  0.00  0.00    +0.000 A 
ATOM      5  C   UNL     1      -1.880  12.090  17.828  0.00  0.00    +0.000 A 
ATOM      6  C   UNL     1      -0.655  11.791  18.451  0.00  0.00    +0.000 A 
ATOM      7  C   UNL     1      -0.450  10.541  19.007  0.00  0.00    +0.000 A 
ATOM      8  C   UNL     1      -1.510   9.598  18.931  0.00  0.00    +0.000 A 
ATOM      9  C   UNL     1      -2.748   9.915  18.317  0.00  0.00    +0.000 A 
BRANCH   4  13
ATOM     10  C   UNL     1      -6.465  12.363  16.981  0.00  0.00    +0.000 C 
ATOM     11  N   UNL     1      -5.278  12.002  17.730  0.00  0.00    +0.000 N 
ATOM     12  C   UNL     1      -5.196  12.487  19.105  0.00  0.00    +0.000 C 
ATOM     13  C   UNL     1      -4.167  11.524  16.992  0.00  0.00    +0.000 C 
ATOM     14  O   UNL     1      -4.215  11.407  15.750  0.00  0.00    +0.000 OA
ENDBRANCH   4  13
ENDBRANCH   1   7
BRANCH   2  15
ATOM     15  C   UNL     1      -0.221  11.426  21.894  0.00  0.00    +0.000 A 
ATOM     16  C   UNL     1      -0.491  12.780  21.651  0.00  0.00    +0.000 A 
ATOM     17  C   UNL     1      -1.428  13.527  22.359  0.00  0.00    +0.000 A 
ATOM     18  C   UNL     1      -2.250  12.861  23.244  0.00  0.00    +0.000 A 
ATOM     19  C   UNL     1      -2.091  11.492  23.446  0.00  0.00    +0.000 A 
ATOM     20  C   UNL     1      -1.071  10.778  22.799  0.00  0.00    +0.000 A 
BRANCH  18  21
ATOM     21  O   UNL     1      -3.217  13.523  23.924  0.00  0.00    +0.000 OA
ATOM     22  H   UNL     1      -3.797  12.865  24.355  0.00  0.00    +0.000 HD
ENDBRANCH  18  21
BRANCH  20  23
ATOM     23  O   UNL     1      -0.912   9.453  23.099  0.00  0.00    +0.000 OA
ATOM     24  H   UNL     1      -1.636   9.166  23.682  0.00  0.00    +0.000 HD
ENDBRANCH  20  23
ENDBRANCH   2  15
BRANCH   1  25
ATOM     25  C   UNL     1       1.879   9.591  19.207  0.00  0.00    +0.000 C 
BRANCH  25  26
ATOM     26  C   UNL     1       1.906   8.081  19.289  0.00  0.00    +0.000 A 
ATOM     27  C   UNL     1       1.498   7.444  20.467  0.00  0.00    +0.000 A 
ATOM     28  C   UNL     1       1.681   6.074  20.632  0.00  0.00    +0.000 A 
ATOM     29  C   UNL     1       2.268   5.316  19.614  0.00  0.00    +0.000 A 
ATOM     30  C   UNL     1       2.381   3.928  19.739  0.00  0.00    +0.000 A 
ATOM     31  C   UNL     1       2.908   3.179  18.692  0.00  0.00    +0.000 A 
ATOM     32  C   UNL     1       3.556   3.817  17.639  0.00  0.00    +0.000 A 
ATOM     33  C   UNL     1       3.440   5.198  17.495  0.00  0.00    +0.000 A 
ATOM     34  C   UNL     1       2.714   5.949  18.434  0.00  0.00    +0.000 A 
ATOM     35  C   UNL     1       2.457   7.315  18.251  0.00  0.00    +0.000 A 
ENDBRANCH  25  26
ENDBRANCH   1  25
TORSDOF 7
ENDMDL
MODEL 2
REMARK VINA RESULT:      -7.0      2.146      5.021
REMARK  Name = 
REMARK  9 active torsions:
REMARK  status: ('A' for Active; 'I' for Inactive)
REMARK    1  A    between atoms: C_1  and  N_2
REMARK    2  A    between atoms: N_2  and  C_3
REMARK    3  A    between atoms: C_4  and  C_6
REMARK    4  A    between atoms: C_9  and  N_10
REMARK    5  A    between atoms: N_10  and  C_11
REMARK    6  A    between atoms: C_11  and  C_12
REMARK    7  A    between atoms: C_22  and  C_24
REMARK    8  A    between atoms: C_27  and  O_28
REMARK    9  A    between atoms: C_30  and  O_31
REMARK                            x       y       z     vdW  Elec       q    Type
REMARK                         _______ _______ _______ _____ _____    ______ ____
ROOT
ATOM      1  N   UNL     1      -0.644  11.597  19.055  0.00  0.00    +0.000 N 
ATOM      2  C   UNL     1      -1.543  11.065  18.072  0.00  0.00    +0.000 C 
ATOM      3  O   UNL     1      -1.145  10.337  17.177  0.00  0.00    +0.000 OA
ENDROOT
BRANCH   1   7
ATOM      4  C   UNL     1      -1.478  13.915  22.568  0.00  0.00    +0.000 A 
ATOM      5  C   UNL     1      -1.205  14.504  21.340  0.00  0.00    +0.000 A 
ATOM      6  C   UNL     1      -1.006  13.764  20.162  0.00  0.00    +0.000 A 
ATOM      7  C   UNL     1      -1.032  12.382  20.200  0.00  0.00    +0.000 A 
ATOM      8  C   UNL     1      -1.257  11.757  21.457  0.00  0.00    +0.000 A 
ATOM      9  C   UNL     1      -1.438  12.511  22.644  0.00  0.00    +0.000 A 
BRANCH   4  13
ATOM     10  C   UNL     1      -3.187  16.066  25.221  0.00  0.00    +0.000 C 
ATOM     11  N   UNL     1      -3.008  15.290  24.010  0.00  0.00    +0.000 N 
ATOM     12  C   UNL     1      -4.221  14.839  23.334  0.00  0.00    +0.000 C 
ATOM     13  C   UNL     1      -1.721  14.747  23.775  0.00  0.00    +0.000 C 
ATOM     14  O   UNL     1      -0.780  14.940  24.571  0.00  0.00    +0.000 OA
ENDBRANCH   4  13
ENDBRANCH   1   7
BRANCH   2  15
ATOM     15  C   UNL     1      -3.013  11.456  18.104  0.00  0.00    +0.000 A 
ATOM     16  C   UNL     1      -3.635  11.772  19.320  0.00  0.00    +0.000 A 
ATOM     17  C   UNL     1      -4.997  12.026  19.455  0.00  0.00    +0.000 A 
ATOM     18  C   UNL     1      -5.752  12.128  18.305  0.00  0.00    +0.000 A 
ATOM     19  C   UNL     1      -5.157  11.925  17.061  0.00  0.00    +0.000 A 
ATOM     20  C   UNL     1      -3.805  11.566  16.955  0.00  0.00    +0.000 A 
BRANCH  18  21
ATOM     21  O   UNL     1      -7.072  12.425  18.367  0.00  0.00    +0.000 OA
ATOM     22  H   UNL     1      -7.580  11.640  18.084  0.00  0.00    +0.000 HD
ENDBRANCH  18  21
BRANCH  20  23
ATOM     23  O   UNL     1      -3.298  11.300  15.713  0.00  0.00    +0.000 OA
ATOM     24  H   UNL     1      -3.772  10.543  15.327  0.00  0.00    +0.000 HD
ENDBRANCH  20  23
ENDBRANCH   2  15
BRANCH   1  25
ATOM     25  C   UNL     1       0.761  11.155  18.919  0.00  0.00    +0.000 C 
BRANCH  25  26
ATOM     26  C   UNL     1       1.058   9.715  19.271  0.00  0.00    +0.000 A 
ATOM     27  C   UNL     1       0.749   9.237  20.550  0.00  0.00    +0.000 A 
ATOM     28  C   UNL     1       1.172   7.975  20.956  0.00  0.00    +0.000 A 
ATOM     29  C   UNL     1       1.904   7.164  20.084  0.00  0.00    +0.000 A 
ATOM     30  C   UNL     1       2.262   5.865  20.455  0.00  0.00    +0.000 A 
ATOM     31  C   UNL     1       2.934   5.047  19.552  0.00  0.00    +0.000 A 
ATOM     32  C   UNL     1       3.477   5.591  18.393  0.00  0.00    +0.000 A 
ATOM     33  C   UNL     1       3.117   6.880  18.005  0.00  0.00    +0.000 A 
ATOM     34  C   UNL     1       2.252   7.644  18.803  0.00  0.00    +0.000 A 
ATOM     35  C   UNL     1       1.757   8.887  18.380  0.00  0.00    +0.000 A 
ENDBRANCH  25  26
ENDBRANCH   1  25
TORSDOF 7
ENDMDL
MODEL 3
REMARK VINA RESULT:      -7.0      2.913      4.311
REMARK  Name = 
REMARK  9 active torsions:
REMARK  status: ('A' for Active; 'I' for Inactive)
REMARK    1  A    between atoms: C_1  and  N_2
REMARK    2  A    between atoms: N_2  and  C_3
REMARK    3  A    between atoms: C_4  and  C_6
REMARK    4  A    between atoms: C_9  and  N_10
REMARK    5  A    between atoms: N_10  and  C_11
REMARK    6  A    between atoms: C_11  and  C_12
REMARK    7  A    between atoms: C_22  and  C_24
REMARK    8  A    between atoms: C_27  and  O_28
REMARK    9  A    between atoms: C_30  and  O_31
REMARK                            x       y       z     vdW  Elec       q    Type
REMARK                         _______ _______ _______ _____ _____    ______ ____
ROOT
ATOM      1  N   UNL     1       0.642  11.696  19.077  0.00  0.00    +0.000 N 
ATOM      2  C   UNL     1       1.782  12.548  18.894  0.00  0.00    +0.000 C 
ATOM      3  O   UNL     1       2.620  12.310  18.038  0.00  0.00    +0.000 OA
ENDROOT
BRANCH   1   7
ATOM      4  C   UNL     1      -2.470  12.754  21.836  0.00  0.00    +0.000 A 
ATOM      5  C   UNL     1      -2.643  12.829  20.460  0.00  0.00    +0.000 A 
ATOM      6  C   UNL     1      -1.665  12.414  19.539  0.00  0.00    +0.000 A 
ATOM      7  C   UNL     1      -0.444  11.946  19.991  0.00  0.00    +0.000 A 
ATOM      8  C   UNL     1      -0.225  11.913  21.395  0.00  0.00    +0.000 A 
ATOM      9  C   UNL     1      -1.210  12.351  22.315  0.00  0.00    +0.000 A 
BRANCH   4  13
ATOM     10  C   UNL     1      -4.717  14.856  24.099  0.00  0.00    +0.000 C 
ATOM     11  N   UNL     1      -3.617  14.508  23.221  0.00  0.00    +0.000 N 
ATOM     12  C   UNL     1      -2.893  15.617  22.605  0.00  0.00    +0.000 C 
ATOM     13  C   UNL     1      -3.553  13.169  22.764  0.00  0.00    +0.000 C 
ATOM     14  O   UNL     1      -4.401  12.323  23.114  0.00  0.00    +0.000 OA
ENDBRANCH   4  13
ENDBRANCH   1   7
BRANCH   2  15
ATOM     15  C   UNL     1       1.989  13.741  19.815  0.00  0.00    +0.000 A 
ATOM     16  C   UNL     1       2.939  13.684  20.844  0.00  0.00    +0.000 A 
ATOM     17  C   UNL     1       3.112  14.681  21.800  0.00  0.00    +0.000 A 
ATOM     18  C   UNL     1       2.419  15.861  21.634  0.00  0.00    +0.000 A 
ATOM     19  C   UNL     1       1.537  16.008  20.565  0.00  0.00    +0.000 A 
ATOM     20  C   UNL     1       1.300  14.952  19.673  0.00  0.00    +0.000 A 
BRANCH  18  21
ATOM     21  O   UNL     1       2.584  16.889  22.502  0.00  0.00    +0.000 OA
ATOM     22  H   UNL     1       2.314  17.717  22.056  0.00  0.00    +0.000 HD
ENDBRANCH  18  21
BRANCH  20  23
ATOM     23  O   UNL     1       0.363  15.126  18.692  0.00  0.00    +0.000 OA
ATOM     24  H   UNL     1       0.763  15.604  17.946  0.00  0.00    +0.000 HD
ENDBRANCH  20  23
ENDBRANCH   2  15
BRANCH   1  25
ATOM     25  C   UNL     1       0.551  10.563  18.131  0.00  0.00    +0.000 C 
BRANCH  25  26
ATOM     26  C   UNL     1       1.180   9.260  18.569  0.00  0.00    +0.000 A 
ATOM     27  C   UNL     1       1.019   8.823  19.890  0.00  0.00    +0.000 A 
ATOM     28  C   UNL     1       1.730   7.726  20.365  0.00  0.00    +0.000 A 
ATOM     29  C   UNL     1       2.609   7.039  19.523  0.00  0.00    +0.000 A 
ATOM     30  C   UNL     1       3.266   5.888  19.968  0.00  0.00    +0.000 A 
ATOM     31  C   UNL     1       4.087   5.178  19.098  0.00  0.00    +0.000 A 
ATOM     32  C   UNL     1       4.463   5.741  17.883  0.00  0.00    +0.000 A 
ATOM     33  C   UNL     1       3.807   6.881  17.421  0.00  0.00    +0.000 A 
ATOM     34  C   UNL     1       2.807   7.486  18.198  0.00  0.00    +0.000 A 
ATOM     35  C   UNL     1       2.030   8.547  17.711  0.00  0.00    +0.000 A 
ENDBRANCH  25  26
ENDBRANCH   1  25
TORSDOF 7
ENDMDL
MODEL 4
REMARK VINA RESULT:      -7.0      2.869      4.697
REMARK  Name = 
REMARK  9 active torsions:
REMARK  status: ('A' for Active; 'I' for Inactive)
REMARK    1  A    between atoms: C_1  and  N_2
REMARK    2  A    between atoms: N_2  and  C_3
REMARK    3  A    between atoms: C_4  and  C_6
REMARK    4  A    between atoms: C_9  and  N_10
REMARK    5  A    between atoms: N_10  and  C_11
REMARK    6  A    between atoms: C_11  and  C_12
REMARK    7  A    between atoms: C_22  and  C_24
REMARK    8  A    between atoms: C_27  and  O_28
REMARK    9  A    between atoms: C_30  and  O_31
REMARK                            x       y       z     vdW  Elec       q    Type
REMARK                         _______ _______ _______ _____ _____    ______ ____
ROOT
ATOM      1  N   UNL     1       0.756  11.474  19.190  0.00  0.00    +0.000 N 
ATOM      2  C   UNL     1       1.817  12.380  18.859  0.00  0.00    +0.000 C 
ATOM      3  O   UNL     1       2.556  12.170  17.909  0.00  0.00    +0.000 OA
ENDROOT
BRANCH   1   7
ATOM      4  C   UNL     1      -1.984  12.377  22.367  0.00  0.00    +0.000 A 
ATOM      5  C   UNL     1      -2.222  12.760  21.053  0.00  0.00    +0.000 A 
ATOM      6  C   UNL     1      -1.377  12.407  19.986  0.00  0.00    +0.000 A 
ATOM      7  C   UNL     1      -0.223  11.684  20.227  0.00  0.00    +0.000 A 
ATOM      8  C   UNL     1       0.068  11.328  21.572  0.00  0.00    +0.000 A 
ATOM      9  C   UNL     1      -0.780  11.704  22.644  0.00  0.00    +0.000 A 
BRANCH   4  13
ATOM     10  C   UNL     1      -3.744  14.275  25.175  0.00  0.00    +0.000 C 
ATOM     11  N   UNL     1      -2.766  13.962  24.152  0.00  0.00    +0.000 N 
ATOM     12  C   UNL     1      -1.926  15.063  23.688  0.00  0.00    +0.000 C 
ATOM     13  C   UNL     1      -2.932  12.742  23.450  0.00  0.00    +0.000 C 
ATOM     14  O   UNL     1      -3.873  11.966  23.713  0.00  0.00    +0.000 OA
ENDBRANCH   4  13
ENDBRANCH   1   7
BRANCH   2  15
ATOM     15  C   UNL     1       2.072  13.598  19.733  0.00  0.00    +0.000 A 
ATOM     16  C   UNL     1       3.023  13.544  20.762  0.00  0.00    +0.000 A 
ATOM     17  C   UNL     1       3.236  14.569  21.680  0.00  0.00    +0.000 A 
ATOM     18  C   UNL     1       2.587  15.767  21.471  0.00  0.00    +0.000 A 
ATOM     19  C   UNL     1       1.707  15.906  20.399  0.00  0.00    +0.000 A 
ATOM     20  C   UNL     1       1.428  14.827  19.548  0.00  0.00    +0.000 A 
BRANCH  18  21
ATOM     21  O   UNL     1       2.793  16.820  22.299  0.00  0.00    +0.000 OA
ATOM     22  H   UNL     1       2.538  17.638  21.829  0.00  0.00    +0.000 HD
ENDBRANCH  18  21
BRANCH  20  23
ATOM     23  O   UNL     1       0.495  14.999  18.563  0.00  0.00    +0.000 OA
ATOM     24  H   UNL     1       0.929  14.942  17.695  0.00  0.00    +0.000 HD
ENDBRANCH  20  23
ENDBRANCH   2  15
BRANCH   1  25
ATOM     25  C   UNL     1       0.610  10.321  18.275  0.00  0.00    +0.000 C 
BRANCH  25  26
ATOM     26  C   UNL     1       1.501   9.128  18.538  0.00  0.00    +0.000 A 
ATOM     27  C   UNL     1       2.478   8.773  17.600  0.00  0.00    +0.000 A 
ATOM     28  C   UNL     1       3.187   7.583  17.730  0.00  0.00    +0.000 A 
ATOM     29  C   UNL     1       2.938   6.731  18.811  0.00  0.00    +0.000 A 
ATOM     30  C   UNL     1       3.701   5.575  18.993  0.00  0.00    +0.000 A 
ATOM     31  C   UNL     1       3.485   4.771  20.108  0.00  0.00    +0.000 A 
ATOM     32  C   UNL     1       2.354   4.963  20.895  0.00  0.00    +0.000 A 
ATOM     33  C   UNL     1       1.592   6.118  20.732  0.00  0.00    +0.000 A 
ATOM     34  C   UNL     1       1.933   7.059  19.747  0.00  0.00    +0.000 A 
ATOM     35  C   UNL     1       1.279   8.295  19.644  0.00  0.00    +0.000 A 
ENDBRANCH  25  26
ENDBRANCH   1  25
TORSDOF 7
ENDMDL
MODEL 5
REMARK VINA RESULT:      -7.0      1.146      1.596
REMARK  Name = 
REMARK  9 active torsions:
REMARK  status: ('A' for Active; 'I' for Inactive)
REMARK    1  A    between atoms: C_1  and  N_2
REMARK    2  A    between atoms: N_2  and  C_3
REMARK    3  A    between atoms: C_4  and  C_6
REMARK    4  A    between atoms: C_9  and  N_10
REMARK    5  A    between atoms: N_10  and  C_11
REMARK    6  A    between atoms: C_11  and  C_12
REMARK    7  A    between atoms: C_22  and  C_24
REMARK    8  A    between atoms: C_27  and  O_28
REMARK    9  A    between atoms: C_30  and  O_31
REMARK                            x       y       z     vdW  Elec       q    Type
REMARK                         _______ _______ _______ _____ _____    ______ ____
ROOT
ATOM      1  N   UNL     1       0.554  11.106  19.583  0.00  0.00    +0.000 N 
ATOM      2  C   UNL     1       0.925  11.597  20.879  0.00  0.00    +0.000 C 
ATOM      3  O   UNL     1       2.076  11.523  21.279  0.00  0.00    +0.000 OA
ENDROOT
BRANCH   1   7
ATOM      4  C   UNL     1      -3.465  11.412  18.111  0.00  0.00    +0.000 A 
ATOM      5  C   UNL     1      -2.751  12.520  18.548  0.00  0.00    +0.000 A 
ATOM      6  C   UNL     1      -1.408  12.453  18.961  0.00  0.00    +0.000 A 
ATOM      7  C   UNL     1      -0.752  11.236  18.987  0.00  0.00    +0.000 A 
ATOM      8  C   UNL     1      -1.481  10.081  18.596  0.00  0.00    +0.000 A 
ATOM      9  C   UNL     1      -2.841  10.155  18.199  0.00  0.00    +0.000 A 
BRANCH   4  13
ATOM     10  C   UNL     1      -7.262  11.823  18.076  0.00  0.00    +0.000 C 
ATOM     11  N   UNL     1      -5.918  11.662  18.594  0.00  0.00    +0.000 N 
ATOM     12  C   UNL     1      -5.713  11.989  20.002  0.00  0.00    +0.000 C 
ATOM     13  C   UNL     1      -4.870  11.546  17.647  0.00  0.00    +0.000 C 
ATOM     14  O   UNL     1      -5.098  11.567  16.421  0.00  0.00    +0.000 OA
ENDBRANCH   4  13
ENDBRANCH   1   7
BRANCH   2  15
ATOM     15  C   UNL     1      -0.139  12.171  21.802  0.00  0.00    +0.000 A 
ATOM     16  C   UNL     1      -1.104  11.333  22.378  0.00  0.00    +0.000 A 
ATOM     17  C   UNL     1      -2.177  11.788  23.138  0.00  0.00    +0.000 A 
ATOM     18  C   UNL     1      -2.208  13.125  23.476  0.00  0.00    +0.000 A 
ATOM     19  C   UNL     1      -1.213  13.983  23.013  0.00  0.00    +0.000 A 
ATOM     20  C   UNL     1      -0.197  13.523  22.162  0.00  0.00    +0.000 A 
BRANCH  18  21
ATOM     21  O   UNL     1      -3.199  13.619  24.257  0.00  0.00    +0.000 OA
ATOM     22  H   UNL     1      -3.940  13.894  23.681  0.00  0.00    +0.000 HD
ENDBRANCH  18  21
BRANCH  20  23
ATOM     23  O   UNL     1       0.704  14.428  21.675  0.00  0.00    +0.000 OA
ATOM     24  H   UNL     1       0.258  15.018  21.042  0.00  0.00    +0.000 HD
ENDBRANCH  20  23
ENDBRANCH   2  15
BRANCH   1  25
ATOM     25  C   UNL     1       1.670  10.562  18.779  0.00  0.00    +0.000 C 
BRANCH  25  26
ATOM     26  C   UNL     1       1.908   9.071  18.870  0.00  0.00    +0.000 A 
ATOM     27  C   UNL     1       1.509   8.375  20.017  0.00  0.00    +0.000 A 
ATOM     28  C   UNL     1       1.874   7.045  20.202  0.00  0.00    +0.000 A 
ATOM     29  C   UNL     1       2.638   6.385  19.235  0.00  0.00    +0.000 A 
ATOM     30  C   UNL     1       2.941   5.027  19.375  0.00  0.00    +0.000 A 
ATOM     31  C   UNL     1       3.647   4.368  18.373  0.00  0.00    +0.000 A 
ATOM     32  C   UNL     1       4.274   5.099  17.369  0.00  0.00    +0.000 A 
ATOM     33  C   UNL     1       3.971   6.450  17.211  0.00  0.00    +0.000 A 
ATOM     34  C   UNL     1       3.077   7.083  18.089  0.00  0.00    +0.000 A 
ATOM     35  C   UNL     1       2.640   8.399  17.880  0.00  0.00    +0.000 A 
ENDBRANCH  25  26
ENDBRANCH   1  25
TORSDOF 7
ENDMDL
MODEL 6
REMARK VINA RESULT:      -6.9      2.186      4.814
REMARK  Name = 
REMARK  9 active torsions:
REMARK  status: ('A' for Active; 'I' for Inactive)
REMARK    1  A    between atoms: C_1  and  N_2
REMARK    2  A    between atoms: N_2  and  C_3
REMARK    3  A    between atoms: C_4  and  C_6
REMARK    4  A    between atoms: C_9  and  N_10
REMARK    5  A    between atoms: N_10  and  C_11
REMARK    6  A    between atoms: C_11  and  C_12
REMARK    7  A    between atoms: C_22  and  C_24
REMARK    8  A    between atoms: C_27  and  O_28
REMARK    9  A    between atoms: C_30  and  O_31
REMARK                            x       y       z     vdW  Elec       q    Type
REMARK                         _______ _______ _______ _____ _____    ______ ____
ROOT
ATOM      1  N   UNL     1      -0.061  11.022  18.604  0.00  0.00    +0.000 N 
ATOM      2  C   UNL     1      -0.948  10.359  17.692  0.00  0.00    +0.000 C 
ATOM      3  O   UNL     1      -0.558   9.450  16.976  0.00  0.00    +0.000 OA
ENDROOT
BRANCH   1   7
ATOM      4  C   UNL     1      -0.900  14.023  21.553  0.00  0.00    +0.000 A 
ATOM      5  C   UNL     1      -0.546  14.345  20.249  0.00  0.00    +0.000 A 
ATOM      6  C   UNL     1      -0.343  13.379  19.248  0.00  0.00    +0.000 A 
ATOM      7  C   UNL     1      -0.449  12.035  19.553  0.00  0.00    +0.000 A 
ATOM      8  C   UNL     1      -0.757  11.681  20.895  0.00  0.00    +0.000 A 
ATOM      9  C   UNL     1      -0.941  12.661  21.902  0.00  0.00    +0.000 A 
BRANCH   4  13
ATOM     10  C   UNL     1      -2.580  16.750  23.634  0.00  0.00    +0.000 C 
ATOM     11  N   UNL     1      -2.397  15.744  22.606  0.00  0.00    +0.000 N 
ATOM     12  C   UNL     1      -3.603  15.247  21.952  0.00  0.00    +0.000 C 
ATOM     13  C   UNL     1      -1.142  15.087  22.562  0.00  0.00    +0.000 C 
ATOM     14  O   UNL     1      -0.232  15.372  23.366  0.00  0.00    +0.000 OA
ENDBRANCH   4  13
ENDBRANCH   1   7
BRANCH   2  15
ATOM     15  C   UNL     1      -2.389  10.828  17.565  0.00  0.00    +0.000 A 
ATOM     16  C   UNL     1      -3.127  11.163  18.709  0.00  0.00    +0.000 A 
ATOM     17  C   UNL     1      -4.480  11.489  18.695  0.00  0.00    +0.000 A 
ATOM     18  C   UNL     1      -5.094  11.644  17.470  0.00  0.00    +0.000 A 
ATOM     19  C   UNL     1      -4.375  11.423  16.297  0.00  0.00    +0.000 A 
ATOM     20  C   UNL     1      -3.040  10.994  16.337  0.00  0.00    +0.000 A 
BRANCH  18  21
ATOM     21  O   UNL     1      -6.396  12.011  17.389  0.00  0.00    +0.000 OA
ATOM     22  H   UNL     1      -6.524  12.520  16.564  0.00  0.00    +0.000 HD
ENDBRANCH  18  21
BRANCH  20  23
ATOM     23  O   UNL     1      -2.411  10.714  15.155  0.00  0.00    +0.000 OA
ATOM     24  H   UNL     1      -2.453   9.757  14.987  0.00  0.00    +0.000 HD
ENDBRANCH  20  23
ENDBRANCH   2  15
BRANCH   1  25
ATOM     25  C   UNL     1       1.318  10.487  18.633  0.00  0.00    +0.000 C 
BRANCH  25  26
ATOM     26  C   UNL     1       1.481   9.054  19.088  0.00  0.00    +0.000 A 
ATOM     27  C   UNL     1       1.103   8.693  20.387  0.00  0.00    +0.000 A 
ATOM     28  C   UNL     1       1.406   7.431  20.888  0.00  0.00    +0.000 A 
ATOM     29  C   UNL     1       2.083   6.502  20.092  0.00  0.00    +0.000 A 
ATOM     30  C   UNL     1       2.320   5.206  20.559  0.00  0.00    +0.000 A 
ATOM     31  C   UNL     1       2.938   4.274  19.731  0.00  0.00    +0.000 A 
ATOM     32  C   UNL     1       3.551   4.689  18.554  0.00  0.00    +0.000 A 
ATOM     33  C   UNL     1       3.313   5.974  18.071  0.00  0.00    +0.000 A 
ATOM     34  C   UNL     1       2.500   6.862  18.792  0.00  0.00    +0.000 A 
ATOM     35  C   UNL     1       2.124   8.110  18.274  0.00  0.00    +0.000 A 
ENDBRANCH  25  26
ENDBRANCH   1  25
TORSDOF 7
ENDMDL
MODEL 7
REMARK VINA RESULT:      -6.9      3.251      5.160
REMARK  Name = 
REMARK  9 active torsions:
REMARK  status: ('A' for Active; 'I' for Inactive)
REMARK    1  A    between atoms: C_1  and  N_2
REMARK    2  A    between atoms: N_2  and  C_3
REMARK    3  A    between atoms: C_4  and  C_6
REMARK    4  A    between atoms: C_9  and  N_10
REMARK    5  A    between atoms: N_10  and  C_11
REMARK    6  A    between atoms: C_11  and  C_12
REMARK    7  A    between atoms: C_22  and  C_24
REMARK    8  A    between atoms: C_27  and  O_28
REMARK    9  A    between atoms: C_30  and  O_31
REMARK                            x       y       z     vdW  Elec       q    Type
REMARK                         _______ _______ _______ _____ _____    ______ ____
ROOT
ATOM      1  N   UNL     1       0.968  11.957  19.206  0.00  0.00    +0.000 N 
ATOM      2  C   UNL     1       2.197  12.515  18.719  0.00  0.00    +0.000 C 
ATOM      3  O   UNL     1       2.784  12.023  17.768  0.00  0.00    +0.000 OA
ENDROOT
BRANCH   1   7
ATOM      4  C   UNL     1      -1.707  13.457  22.206  0.00  0.00    +0.000 A 
ATOM      5  C   UNL     1      -0.868  12.375  22.437  0.00  0.00    +0.000 A 
ATOM      6  C   UNL     1       0.070  11.917  21.496  0.00  0.00    +0.000 A 
ATOM      7  C   UNL     1       0.157  12.521  20.255  0.00  0.00    +0.000 A 
ATOM      8  C   UNL     1      -0.730  13.597  19.978  0.00  0.00    +0.000 A 
ATOM      9  C   UNL     1      -1.686  14.040  20.926  0.00  0.00    +0.000 A 
BRANCH   4  13
ATOM     10  C   UNL     1      -3.194  15.282  25.214  0.00  0.00    +0.000 C 
ATOM     11  N   UNL     1      -2.214  14.840  24.241  0.00  0.00    +0.000 N 
ATOM     12  C   UNL     1      -0.988  15.627  24.140  0.00  0.00    +0.000 C 
ATOM     13  C   UNL     1      -2.652  13.925  23.253  0.00  0.00    +0.000 C 
ATOM     14  O   UNL     1      -3.828  13.509  23.230  0.00  0.00    +0.000 OA
ENDBRANCH   4  13
ENDBRANCH   1   7
BRANCH   2  15
ATOM     15  C   UNL     1       2.819  13.707  19.430  0.00  0.00    +0.000 A 
ATOM     16  C   UNL     1       2.960  13.704  20.825  0.00  0.00    +0.000 A 
ATOM     17  C   UNL     1       3.410  14.795  21.564  0.00  0.00    +0.000 A 
ATOM     18  C   UNL     1       3.894  15.887  20.875  0.00  0.00    +0.000 A 
ATOM     19  C   UNL     1       3.872  15.896  19.481  0.00  0.00    +0.000 A 
ATOM     20  C   UNL     1       3.318  14.829  18.758  0.00  0.00    +0.000 A 
BRANCH  18  21
ATOM     21  O   UNL     1       4.394  16.958  21.536  0.00  0.00    +0.000 OA
ATOM     22  H   UNL     1       5.243  17.209  21.123  0.00  0.00    +0.000 HD
ENDBRANCH  18  21
BRANCH  20  23
ATOM     23  O   UNL     1       3.250  14.931  17.396  0.00  0.00    +0.000 OA
ATOM     24  H   UNL     1       2.414  14.543  17.086  0.00  0.00    +0.000 HD
ENDBRANCH  20  23
ENDBRANCH   2  15
BRANCH   1  25
ATOM     25  C   UNL     1       0.465  10.795  18.442  0.00  0.00    +0.000 C 
BRANCH  25  26
ATOM     26  C   UNL     1       1.072   9.450  18.772  0.00  0.00    +0.000 A 
ATOM     27  C   UNL     1       0.919   8.919  20.058  0.00  0.00    +0.000 A 
ATOM     28  C   UNL     1       1.614   7.775  20.440  0.00  0.00    +0.000 A 
ATOM     29  C   UNL     1       2.467   7.137  19.535  0.00  0.00    +0.000 A 
ATOM     30  C   UNL     1       3.106   5.943  19.884  0.00  0.00    +0.000 A 
ATOM     31  C   UNL     1       3.901   5.285  18.951  0.00  0.00    +0.000 A 
ATOM     32  C   UNL     1       4.272   5.930  17.776  0.00  0.00    +0.000 A 
ATOM     33  C   UNL     1       3.634   7.114  17.411  0.00  0.00    +0.000 A 
ATOM     34  C   UNL     1       2.657   7.678  18.246  0.00  0.00    +0.000 A 
ATOM     35  C   UNL     1       1.896   8.788  17.850  0.00  0.00    +0.000 A 
ENDBRANCH  25  26
ENDBRANCH   1  25
TORSDOF 7
ENDMDL
MODEL 8
REMARK VINA RESULT:      -6.9      2.089      4.710
REMARK  Name = 
REMARK  9 active torsions:
REMARK  status: ('A' for Active; 'I' for Inactive)
REMARK    1  A    between atoms: C_1  and  N_2
REMARK    2  A    between atoms: N_2  and  C_3
REMARK    3  A    between atoms: C_4  and  C_6
REMARK    4  A    between atoms: C_9  and  N_10
REMARK    5  A    between atoms: N_10  and  C_11
REMARK    6  A    between atoms: C_11  and  C_12
REMARK    7  A    between atoms: C_22  and  C_24
REMARK    8  A    between atoms: C_27  and  O_28
REMARK    9  A    between atoms: C_30  and  O_31
REMARK                            x       y       z     vdW  Elec       q    Type
REMARK                         _______ _______ _______ _____ _____    ______ ____
ROOT
ATOM      1  N   UNL     1      -0.342  11.160  18.880  0.00  0.00    +0.000 N 
ATOM      2  C   UNL     1      -1.156  10.509  17.894  0.00  0.00    +0.000 C 
ATOM      3  O   UNL     1      -0.686   9.677  17.134  0.00  0.00    +0.000 OA
ENDROOT
BRANCH   1   7
ATOM      4  C   UNL     1      -2.087  13.848  21.733  0.00  0.00    +0.000 A 
ATOM      5  C   UNL     1      -1.836  12.515  22.030  0.00  0.00    +0.000 A 
ATOM      6  C   UNL     1      -1.194  11.638  21.138  0.00  0.00    +0.000 A 
ATOM      7  C   UNL     1      -0.824  12.079  19.881  0.00  0.00    +0.000 A 
ATOM      8  C   UNL     1      -1.121  13.426  19.536  0.00  0.00    +0.000 A 
ATOM      9  C   UNL     1      -1.784  14.298  20.435  0.00  0.00    +0.000 A 
BRANCH   4  13
ATOM     10  C   UNL     1      -4.709  15.759  23.749  0.00  0.00    +0.000 C 
ATOM     11  N   UNL     1      -4.140  14.898  22.731  0.00  0.00    +0.000 N 
ATOM     12  C   UNL     1      -5.062  14.001  22.039  0.00  0.00    +0.000 C 
ATOM     13  C   UNL     1      -2.732  14.742  22.729  0.00  0.00    +0.000 C 
ATOM     14  O   UNL     1      -2.013  15.332  23.561  0.00  0.00    +0.000 OA
ENDBRANCH   4  13
ENDBRANCH   1   7
BRANCH   2  15
ATOM     15  C   UNL     1      -2.619  10.897  17.748  0.00  0.00    +0.000 A 
ATOM     16  C   UNL     1      -3.462  10.914  18.868  0.00  0.00    +0.000 A 
ATOM     17  C   UNL     1      -4.834  11.143  18.806  0.00  0.00    +0.000 A 
ATOM     18  C   UNL     1      -5.370  11.530  17.597  0.00  0.00    +0.000 A 
ATOM     19  C   UNL     1      -4.554  11.629  16.472  0.00  0.00    +0.000 A 
ATOM     20  C   UNL     1      -3.193  11.292  16.533  0.00  0.00    +0.000 A 
BRANCH  18  21
ATOM     21  O   UNL     1      -6.690  11.818  17.484  0.00  0.00    +0.000 OA
ATOM     22  H   UNL     1      -6.796  12.790  17.483  0.00  0.00    +0.000 HD
ENDBRANCH  18  21
BRANCH  20  23
ATOM     23  O   UNL     1      -2.460  11.330  15.380  0.00  0.00    +0.000 OA
ATOM     24  H   UNL     1      -2.860  11.969  14.765  0.00  0.00    +0.000 HD
ENDBRANCH  20  23
ENDBRANCH   2  15
BRANCH   1  25
ATOM     25  C   UNL     1       1.066  10.710  18.923  0.00  0.00    +0.000 C 
BRANCH  25  26
ATOM     26  C   UNL     1       1.305   9.260  19.284  0.00  0.00    +0.000 A 
ATOM     27  C   UNL     1       0.945   8.795  20.555  0.00  0.00    +0.000 A 
ATOM     28  C   UNL     1       1.314   7.520  20.973  0.00  0.00    +0.000 A 
ATOM     29  C   UNL     1       2.042   6.684  20.121  0.00  0.00    +0.000 A 
ATOM     30  C   UNL     1       2.346   5.374  20.503  0.00  0.00    +0.000 A 
ATOM     31  C   UNL     1       3.014   4.533  19.619  0.00  0.00    +0.000 A 
ATOM     32  C   UNL     1       3.606   5.056  18.474  0.00  0.00    +0.000 A 
ATOM     33  C   UNL     1       3.301   6.356  18.075  0.00  0.00    +0.000 A 
ATOM     34  C   UNL     1       2.440   7.150  18.850  0.00  0.00    +0.000 A 
ATOM     35  C   UNL     1       1.999   8.408  18.413  0.00  0.00    +0.000 A 
ENDBRANCH  25  26
ENDBRANCH   1  25
TORSDOF 7
ENDMDL
MODEL 9
REMARK VINA RESULT:      -6.8      2.248      5.097
REMARK  Name = 
REMARK  9 active torsions:
REMARK  status: ('A' for Active; 'I' for Inactive)
REMARK    1  A    between atoms: C_1  and  N_2
REMARK    2  A    between atoms: N_2  and  C_3
REMARK    3  A    between atoms: C_4  and  C_6
REMARK    4  A    between atoms: C_9  and  N_10
REMARK    5  A    between atoms: N_10  and  C_11
REMARK    6  A    between atoms: C_11  and  C_12
REMARK    7  A    between atoms: C_22  and  C_24
REMARK    8  A    between atoms: C_27  and  O_28
REMARK    9  A    between atoms: C_30  and  O_31
REMARK                            x       y       z     vdW  Elec       q    Type
REMARK                         _______ _______ _______ _____ _____    ______ ____
ROOT
ATOM      1  N   UNL     1      -0.151  11.254  18.598  0.00  0.00    +0.000 N 
ATOM      2  C   UNL     1      -1.028  10.469  17.778  0.00  0.00    +0.000 C 
ATOM      3  O   UNL     1      -0.629   9.473  17.195  0.00  0.00    +0.000 OA
ENDROOT
BRANCH   1   7
ATOM      4  C   UNL     1      -1.020  14.634  21.094  0.00  0.00    +0.000 A 
ATOM      5  C   UNL     1      -0.711  14.769  19.747  0.00  0.00    +0.000 A 
ATOM      6  C   UNL     1      -0.499  13.671  18.894  0.00  0.00    +0.000 A 
ATOM      7  C   UNL     1      -0.550  12.384  19.398  0.00  0.00    +0.000 A 
ATOM      8  C   UNL     1      -0.811  12.225  20.786  0.00  0.00    +0.000 A 
ATOM      9  C   UNL     1      -1.005  13.339  21.642  0.00  0.00    +0.000 A 
BRANCH   4  13
ATOM     10  C   UNL     1      -0.525  17.577  23.478  0.00  0.00    +0.000 C 
ATOM     11  N   UNL     1      -0.219  16.393  22.698  0.00  0.00    +0.000 N 
ATOM     12  C   UNL     1       1.194  16.101  22.476  0.00  0.00    +0.000 C 
ATOM     13  C   UNL     1      -1.274  15.828  21.941  0.00  0.00    +0.000 C 
ATOM     14  O   UNL     1      -2.420  16.321  21.955  0.00  0.00    +0.000 OA
ENDBRANCH   4  13
ENDBRANCH   1   7
BRANCH   2  15
ATOM     15  C   UNL     1      -2.470  10.909  17.579  0.00  0.00    +0.000 A 
ATOM     16  C   UNL     1      -3.262  11.260  18.681  0.00  0.00    +0.000 A 
ATOM     17  C   UNL     1      -4.618  11.561  18.601  0.00  0.00    +0.000 A 
ATOM     18  C   UNL     1      -5.182  11.676  17.348  0.00  0.00    +0.000 A 
ATOM     19  C   UNL     1      -4.409  11.438  16.212  0.00  0.00    +0.000 A 
ATOM     20  C   UNL     1      -3.070  11.034  16.319  0.00  0.00    +0.000 A 
BRANCH  18  21
ATOM     21  O   UNL     1      -6.485  12.018  17.202  0.00  0.00    +0.000 OA
ATOM     22  H   UNL     1      -6.528  12.937  16.872  0.00  0.00    +0.000 HD
ENDBRANCH  18  21
BRANCH  20  23
ATOM     23  O   UNL     1      -2.386  10.736  15.173  0.00  0.00    +0.000 OA
ATOM     24  H   UNL     1      -1.963   9.865  15.268  0.00  0.00    +0.000 HD
ENDBRANCH  20  23
ENDBRANCH   2  15
BRANCH   1  25
ATOM     25  C   UNL     1       1.230  10.734  18.710  0.00  0.00    +0.000 C 
BRANCH  25  26
ATOM     26  C   UNL     1       1.381   9.305  19.180  0.00  0.00    +0.000 A 
ATOM     27  C   UNL     1       0.929   8.944  20.455  0.00  0.00    +0.000 A 
ATOM     28  C   UNL     1       1.215   7.687  20.979  0.00  0.00    +0.000 A 
ATOM     29  C   UNL     1       1.951   6.764  20.230  0.00  0.00    +0.000 A 
ATOM     30  C   UNL     1       2.174   5.472  20.715  0.00  0.00    +0.000 A 
ATOM     31  C   UNL     1       2.852   4.545  19.931  0.00  0.00    +0.000 A 
ATOM     32  C   UNL     1       3.531   4.963  18.791  0.00  0.00    +0.000 A 
ATOM     33  C   UNL     1       3.309   6.244  18.290  0.00  0.00    +0.000 A 
ATOM     34  C   UNL     1       2.442   7.124  18.956  0.00  0.00    +0.000 A 
ATOM     35  C   UNL     1       2.084   8.366  18.411  0.00  0.00    +0.000 A 
ENDBRANCH  25  26
ENDBRANCH   1  25
TORSDOF 7
ENDMDL
