MODEL 1
REMARK VINA RESULT:      -8.0      0.000      0.000
REMARK  Name = 
REMARK  4 active torsions:
REMARK  status: ('A' for Active; 'I' for Inactive)
REMARK    1  A    between atoms: C_1  and  O_2
REMARK    2  A    between atoms: O_2  and  C_3
REMARK    3  A    between atoms: N_18  and  C_19
REMARK    4  A    between atoms: C_19  and  C_20
REMARK                            x       y       z     vdW  Elec       q    Type
REMARK                         _______ _______ _______ _____ _____    ______ ____
ROOT
ATOM      1  C   UNL     1       3.046   4.458  18.606  0.00  0.00    +0.000 A 
ATOM      2  C   UNL     1       2.792   4.140  19.940  0.00  0.00    +0.000 A 
ATOM      3  C   UNL     1       2.268   5.096  20.840  0.00  0.00    +0.000 A 
ATOM      4  C   UNL     1       2.006   6.390  20.356  0.00  0.00    +0.000 A 
ATOM      5  N   UNL     1       1.449   7.517  20.972  0.00  0.00    +0.000 N 
ATOM      6  C   UNL     1       1.370   8.552  20.068  0.00  0.00    +0.000 A 
ATOM      7  C   UNL     1       1.991   8.107  18.908  0.00  0.00    +0.000 A 
ATOM      8  C   UNL     1       2.311   6.739  19.040  0.00  0.00    +0.000 A 
ATOM      9  C   UNL     1       2.847   5.769  18.168  0.00  0.00    +0.000 A 
ATOM     10  C   UNL     1       2.213   8.991  17.726  0.00  0.00    +0.000 C 
ATOM     11  C   UNL     1       1.946  10.482  18.048  0.00  0.00    +0.000 C 
ATOM     12  N   UNL     1       1.730  10.815  19.471  0.00  0.00    +0.000 NA
ATOM     13  C   UNL     1       0.725   9.928  20.132  0.00  0.00    +0.000 C 
ATOM     14  C   UNL     1      -0.607   9.841  19.357  0.00  0.00    +0.000 C 
ATOM     15  C   UNL     1      -1.251  11.158  19.674  0.00  0.00    +0.000 C 
ATOM     16  N   UNL     1      -1.193  11.156  21.147  0.00  0.00    +0.000 NA
ATOM     17  C   UNL     1       0.193  10.632  21.459  0.00  0.00    +0.000 C 
ATOM     18  H   UNL     1       1.144   7.543  21.935  0.00  0.00    +0.000 HD
ATOM     19  H   UNL     1       1.480  11.795  19.570  0.00  0.00    +0.000 HD
ENDROOT
BRANCH   1  21
ATOM     20  C   UNL     1       3.435   2.213  17.927  0.00  0.00    +0.000 C 
ATOM     21  O   UNL     1       3.540   3.605  17.654  0.00  0.00    +0.000 OA
ENDBRANCH   1  21
BRANCH  16  22
ATOM     22  C   UNL     1      -1.586  12.509  21.591  0.00  0.00    +0.000 C 
BRANCH  22  23
ATOM     23  C   UNL     1      -2.843  12.714  22.412  0.00  0.00    +0.000 A 
ATOM     24  C   UNL     1      -2.932  12.539  23.796  0.00  0.00    +0.000 A 
ATOM     25  C   UNL     1      -4.175  12.615  24.440  0.00  0.00    +0.000 A 
ATOM     26  C   UNL     1      -5.330  12.853  23.705  0.00  0.00    +0.000 A 
ATOM     27  F   UNL     1      -6.510  12.905  24.349  0.00  0.00    +0.000 F 
ATOM     28  C   UNL     1      -5.283  13.002  22.331  0.00  0.00    +0.000 A 
ATOM     29  C   UNL     1      -4.046  12.927  21.702  0.00  0.00    +0.000 A 
ATOM     30  F   UNL     1      -4.014  13.000  20.363  0.00  0.00    +0.000 F 
ENDBRANCH  22  23
ENDBRANCH  16  22
TORSDOF 3
ENDMDL
MODEL 2
REMARK VINA RESULT:      -7.7      5.037      9.743
REMARK  Name = 
REMARK  4 active torsions:
REMARK  status: ('A' for Active; 'I' for Inactive)
REMARK    1  A    between atoms: C_1  and  O_2
REMARK    2  A    between atoms: O_2  and  C_3
REMARK    3  A    between atoms: N_18  and  C_19
REMARK    4  A    between atoms: C_19  and  C_20
REMARK                            x       y       z     vdW  Elec       q    Type
REMARK                         _______ _______ _______ _____ _____    ______ ____
ROOT
ATOM      1  C   UNL     1      -4.867  12.011  18.262  0.00  0.00    +0.000 A 
ATOM      2  C   UNL     1      -4.875  11.377  17.019  0.00  0.00    +0.000 A 
ATOM      3  C   UNL     1      -3.736  10.695  16.532  0.00  0.00    +0.000 A 
ATOM      4  C   UNL     1      -2.582  10.669  17.336  0.00  0.00    +0.000 A 
ATOM      5  N   UNL     1      -1.342  10.045  17.160  0.00  0.00    +0.000 N 
ATOM      6  C   UNL     1      -0.536  10.293  18.249  0.00  0.00    +0.000 A 
ATOM      7  C   UNL     1      -1.236  11.177  19.061  0.00  0.00    +0.000 A 
ATOM      8  C   UNL     1      -2.541  11.350  18.554  0.00  0.00    +0.000 A 
ATOM      9  C   UNL     1      -3.687  12.034  19.008  0.00  0.00    +0.000 A 
ATOM     10  C   UNL     1      -0.643  11.778  20.291  0.00  0.00    +0.000 C 
ATOM     11  C   UNL     1       0.884  11.539  20.385  0.00  0.00    +0.000 C 
ATOM     12  N   UNL     1       1.531  10.964  19.189  0.00  0.00    +0.000 NA
ATOM     13  C   UNL     1       0.824   9.755  18.667  0.00  0.00    +0.000 C 
ATOM     14  C   UNL     1       0.574   8.685  19.752  0.00  0.00    +0.000 C 
ATOM     15  C   UNL     1       1.933   8.075  19.921  0.00  0.00    +0.000 C 
ATOM     16  N   UNL     1       2.263   7.724  18.528  0.00  0.00    +0.000 NA
ATOM     17  C   UNL     1       1.813   8.930  17.729  0.00  0.00    +0.000 C 
ATOM     18  H   UNL     1      -1.097   9.489  16.354  0.00  0.00    +0.000 HD
ATOM     19  H   UNL     1       2.510  10.767  19.378  0.00  0.00    +0.000 HD
ENDROOT
BRANCH   1  21
ATOM     20  C   UNL     1      -6.753  11.945  19.709  0.00  0.00    +0.000 C 
ATOM     21  O   UNL     1      -5.917  12.686  18.829  0.00  0.00    +0.000 OA
ENDBRANCH   1  21
BRANCH  16  22
ATOM     22  C   UNL     1       3.685   7.321  18.515  0.00  0.00    +0.000 C 
BRANCH  22  23
ATOM     23  C   UNL     1       4.157   6.197  17.616  0.00  0.00    +0.000 A 
ATOM     24  C   UNL     1       3.558   4.936  17.530  0.00  0.00    +0.000 A 
ATOM     25  C   UNL     1       4.158   3.919  16.775  0.00  0.00    +0.000 A 
ATOM     26  C   UNL     1       5.358   4.152  16.114  0.00  0.00    +0.000 A 
ATOM     27  F   UNL     1       5.917   3.152  15.409  0.00  0.00    +0.000 F 
ATOM     28  C   UNL     1       5.992   5.378  16.200  0.00  0.00    +0.000 A 
ATOM     29  C   UNL     1       5.389   6.380  16.951  0.00  0.00    +0.000 A 
ATOM     30  F   UNL     1       6.044   7.543  17.091  0.00  0.00    +0.000 F 
ENDBRANCH  22  23
ENDBRANCH  16  22
TORSDOF 3
ENDMDL
MODEL 3
REMARK VINA RESULT:      -7.6      0.993      1.292
REMARK  Name = 
REMARK  4 active torsions:
REMARK  status: ('A' for Active; 'I' for Inactive)
REMARK    1  A    between atoms: C_1  and  O_2
REMARK    2  A    between atoms: O_2  and  C_3
REMARK    3  A    between atoms: N_18  and  C_19
REMARK    4  A    between atoms: C_19  and  C_20
REMARK                            x       y       z     vdW  Elec       q    Type
REMARK                         _______ _______ _______ _____ _____    ______ ____
ROOT
ATOM      1  C   UNL     1       3.010   4.348  18.799  0.00  0.00    +0.000 A 
ATOM      2  C   UNL     1       2.744   4.108  20.147  0.00  0.00    +0.000 A 
ATOM      3  C   UNL     1       2.235   5.122  20.990  0.00  0.00    +0.000 A 
ATOM      4  C   UNL     1       2.000   6.393  20.435  0.00  0.00    +0.000 A 
ATOM      5  N   UNL     1       1.462   7.562  20.984  0.00  0.00    +0.000 N 
ATOM      6  C   UNL     1       1.408   8.548  20.025  0.00  0.00    +0.000 A 
ATOM      7  C   UNL     1       2.026   8.028  18.894  0.00  0.00    +0.000 A 
ATOM      8  C   UNL     1       2.318   6.663  19.103  0.00  0.00    +0.000 A 
ATOM      9  C   UNL     1       2.839   5.636  18.288  0.00  0.00    +0.000 A 
ATOM     10  C   UNL     1       2.270   8.840  17.667  0.00  0.00    +0.000 C 
ATOM     11  C   UNL     1       2.031  10.352  17.905  0.00  0.00    +0.000 C 
ATOM     12  N   UNL     1       1.815  10.767  19.306  0.00  0.00    +0.000 NA
ATOM     13  C   UNL     1       0.790   9.937  20.009  0.00  0.00    +0.000 C 
ATOM     14  C   UNL     1      -0.540   9.834  19.233  0.00  0.00    +0.000 C 
ATOM     15  C   UNL     1      -1.159  11.178  19.473  0.00  0.00    +0.000 C 
ATOM     16  N   UNL     1      -1.108  11.256  20.944  0.00  0.00    +0.000 NA
ATOM     17  C   UNL     1       0.266  10.723  21.293  0.00  0.00    +0.000 C 
ATOM     18  H   UNL     1       1.153   7.648  21.942  0.00  0.00    +0.000 HD
ATOM     19  H   UNL     1       1.584  11.755  19.349  0.00  0.00    +0.000 HD
ENDROOT
BRANCH   1  21
ATOM     20  C   UNL     1       4.315   3.939  16.853  0.00  0.00    +0.000 C 
ATOM     21  O   UNL     1       3.491   3.434  17.897  0.00  0.00    +0.000 OA
ENDBRANCH   1  21
BRANCH  16  22
ATOM     22  C   UNL     1      -1.477  12.639  21.311  0.00  0.00    +0.000 C 
BRANCH  22  23
ATOM     23  C   UNL     1      -2.810  12.931  21.968  0.00  0.00    +0.000 A 
ATOM     24  C   UNL     1      -3.707  13.920  21.554  0.00  0.00    +0.000 A 
ATOM     25  C   UNL     1      -4.848  14.204  22.317  0.00  0.00    +0.000 A 
ATOM     26  C   UNL     1      -5.090  13.513  23.498  0.00  0.00    +0.000 A 
ATOM     27  F   UNL     1      -6.186  13.819  24.216  0.00  0.00    +0.000 F 
ATOM     28  C   UNL     1      -4.210  12.549  23.953  0.00  0.00    +0.000 A 
ATOM     29  C   UNL     1      -3.082  12.274  23.189  0.00  0.00    +0.000 A 
ATOM     30  F   UNL     1      -2.195  11.390  23.671  0.00  0.00    +0.000 F 
ENDBRANCH  22  23
ENDBRANCH  16  22
TORSDOF 3
ENDMDL
MODEL 4
REMARK VINA RESULT:      -7.6      5.607     10.814
REMARK  Name = 
REMARK  4 active torsions:
REMARK  status: ('A' for Active; 'I' for Inactive)
REMARK    1  A    between atoms: C_1  and  O_2
REMARK    2  A    between atoms: O_2  and  C_3
REMARK    3  A    between atoms: N_18  and  C_19
REMARK    4  A    between atoms: C_19  and  C_20
REMARK                            x       y       z     vdW  Elec       q    Type
REMARK                         _______ _______ _______ _____ _____    ______ ____
ROOT
ATOM      1  C   UNL     1      -0.503  10.625  20.731  0.00  0.00    +0.000 A 
ATOM      2  C   UNL     1       0.066  11.406  19.726  0.00  0.00    +0.000 A 
ATOM      3  C   UNL     1       1.085  10.900  18.886  0.00  0.00    +0.000 A 
ATOM      4  C   UNL     1       1.517   9.577  19.089  0.00  0.00    +0.000 A 
ATOM      5  N   UNL     1       2.448   8.789  18.403  0.00  0.00    +0.000 N 
ATOM      6  C   UNL     1       2.505   7.535  18.969  0.00  0.00    +0.000 A 
ATOM      7  C   UNL     1       1.688   7.574  20.092  0.00  0.00    +0.000 A 
ATOM      8  C   UNL     1       0.999   8.805  20.130  0.00  0.00    +0.000 A 
ATOM      9  C   UNL     1      -0.006   9.341  20.961  0.00  0.00    +0.000 A 
ATOM     10  C   UNL     1       1.576   6.431  21.044  0.00  0.00    +0.000 C 
ATOM     11  C   UNL     1       2.664   5.355  20.802  0.00  0.00    +0.000 C 
ATOM     12  N   UNL     1       3.732   5.709  19.845  0.00  0.00    +0.000 NA
ATOM     13  C   UNL     1       3.205   6.249  18.555  0.00  0.00    +0.000 C 
ATOM     14  C   UNL     1       2.139   5.339  17.909  0.00  0.00    +0.000 C 
ATOM     15  C   UNL     1       2.966   4.223  17.346  0.00  0.00    +0.000 C 
ATOM     16  N   UNL     1       3.951   4.975  16.547  0.00  0.00    +0.000 NA
ATOM     17  C   UNL     1       4.335   6.138  17.437  0.00  0.00    +0.000 C 
ATOM     18  H   UNL     1       2.981   9.106  17.606  0.00  0.00    +0.000 HD
ATOM     19  H   UNL     1       4.345   4.914  19.690  0.00  0.00    +0.000 HD
ENDROOT
BRANCH   1  21
ATOM     20  C   UNL     1      -1.156  11.118  22.965  0.00  0.00    +0.000 C 
ATOM     21  O   UNL     1      -1.500  11.015  21.588  0.00  0.00    +0.000 OA
ENDBRANCH   1  21
BRANCH  16  22
ATOM     22  C   UNL     1       4.981   4.005  16.117  0.00  0.00    +0.000 C 
BRANCH  22  23
ATOM     23  C   UNL     1       5.614   4.114  14.745  0.00  0.00    +0.000 A 
ATOM     24  C   UNL     1       5.195   3.410  13.613  0.00  0.00    +0.000 A 
ATOM     25  C   UNL     1       5.938   3.474  12.426  0.00  0.00    +0.000 A 
ATOM     26  C   UNL     1       7.104   4.228  12.370  0.00  0.00    +0.000 A 
ATOM     27  F   UNL     1       7.804   4.257  11.221  0.00  0.00    +0.000 F 
ATOM     28  C   UNL     1       7.564   4.913  13.479  0.00  0.00    +0.000 A 
ATOM     29  C   UNL     1       6.819   4.845  14.650  0.00  0.00    +0.000 A 
ATOM     30  F   UNL     1       7.307   5.452  15.743  0.00  0.00    +0.000 F 
ENDBRANCH  22  23
ENDBRANCH  16  22
TORSDOF 3
ENDMDL
MODEL 5
REMARK VINA RESULT:      -7.6      4.822      9.597
REMARK  Name = 
REMARK  4 active torsions:
REMARK  status: ('A' for Active; 'I' for Inactive)
REMARK    1  A    between atoms: C_1  and  O_2
REMARK    2  A    between atoms: O_2  and  C_3
REMARK    3  A    between atoms: N_18  and  C_19
REMARK    4  A    between atoms: C_19  and  C_20
REMARK                            x       y       z     vdW  Elec       q    Type
REMARK                         _______ _______ _______ _____ _____    ______ ____
ROOT
ATOM      1  C   UNL     1      -4.882  13.054  20.071  0.00  0.00    +0.000 A 
ATOM      2  C   UNL     1      -5.287  12.407  18.903  0.00  0.00    +0.000 A 
ATOM      3  C   UNL     1      -4.387  11.623  18.145  0.00  0.00    +0.000 A 
ATOM      4  C   UNL     1      -3.061  11.508  18.598  0.00  0.00    +0.000 A 
ATOM      5  N   UNL     1      -1.972  10.777  18.109  0.00  0.00    +0.000 N 
ATOM      6  C   UNL     1      -0.878  10.968  18.922  0.00  0.00    +0.000 A 
ATOM      7  C   UNL     1      -1.251  11.919  19.864  0.00  0.00    +0.000 A 
ATOM      8  C   UNL     1      -2.628  12.198  19.732  0.00  0.00    +0.000 A 
ATOM      9  C   UNL     1      -3.543  12.985  20.460  0.00  0.00    +0.000 A 
ATOM     10  C   UNL     1      -0.293  12.482  20.859  0.00  0.00    +0.000 C 
ATOM     11  C   UNL     1       1.176  12.114  20.535  0.00  0.00    +0.000 C 
ATOM     12  N   UNL     1       1.416  11.470  19.228  0.00  0.00    +0.000 NA
ATOM     13  C   UNL     1       0.498  10.320  18.967  0.00  0.00    +0.000 C 
ATOM     14  C   UNL     1       0.477   9.290  20.116  0.00  0.00    +0.000 C 
ATOM     15  C   UNL     1       1.776   8.567  19.925  0.00  0.00    +0.000 C 
ATOM     16  N   UNL     1       1.675   8.171  18.509  0.00  0.00    +0.000 NA
ATOM     17  C   UNL     1       1.117   9.401  17.823  0.00  0.00    +0.000 C 
ATOM     18  H   UNL     1      -2.006  10.192  17.287  0.00  0.00    +0.000 HD
ATOM     19  H   UNL     1       2.390  11.192  19.146  0.00  0.00    +0.000 HD
ENDROOT
BRANCH   1  21
ATOM     20  C   UNL     1      -5.575  13.593  22.281  0.00  0.00    +0.000 C 
ATOM     21  O   UNL     1      -5.675  13.824  20.882  0.00  0.00    +0.000 OA
ENDBRANCH   1  21
BRANCH  16  22
ATOM     22  C   UNL     1       3.000   7.647  18.117  0.00  0.00    +0.000 C 
BRANCH  22  23
ATOM     23  C   UNL     1       3.186   6.173  17.820  0.00  0.00    +0.000 A 
ATOM     24  C   UNL     1       2.240   5.178  18.084  0.00  0.00    +0.000 A 
ATOM     25  C   UNL     1       2.566   3.826  17.903  0.00  0.00    +0.000 A 
ATOM     26  C   UNL     1       3.837   3.465  17.473  0.00  0.00    +0.000 A 
ATOM     27  F   UNL     1       4.125   2.159  17.324  0.00  0.00    +0.000 F 
ATOM     28  C   UNL     1       4.806   4.421  17.230  0.00  0.00    +0.000 A 
ATOM     29  C   UNL     1       4.473   5.758  17.410  0.00  0.00    +0.000 A 
ATOM     30  F   UNL     1       5.437   6.675  17.244  0.00  0.00    +0.000 F 
ENDBRANCH  22  23
ENDBRANCH  16  22
TORSDOF 3
ENDMDL
MODEL 6
REMARK VINA RESULT:      -7.5      4.875      9.640
REMARK  Name = 
REMARK  4 active torsions:
REMARK  status: ('A' for Active; 'I' for Inactive)
REMARK    1  A    between atoms: C_1  and  O_2
REMARK    2  A    between atoms: O_2  and  C_3
REMARK    3  A    between atoms: N_18  and  C_19
REMARK    4  A    between atoms: C_19  and  C_20
REMARK                            x       y       z     vdW  Elec       q    Type
REMARK                         _______ _______ _______ _____ _____    ______ ____
ROOT
ATOM      1  C   UNL     1      -4.692  12.072  18.234  0.00  0.00    +0.000 A 
ATOM      2  C   UNL     1      -4.680  11.417  17.003  0.00  0.00    +0.000 A 
ATOM      3  C   UNL     1      -3.550  10.689  16.565  0.00  0.00    +0.000 A 
ATOM      4  C   UNL     1      -2.425  10.639  17.409  0.00  0.00    +0.000 A 
ATOM      5  N   UNL     1      -1.201   9.971  17.286  0.00  0.00    +0.000 N 
ATOM      6  C   UNL     1      -0.424  10.211  18.397  0.00  0.00    +0.000 A 
ATOM      7  C   UNL     1      -1.121  11.131  19.171  0.00  0.00    +0.000 A 
ATOM      8  C   UNL     1      -2.402  11.339  18.616  0.00  0.00    +0.000 A 
ATOM      9  C   UNL     1      -3.539  12.069  19.020  0.00  0.00    +0.000 A 
ATOM     10  C   UNL     1      -0.550  11.733  20.411  0.00  0.00    +0.000 C 
ATOM     11  C   UNL     1       0.964  11.446  20.561  0.00  0.00    +0.000 C 
ATOM     12  N   UNL     1       1.632  10.829  19.396  0.00  0.00    +0.000 NA
ATOM     13  C   UNL     1       0.901   9.635  18.870  0.00  0.00    +0.000 C 
ATOM     14  C   UNL     1       0.580   8.593  19.963  0.00  0.00    +0.000 C 
ATOM     15  C   UNL     1       1.911   7.941  20.189  0.00  0.00    +0.000 C 
ATOM     16  N   UNL     1       2.275   7.556  18.813  0.00  0.00    +0.000 NA
ATOM     17  C   UNL     1       1.893   8.761  17.980  0.00  0.00    +0.000 C 
ATOM     18  H   UNL     1      -0.948   9.394  16.497  0.00  0.00    +0.000 HD
ATOM     19  H   UNL     1       2.596  10.603  19.621  0.00  0.00    +0.000 HD
ENDROOT
BRANCH   1  21
ATOM     20  C   UNL     1      -6.773  12.049  19.387  0.00  0.00    +0.000 C 
ATOM     21  O   UNL     1      -5.738  12.791  18.754  0.00  0.00    +0.000 OA
ENDBRANCH   1  21
BRANCH  16  22
ATOM     22  C   UNL     1       3.682   7.106  18.855  0.00  0.00    +0.000 C 
BRANCH  22  23
ATOM     23  C   UNL     1       4.269   6.311  17.707  0.00  0.00    +0.000 A 
ATOM     24  C   UNL     1       4.866   6.867  16.571  0.00  0.00    +0.000 A 
ATOM     25  C   UNL     1       5.250   6.047  15.501  0.00  0.00    +0.000 A 
ATOM     26  C   UNL     1       5.028   4.677  15.555  0.00  0.00    +0.000 A 
ATOM     27  F   UNL     1       5.393   3.918  14.505  0.00  0.00    +0.000 F 
ATOM     28  C   UNL     1       4.414   4.096  16.649  0.00  0.00    +0.000 A 
ATOM     29  C   UNL     1       4.039   4.917  17.706  0.00  0.00    +0.000 A 
ATOM     30  F   UNL     1       3.378   4.360  18.732  0.00  0.00    +0.000 F 
ENDBRANCH  22  23
ENDBRANCH  16  22
TORSDOF 3
ENDMDL
MODEL 7
REMARK VINA RESULT:      -7.4      4.621      9.456
REMARK  Name = 
REMARK  4 active torsions:
REMARK  status: ('A' for Active; 'I' for Inactive)
REMARK    1  A    between atoms: C_1  and  O_2
REMARK    2  A    between atoms: O_2  and  C_3
REMARK    3  A    between atoms: N_18  and  C_19
REMARK    4  A    between atoms: C_19  and  C_20
REMARK                            x       y       z     vdW  Elec       q    Type
REMARK                         _______ _______ _______ _____ _____    ______ ____
ROOT
ATOM      1  C   UNL     1      -4.945  12.319  18.807  0.00  0.00    +0.000 A 
ATOM      2  C   UNL     1      -5.127  11.556  17.655  0.00  0.00    +0.000 A 
ATOM      3  C   UNL     1      -4.085  10.762  17.123  0.00  0.00    +0.000 A 
ATOM      4  C   UNL     1      -2.846  10.759  17.790  0.00  0.00    +0.000 A 
ATOM      5  N   UNL     1      -1.663  10.052  17.548  0.00  0.00    +0.000 N 
ATOM      6  C   UNL     1      -0.724  10.370  18.503  0.00  0.00    +0.000 A 
ATOM      7  C   UNL     1      -1.284  11.375  19.282  0.00  0.00    +0.000 A 
ATOM      8  C   UNL     1      -2.632  11.565  18.909  0.00  0.00    +0.000 A 
ATOM      9  C   UNL     1      -3.685  12.358  19.409  0.00  0.00    +0.000 A 
ATOM     10  C   UNL     1      -0.525  12.072  20.361  0.00  0.00    +0.000 C 
ATOM     11  C   UNL     1       0.991  11.761  20.309  0.00  0.00    +0.000 C 
ATOM     12  N   UNL     1       1.467  11.023  19.121  0.00  0.00    +0.000 NA
ATOM     13  C   UNL     1       0.651   9.806  18.824  0.00  0.00    +0.000 C 
ATOM     14  C   UNL     1       0.487   8.876  20.045  0.00  0.00    +0.000 C 
ATOM     15  C   UNL     1       1.829   8.213  20.129  0.00  0.00    +0.000 C 
ATOM     16  N   UNL     1       1.975   7.695  18.757  0.00  0.00    +0.000 NA
ATOM     17  C   UNL     1       1.486   8.830  17.881  0.00  0.00    +0.000 C 
ATOM     18  H   UNL     1      -1.539   9.398  16.787  0.00  0.00    +0.000 HD
ATOM     19  H   UNL     1       2.451  10.793  19.219  0.00  0.00    +0.000 HD
ENDROOT
BRANCH   1  21
ATOM     20  C   UNL     1      -7.170  12.526  19.621  0.00  0.00    +0.000 C 
ATOM     21  O   UNL     1      -5.890  13.110  19.408  0.00  0.00    +0.000 OA
ENDBRANCH   1  21
BRANCH  16  22
ATOM     22  C   UNL     1       3.367   7.214  18.629  0.00  0.00    +0.000 C 
BRANCH  22  23
ATOM     23  C   UNL     1       3.652   5.755  18.339  0.00  0.00    +0.000 A 
ATOM     24  C   UNL     1       4.109   5.257  17.115  0.00  0.00    +0.000 A 
ATOM     25  C   UNL     1       4.206   3.874  16.906  0.00  0.00    +0.000 A 
ATOM     26  C   UNL     1       3.836   2.987  17.910  0.00  0.00    +0.000 A 
ATOM     27  F   UNL     1       3.925   1.665  17.674  0.00  0.00    +0.000 F 
ATOM     28  C   UNL     1       3.352   3.444  19.122  0.00  0.00    +0.000 A 
ATOM     29  C   UNL     1       3.262   4.816  19.320  0.00  0.00    +0.000 A 
ATOM     30  F   UNL     1       2.725   5.253  20.469  0.00  0.00    +0.000 F 
ENDBRANCH  22  23
ENDBRANCH  16  22
TORSDOF 3
ENDMDL
MODEL 8
REMARK VINA RESULT:      -7.3      5.187      9.716
REMARK  Name = 
REMARK  4 active torsions:
REMARK  status: ('A' for Active; 'I' for Inactive)
REMARK    1  A    between atoms: C_1  and  O_2
REMARK    2  A    between atoms: O_2  and  C_3
REMARK    3  A    between atoms: N_18  and  C_19
REMARK    4  A    between atoms: C_19  and  C_20
REMARK                            x       y       z     vdW  Elec       q    Type
REMARK                         _______ _______ _______ _____ _____    ______ ____
ROOT
ATOM      1  C   UNL     1       0.523  16.379  19.650  0.00  0.00    +0.000 A 
ATOM      2  C   UNL     1       1.420  16.199  20.702  0.00  0.00    +0.000 A 
ATOM      3  C   UNL     1       1.812  14.908  21.124  0.00  0.00    +0.000 A 
ATOM      4  C   UNL     1       1.273  13.797  20.450  0.00  0.00    +0.000 A 
ATOM      5  N   UNL     1       1.501  12.423  20.593  0.00  0.00    +0.000 N 
ATOM      6  C   UNL     1       0.748  11.726  19.676  0.00  0.00    +0.000 A 
ATOM      7  C   UNL     1      -0.049  12.664  19.030  0.00  0.00    +0.000 A 
ATOM      8  C   UNL     1       0.329  13.962  19.436  0.00  0.00    +0.000 A 
ATOM      9  C   UNL     1      -0.055  15.261  19.046  0.00  0.00    +0.000 A 
ATOM     10  C   UNL     1      -1.095  12.282  18.037  0.00  0.00    +0.000 C 
ATOM     11  C   UNL     1      -1.377  10.759  18.037  0.00  0.00    +0.000 C 
ATOM     12  N   UNL     1      -0.750   9.977  19.122  0.00  0.00    +0.000 NA
ATOM     13  C   UNL     1       0.710  10.259  19.275  0.00  0.00    +0.000 C 
ATOM     14  C   UNL     1       1.493  10.130  17.952  0.00  0.00    +0.000 C 
ATOM     15  C   UNL     1       1.585   8.644  17.775  0.00  0.00    +0.000 C 
ATOM     16  N   UNL     1       2.156   8.239  19.073  0.00  0.00    +0.000 NA
ATOM     17  C   UNL     1       1.395   9.069  20.084  0.00  0.00    +0.000 C 
ATOM     18  H   UNL     1       2.138  12.022  21.267  0.00  0.00    +0.000 HD
ATOM     19  H   UNL     1      -0.922   8.985  18.987  0.00  0.00    +0.000 HD
ENDROOT
BRANCH   1  21
ATOM     20  C   UNL     1      -1.099  17.565  18.376  0.00  0.00    +0.000 C 
ATOM     21  O   UNL     1       0.089  17.584  19.159  0.00  0.00    +0.000 OA
ENDBRANCH   1  21
BRANCH  16  22
ATOM     22  C   UNL     1       2.085   6.764  19.128  0.00  0.00    +0.000 C 
BRANCH  22  23
ATOM     23  C   UNL     1       3.082   5.917  18.365  0.00  0.00    +0.000 A 
ATOM     24  C   UNL     1       4.295   6.381  17.847  0.00  0.00    +0.000 A 
ATOM     25  C   UNL     1       5.080   5.552  17.033  0.00  0.00    +0.000 A 
ATOM     26  C   UNL     1       4.653   4.267  16.725  0.00  0.00    +0.000 A 
ATOM     27  F   UNL     1       5.420   3.500  15.929  0.00  0.00    +0.000 F 
ATOM     28  C   UNL     1       3.445   3.785  17.196  0.00  0.00    +0.000 A 
ATOM     29  C   UNL     1       2.675   4.613  18.003  0.00  0.00    +0.000 A 
ATOM     30  F   UNL     1       1.472   4.168  18.396  0.00  0.00    +0.000 F 
ENDBRANCH  22  23
ENDBRANCH  16  22
TORSDOF 3
ENDMDL
MODEL 9
REMARK VINA RESULT:      -7.3      1.480      1.785
REMARK  Name = 
REMARK  4 active torsions:
REMARK  status: ('A' for Active; 'I' for Inactive)
REMARK    1  A    between atoms: C_1  and  O_2
REMARK    2  A    between atoms: O_2  and  C_3
REMARK    3  A    between atoms: N_18  and  C_19
REMARK    4  A    between atoms: C_19  and  C_20
REMARK                            x       y       z     vdW  Elec       q    Type
REMARK                         _______ _______ _______ _____ _____    ______ ____
ROOT
ATOM      1  C   UNL     1       2.960   4.189  18.975  0.00  0.00    +0.000 A 
ATOM      2  C   UNL     1       2.663   4.016  20.326  0.00  0.00    +0.000 A 
ATOM      3  C   UNL     1       2.165   5.078  21.114  0.00  0.00    +0.000 A 
ATOM      4  C   UNL     1       1.974   6.329  20.499  0.00  0.00    +0.000 A 
ATOM      5  N   UNL     1       1.457   7.535  20.987  0.00  0.00    +0.000 N 
ATOM      6  C   UNL     1       1.447   8.478  19.984  0.00  0.00    +0.000 A 
ATOM      7  C   UNL     1       2.072   7.893  18.890  0.00  0.00    +0.000 A 
ATOM      8  C   UNL     1       2.324   6.532  19.163  0.00  0.00    +0.000 A 
ATOM      9  C   UNL     1       2.832   5.458  18.405  0.00  0.00    +0.000 A 
ATOM     10  C   UNL     1       2.360   8.645  17.633  0.00  0.00    +0.000 C 
ATOM     11  C   UNL     1       2.156  10.171  17.801  0.00  0.00    +0.000 C 
ATOM     12  N   UNL     1       1.925  10.653  19.178  0.00  0.00    +0.000 NA
ATOM     13  C   UNL     1       0.866   9.881  19.896  0.00  0.00    +0.000 C 
ATOM     14  C   UNL     1      -0.452   9.777  19.099  0.00  0.00    +0.000 C 
ATOM     15  C   UNL     1      -1.040  11.146  19.268  0.00  0.00    +0.000 C 
ATOM     16  N   UNL     1      -1.014  11.287  20.735  0.00  0.00    +0.000 NA
ATOM     17  C   UNL     1       0.339  10.736  21.133  0.00  0.00    +0.000 C 
ATOM     18  H   UNL     1       1.133   7.670  21.934  0.00  0.00    +0.000 HD
ATOM     19  H   UNL     1       1.720  11.647  19.174  0.00  0.00    +0.000 HD
ENDROOT
BRANCH   1  21
ATOM     20  C   UNL     1       3.042   1.884  18.394  0.00  0.00    +0.000 C 
ATOM     21  O   UNL     1       3.434   3.224  18.123  0.00  0.00    +0.000 OA
ENDBRANCH   1  21
BRANCH  16  22
ATOM     22  C   UNL     1      -1.353  12.694  21.034  0.00  0.00    +0.000 C 
BRANCH  22  23
ATOM     23  C   UNL     1      -1.867  13.087  22.404  0.00  0.00    +0.000 A 
ATOM     24  C   UNL     1      -3.122  12.745  22.916  0.00  0.00    +0.000 A 
ATOM     25  C   UNL     1      -3.557  13.278  24.137  0.00  0.00    +0.000 A 
ATOM     26  C   UNL     1      -2.749  14.161  24.842  0.00  0.00    +0.000 A 
ATOM     27  F   UNL     1      -3.200  14.668  26.004  0.00  0.00    +0.000 F 
ATOM     28  C   UNL     1      -1.514  14.544  24.352  0.00  0.00    +0.000 A 
ATOM     29  C   UNL     1      -1.091  14.008  23.142  0.00  0.00    +0.000 A 
ATOM     30  F   UNL     1       0.075  14.439  22.636  0.00  0.00    +0.000 F 
ENDBRANCH  22  23
ENDBRANCH  16  22
TORSDOF 3
ENDMDL
