MODEL 1
REMARK VINA RESULT:      -9.9      0.000      0.000
REMARK  Name = 
REMARK  5 active torsions:
REMARK  status: ('A' for Active; 'I' for Inactive)
REMARK    1  A    between atoms: C_1  and  C_2
REMARK    2  A    between atoms: N_4  and  C_5
REMARK    3  A    between atoms: C_8  and  C_9
REMARK    4  A    between atoms: C_9  and  O_10
REMARK    5  A    between atoms: O_10  and  P_11
REMARK                            x       y       z     vdW  Elec       q    Type
REMARK                         _______ _______ _______ _____ _____    ______ ____
ROOT
ATOM      1  C   UNL     1       8.019   8.683  17.555  0.00  0.00    +0.000 C 
ENDROOT
BRANCH   1   5
ATOM      2  C   UNL     1       9.678  11.736  17.816  0.00  0.00    +0.000 C 
ATOM      3  C   UNL     1      10.113  11.081  19.082  0.00  0.00    +0.000 C 
ATOM      4  C   UNL     1       9.294  10.069  19.372  0.00  0.00    +0.000 C 
ATOM      5  C   UNL     1       8.202  10.012  18.364  0.00  0.00    +0.000 C 
ATOM      6  O   UNL     1       8.346  11.222  17.575  0.00  0.00    +0.000 OA
BRANCH   2  10
ATOM      7  C   UNL     1       8.190  16.235  19.602  0.00  0.00    +0.000 C 
ATOM      8  C   UNL     1       9.061  15.308  18.806  0.00  0.00    +0.000 A 
ATOM      9  C   UNL     1       8.912  13.976  18.690  0.00  0.00    +0.000 A 
ATOM     10  N   UNL     1       9.761  13.199  17.916  0.00  0.00    +0.000 N 
ATOM     11  C   UNL     1      10.849  13.767  17.259  0.00  0.00    +0.000 A 
ATOM     12  O   UNL     1      11.685  13.129  16.637  0.00  0.00    +0.000 OA
ATOM     13  N   UNL     1      10.969  15.131  17.346  0.00  0.00    +0.000 N 
ATOM     14  C   UNL     1      10.180  15.957  18.079  0.00  0.00    +0.000 A 
ATOM     15  O   UNL     1      10.391  17.168  18.150  0.00  0.00    +0.000 OA
ATOM     16  H   UNL     1      11.763  15.541  16.882  0.00  0.00    +0.000 HD
ENDBRANCH   2  10
ENDBRANCH   1   5
BRANCH   1  17
ATOM     17  O   UNL     1       7.972   7.353  18.164  0.00  0.00    +0.000 OA
BRANCH  17  18
ATOM     18  P   UNL     1       6.979   6.359  17.287  0.00  0.00    +0.000 P 
ATOM     19  O   UNL     1       7.544   6.053  15.932  0.00  0.00    +0.000 OA
ATOM     20  O   UNL     1       6.901   5.089  18.277  0.00  0.00    +0.000 OA
ATOM     21  C   UNL     1       6.095   5.255  19.442  0.00  0.00    +0.000 C 
ATOM     22  C   UNL     1       4.690   5.738  19.117  0.00  0.00    +0.000 A 
ATOM     23  C   UNL     1       3.626   5.327  19.912  0.00  0.00    +0.000 A 
ATOM     24  C   UNL     1       2.584   4.640  19.305  0.00  0.00    +0.000 A 
ATOM     25  C   UNL     1       1.719   3.933  20.128  0.00  0.00    +0.000 A 
ATOM     26  C   UNL     1       1.564   2.587  19.865  0.00  0.00    +0.000 A 
ATOM     27  C   UNL     1       1.746   2.165  18.555  0.00  0.00    +0.000 A 
ATOM     28  C   UNL     1       2.176   3.081  17.565  0.00  0.00    +0.000 A 
ATOM     29  C   UNL     1       2.706   4.349  17.937  0.00  0.00    +0.000 A 
ATOM     30  C   UNL     1       3.498   5.250  17.141  0.00  0.00    +0.000 A 
ATOM     31  C   UNL     1       4.470   6.025  17.787  0.00  0.00    +0.000 A 
ATOM     32  O   UNL     1       5.422   6.840  17.211  0.00  0.00    +0.000 OA
ENDBRANCH  17  18
ENDBRANCH   1  17
TORSDOF 4
ENDMDL
MODEL 2
REMARK VINA RESULT:      -9.3      0.993      1.186
REMARK  Name = 
REMARK  5 active torsions:
REMARK  status: ('A' for Active; 'I' for Inactive)
REMARK    1  A    between atoms: C_1  and  C_2
REMARK    2  A    between atoms: N_4  and  C_5
REMARK    3  A    between atoms: C_8  and  C_9
REMARK    4  A    between atoms: C_9  and  O_10
REMARK    5  A    between atoms: O_10  and  P_11
REMARK                            x       y       z     vdW  Elec       q    Type
REMARK                         _______ _______ _______ _____ _____    ______ ____
ROOT
ATOM      1  C   UNL     1       8.036   8.416  17.716  0.00  0.00    +0.000 C 
ENDROOT
BRANCH   1   5
ATOM      2  C   UNL     1       9.520  11.567  17.755  0.00  0.00    +0.000 C 
ATOM      3  C   UNL     1      10.009  11.019  19.052  0.00  0.00    +0.000 C 
ATOM      4  C   UNL     1       9.254   9.984  19.419  0.00  0.00    +0.000 C 
ATOM      5  C   UNL     1       8.153   9.802  18.436  0.00  0.00    +0.000 C 
ATOM      6  O   UNL     1       8.217  10.965  17.571  0.00  0.00    +0.000 OA
BRANCH   2  10
ATOM      7  C   UNL     1       7.628  16.081  19.057  0.00  0.00    +0.000 C 
ATOM      8  C   UNL     1       8.625  15.155  18.425  0.00  0.00    +0.000 A 
ATOM      9  C   UNL     1       8.554  13.812  18.386  0.00  0.00    +0.000 A 
ATOM     10  N   UNL     1       9.520  13.036  17.762  0.00  0.00    +0.000 N 
ATOM     11  C   UNL     1      10.645  13.621  17.187  0.00  0.00    +0.000 A 
ATOM     12  O   UNL     1      11.574  12.993  16.703  0.00  0.00    +0.000 OA
ATOM     13  N   UNL     1      10.688  14.992  17.191  0.00  0.00    +0.000 N 
ATOM     14  C   UNL     1       9.784  15.819  17.778  0.00  0.00    +0.000 A 
ATOM     15  O   UNL     1       9.927  17.041  17.787  0.00  0.00    +0.000 OA
ATOM     16  H   UNL     1      11.508  15.415  16.787  0.00  0.00    +0.000 HD
ENDBRANCH   2  10
ENDBRANCH   1   5
BRANCH   1  17
ATOM     17  O   UNL     1       6.820   7.933  17.060  0.00  0.00    +0.000 OA
BRANCH  17  18
ATOM     18  P   UNL     1       6.709   6.287  17.202  0.00  0.00    +0.000 P 
ATOM     19  O   UNL     1       8.055   5.626  17.150  0.00  0.00    +0.000 OA
ATOM     20  O   UNL     1       5.969   6.174  18.630  0.00  0.00    +0.000 OA
ATOM     21  C   UNL     1       4.580   6.502  18.640  0.00  0.00    +0.000 C 
ATOM     22  C   UNL     1       3.791   5.735  17.591  0.00  0.00    +0.000 A 
ATOM     23  C   UNL     1       2.473   5.380  17.854  0.00  0.00    +0.000 A 
ATOM     24  C   UNL     1       2.140   4.033  17.822  0.00  0.00    +0.000 A 
ATOM     25  C   UNL     1       0.946   3.655  18.419  0.00  0.00    +0.000 A 
ATOM     26  C   UNL     1       1.016   2.689  19.402  0.00  0.00    +0.000 A 
ATOM     27  C   UNL     1       2.054   1.770  19.325  0.00  0.00    +0.000 A 
ATOM     28  C   UNL     1       3.048   1.902  18.326  0.00  0.00    +0.000 A 
ATOM     29  C   UNL     1       3.174   3.113  17.589  0.00  0.00    +0.000 A 
ATOM     30  C   UNL     1       4.297   3.568  16.810  0.00  0.00    +0.000 A 
ATOM     31  C   UNL     1       4.552   4.945  16.757  0.00  0.00    +0.000 A 
ATOM     32  O   UNL     1       5.637   5.582  16.194  0.00  0.00    +0.000 OA
ENDBRANCH  17  18
ENDBRANCH   1  17
TORSDOF 4
ENDMDL
MODEL 3
REMARK VINA RESULT:      -9.1      1.303      1.497
REMARK  Name = 
REMARK  5 active torsions:
REMARK  status: ('A' for Active; 'I' for Inactive)
REMARK    1  A    between atoms: C_1  and  C_2
REMARK    2  A    between atoms: N_4  and  C_5
REMARK    3  A    between atoms: C_8  and  C_9
REMARK    4  A    between atoms: C_9  and  O_10
REMARK    5  A    between atoms: O_10  and  P_11
REMARK                            x       y       z     vdW  Elec       q    Type
REMARK                         _______ _______ _______ _____ _____    ______ ____
ROOT
ATOM      1  C   UNL     1       7.646   7.881  17.300  0.00  0.00    +0.000 C 
ENDROOT
BRANCH   1   5
ATOM      2  C   UNL     1       9.247  10.926  17.846  0.00  0.00    +0.000 C 
ATOM      3  C   UNL     1       9.708  10.159  19.039  0.00  0.00    +0.000 C 
ATOM      4  C   UNL     1       8.912   9.107  19.234  0.00  0.00    +0.000 C 
ATOM      5  C   UNL     1       7.811   9.127  18.235  0.00  0.00    +0.000 C 
ATOM      6  O   UNL     1       7.924  10.412  17.567  0.00  0.00    +0.000 OA
BRANCH   2  10
ATOM      7  C   UNL     1      11.442  15.127  19.629  0.00  0.00    +0.000 C 
ATOM      8  C   UNL     1      10.381  14.347  18.909  0.00  0.00    +0.000 A 
ATOM      9  C   UNL     1      10.336  13.011  18.762  0.00  0.00    +0.000 A 
ATOM     10  N   UNL     1       9.303  12.373  18.090  0.00  0.00    +0.000 N 
ATOM     11  C   UNL     1       8.284  13.106  17.486  0.00  0.00    +0.000 A 
ATOM     12  O   UNL     1       7.397  12.615  16.805  0.00  0.00    +0.000 OA
ATOM     13  N   UNL     1       8.314  14.463  17.678  0.00  0.00    +0.000 N 
ATOM     14  C   UNL     1       9.287  15.159  18.323  0.00  0.00    +0.000 A 
ATOM     15  O   UNL     1       9.268  16.387  18.401  0.00  0.00    +0.000 OA
ATOM     16  H   UNL     1       7.585  14.995  17.230  0.00  0.00    +0.000 HD
ENDBRANCH   2  10
ENDBRANCH   1   5
BRANCH   1  17
ATOM     17  O   UNL     1       8.072   6.527  17.658  0.00  0.00    +0.000 OA
BRANCH  17  18
ATOM     18  P   UNL     1       6.990   5.416  17.077  0.00  0.00    +0.000 P 
ATOM     19  O   UNL     1       7.542   4.648  15.912  0.00  0.00    +0.000 OA
ATOM     20  O   UNL     1       6.752   4.530  18.403  0.00  0.00    +0.000 OA
ATOM     21  C   UNL     1       5.948   5.130  19.418  0.00  0.00    +0.000 C 
ATOM     22  C   UNL     1       4.612   5.628  18.887  0.00  0.00    +0.000 A 
ATOM     23  C   UNL     1       3.495   5.594  19.713  0.00  0.00    +0.000 A 
ATOM     24  C   UNL     1       2.394   4.862  19.293  0.00  0.00    +0.000 A 
ATOM     25  C   UNL     1       1.440   4.537  20.246  0.00  0.00    +0.000 A 
ATOM     26  C   UNL     1       1.138   3.198  20.400  0.00  0.00    +0.000 A 
ATOM     27  C   UNL     1       1.296   2.375  19.294  0.00  0.00    +0.000 A 
ATOM     28  C   UNL     1       1.844   2.891  18.095  0.00  0.00    +0.000 A 
ATOM     29  C   UNL     1       2.506   4.150  18.088  0.00  0.00    +0.000 A 
ATOM     30  C   UNL     1       3.409   4.675  17.096  0.00  0.00    +0.000 A 
ATOM     31  C   UNL     1       4.451   5.509  17.524  0.00  0.00    +0.000 A 
ATOM     32  O   UNL     1       5.498   6.005  16.776  0.00  0.00    +0.000 OA
ENDBRANCH  17  18
ENDBRANCH   1  17
TORSDOF 4
ENDMDL
MODEL 4
REMARK VINA RESULT:      -8.7      1.214      1.571
REMARK  Name = 
REMARK  5 active torsions:
REMARK  status: ('A' for Active; 'I' for Inactive)
REMARK    1  A    between atoms: C_1  and  C_2
REMARK    2  A    between atoms: N_4  and  C_5
REMARK    3  A    between atoms: C_8  and  C_9
REMARK    4  A    between atoms: C_9  and  O_10
REMARK    5  A    between atoms: O_10  and  P_11
REMARK                            x       y       z     vdW  Elec       q    Type
REMARK                         _______ _______ _______ _____ _____    ______ ____
ROOT
ATOM      1  C   UNL     1       8.213   8.938  17.832  0.00  0.00    +0.000 C 
ENDROOT
BRANCH   1   5
ATOM      2  C   UNL     1       8.972  12.337  17.747  0.00  0.00    +0.000 C 
ATOM      3  C   UNL     1      10.339  11.755  17.862  0.00  0.00    +0.000 C 
ATOM      4  C   UNL     1      10.261  10.498  18.299  0.00  0.00    +0.000 C 
ATOM      5  C   UNL     1       8.840  10.161  18.583  0.00  0.00    +0.000 C 
ATOM      6  O   UNL     1       8.119  11.416  18.468  0.00  0.00    +0.000 OA
BRANCH   2  10
ATOM      7  C   UNL     1      11.068  16.437  19.854  0.00  0.00    +0.000 C 
ATOM      8  C   UNL     1       9.965  15.655  19.205  0.00  0.00    +0.000 A 
ATOM      9  C   UNL     1      10.018  14.366  18.823  0.00  0.00    +0.000 A 
ATOM     10  N   UNL     1       8.937  13.719  18.242  0.00  0.00    +0.000 N 
ATOM     11  C   UNL     1       7.752  14.403  17.980  0.00  0.00    +0.000 A 
ATOM     12  O   UNL     1       6.797  13.919  17.392  0.00  0.00    +0.000 OA
ATOM     13  N   UNL     1       7.690  15.702  18.413  0.00  0.00    +0.000 N 
ATOM     14  C   UNL     1       8.702  16.402  18.989  0.00  0.00    +0.000 A 
ATOM     15  O   UNL     1       8.582  17.588  19.297  0.00  0.00    +0.000 OA
ATOM     16  H   UNL     1       6.838  16.201  18.212  0.00  0.00    +0.000 HD
ENDBRANCH   2  10
ENDBRANCH   1   5
BRANCH   1  17
ATOM     17  O   UNL     1       8.118   7.591  18.396  0.00  0.00    +0.000 OA
BRANCH  17  18
ATOM     18  P   UNL     1       7.204   6.623  17.412  0.00  0.00    +0.000 P 
ATOM     19  O   UNL     1       7.836   6.433  16.065  0.00  0.00    +0.000 OA
ATOM     20  O   UNL     1       7.140   5.285  18.309  0.00  0.00    +0.000 OA
ATOM     21  C   UNL     1       6.281   5.338  19.447  0.00  0.00    +0.000 C 
ATOM     22  C   UNL     1       4.871   5.787  19.095  0.00  0.00    +0.000 A 
ATOM     23  C   UNL     1       3.794   5.281  19.814  0.00  0.00    +0.000 A 
ATOM     24  C   UNL     1       2.807   4.598  19.118  0.00  0.00    +0.000 A 
ATOM     25  C   UNL     1       1.940   3.803  19.853  0.00  0.00    +0.000 A 
ATOM     26  C   UNL     1       1.851   2.473  19.492  0.00  0.00    +0.000 A 
ATOM     27  C   UNL     1       2.103   2.151  18.166  0.00  0.00    +0.000 A 
ATOM     28  C   UNL     1       2.534   3.150  17.260  0.00  0.00    +0.000 A 
ATOM     29  C   UNL     1       2.995   4.408  17.740  0.00  0.00    +0.000 A 
ATOM     30  C   UNL     1       3.781   5.393  17.041  0.00  0.00    +0.000 A 
ATOM     31  C   UNL     1       4.693   6.158  17.780  0.00  0.00    +0.000 A 
ATOM     32  O   UNL     1       5.632   7.047  17.302  0.00  0.00    +0.000 OA
ENDBRANCH  17  18
ENDBRANCH   1  17
TORSDOF 4
ENDMDL
MODEL 5
REMARK VINA RESULT:      -8.6      1.188      1.780
REMARK  Name = 
REMARK  5 active torsions:
REMARK  status: ('A' for Active; 'I' for Inactive)
REMARK    1  A    between atoms: C_1  and  C_2
REMARK    2  A    between atoms: N_4  and  C_5
REMARK    3  A    between atoms: C_8  and  C_9
REMARK    4  A    between atoms: C_9  and  O_10
REMARK    5  A    between atoms: O_10  and  P_11
REMARK                            x       y       z     vdW  Elec       q    Type
REMARK                         _______ _______ _______ _____ _____    ______ ____
ROOT
ATOM      1  C   UNL     1       8.210   7.972  17.405  0.00  0.00    +0.000 C 
ENDROOT
BRANCH   1   5
ATOM      2  C   UNL     1       9.378  11.237  17.730  0.00  0.00    +0.000 C 
ATOM      3  C   UNL     1       9.676  10.705  19.090  0.00  0.00    +0.000 C 
ATOM      4  C   UNL     1       8.962   9.601  19.309  0.00  0.00    +0.000 C 
ATOM      5  C   UNL     1       8.074   9.346  18.144  0.00  0.00    +0.000 C 
ATOM      6  O   UNL     1       8.187  10.530  17.311  0.00  0.00    +0.000 OA
BRANCH   2  10
ATOM      7  C   UNL     1       6.886  15.541  18.685  0.00  0.00    +0.000 C 
ATOM      8  C   UNL     1       8.061  14.719  18.244  0.00  0.00    +0.000 A 
ATOM      9  C   UNL     1       8.117  13.376  18.184  0.00  0.00    +0.000 A 
ATOM     10  N   UNL     1       9.247  12.700  17.747  0.00  0.00    +0.000 N 
ATOM     11  C   UNL     1      10.403  13.393  17.396  0.00  0.00    +0.000 A 
ATOM     12  O   UNL     1      11.458  12.858  17.090  0.00  0.00    +0.000 OA
ATOM     13  N   UNL     1      10.323  14.762  17.417  0.00  0.00    +0.000 N 
ATOM     14  C   UNL     1       9.256  15.494  17.830  0.00  0.00    +0.000 A 
ATOM     15  O   UNL     1       9.286  16.724  17.873  0.00  0.00    +0.000 OA
ATOM     16  H   UNL     1      11.163  15.263  17.176  0.00  0.00    +0.000 HD
ENDBRANCH   2  10
ENDBRANCH   1   5
BRANCH   1  17
ATOM     17  O   UNL     1       7.079   7.107  17.067  0.00  0.00    +0.000 OA
BRANCH  17  18
ATOM     18  P   UNL     1       6.777   6.051  18.306  0.00  0.00    +0.000 P 
ATOM     19  O   UNL     1       7.882   6.043  19.320  0.00  0.00    +0.000 OA
ATOM     20  O   UNL     1       5.380   6.644  18.851  0.00  0.00    +0.000 OA
ATOM     21  C   UNL     1       4.235   6.386  18.041  0.00  0.00    +0.000 C 
ATOM     22  C   UNL     1       4.072   4.910  17.712  0.00  0.00    +0.000 A 
ATOM     23  C   UNL     1       2.795   4.380  17.569  0.00  0.00    +0.000 A 
ATOM     24  C   UNL     1       2.423   3.334  18.402  0.00  0.00    +0.000 A 
ATOM     25  C   UNL     1       1.069   3.050  18.507  0.00  0.00    +0.000 A 
ATOM     26  C   UNL     1       0.523   3.062  19.775  0.00  0.00    +0.000 A 
ATOM     27  C   UNL     1       1.362   2.755  20.837  0.00  0.00    +0.000 A 
ATOM     28  C   UNL     1       2.744   2.543  20.614  0.00  0.00    +0.000 A 
ATOM     29  C   UNL     1       3.343   2.924  19.380  0.00  0.00    +0.000 A 
ATOM     30  C   UNL     1       4.741   3.118  19.092  0.00  0.00    +0.000 A 
ATOM     31  C   UNL     1       5.094   4.101  18.159  0.00  0.00    +0.000 A 
ATOM     32  O   UNL     1       6.360   4.545  17.837  0.00  0.00    +0.000 OA
ENDBRANCH  17  18
ENDBRANCH   1  17
TORSDOF 4
ENDMDL
MODEL 6
REMARK VINA RESULT:      -8.5      1.434      1.767
REMARK  Name = 
REMARK  5 active torsions:
REMARK  status: ('A' for Active; 'I' for Inactive)
REMARK    1  A    between atoms: C_1  and  C_2
REMARK    2  A    between atoms: N_4  and  C_5
REMARK    3  A    between atoms: C_8  and  C_9
REMARK    4  A    between atoms: C_9  and  O_10
REMARK    5  A    between atoms: O_10  and  P_11
REMARK                            x       y       z     vdW  Elec       q    Type
REMARK                         _______ _______ _______ _____ _____    ______ ____
ROOT
ATOM      1  C   UNL     1       8.029   8.392  17.637  0.00  0.00    +0.000 C 
ENDROOT
BRANCH   1   5
ATOM      2  C   UNL     1       9.527  11.531  17.830  0.00  0.00    +0.000 C 
ATOM      3  C   UNL     1      10.051  10.902  19.076  0.00  0.00    +0.000 C 
ATOM      4  C   UNL     1       9.302   9.848  19.399  0.00  0.00    +0.000 C 
ATOM      5  C   UNL     1       8.173   9.730  18.439  0.00  0.00    +0.000 C 
ATOM      6  O   UNL     1       8.217  10.945  17.645  0.00  0.00    +0.000 OA
BRANCH   2  10
ATOM      7  C   UNL     1      11.783  15.996  18.617  0.00  0.00    +0.000 C 
ATOM      8  C   UNL     1      10.636  15.094  18.267  0.00  0.00    +0.000 A 
ATOM      9  C   UNL     1      10.654  13.749  18.250  0.00  0.00    +0.000 A 
ATOM     10  N   UNL     1       9.535  12.996  17.928  0.00  0.00    +0.000 N 
ATOM     11  C   UNL     1       8.343  13.612  17.553  0.00  0.00    +0.000 A 
ATOM     12  O   UNL     1       7.350  13.011  17.172  0.00  0.00    +0.000 OA
ATOM     13  N   UNL     1       8.319  14.982  17.616  0.00  0.00    +0.000 N 
ATOM     14  C   UNL     1       9.369  15.787  17.923  0.00  0.00    +0.000 A 
ATOM     15  O   UNL     1       9.279  17.014  17.900  0.00  0.00    +0.000 OA
ATOM     16  H   UNL     1       7.462  15.428  17.332  0.00  0.00    +0.000 HD
ENDBRANCH   2  10
ENDBRANCH   1   5
BRANCH   1  17
ATOM     17  O   UNL     1       6.775   7.920  17.047  0.00  0.00    +0.000 OA
BRANCH  17  18
ATOM     18  P   UNL     1       6.670   6.272  17.173  0.00  0.00    +0.000 P 
ATOM     19  O   UNL     1       8.016   5.615  17.104  0.00  0.00    +0.000 OA
ATOM     20  O   UNL     1       5.942   6.143  18.606  0.00  0.00    +0.000 OA
ATOM     21  C   UNL     1       4.553   6.469  18.631  0.00  0.00    +0.000 C 
ATOM     22  C   UNL     1       3.755   5.711  17.581  0.00  0.00    +0.000 A 
ATOM     23  C   UNL     1       2.441   5.350  17.851  0.00  0.00    +0.000 A 
ATOM     24  C   UNL     1       2.110   4.003  17.808  0.00  0.00    +0.000 A 
ATOM     25  C   UNL     1       0.922   3.616  18.412  0.00  0.00    +0.000 A 
ATOM     26  C   UNL     1       1.002   2.640  19.384  0.00  0.00    +0.000 A 
ATOM     27  C   UNL     1       2.041   1.724  19.289  0.00  0.00    +0.000 A 
ATOM     28  C   UNL     1       3.027   1.868  18.283  0.00  0.00    +0.000 A 
ATOM     29  C   UNL     1       3.144   3.087  17.557  0.00  0.00    +0.000 A 
ATOM     30  C   UNL     1       4.259   3.552  16.773  0.00  0.00    +0.000 A 
ATOM     31  C   UNL     1       4.511   4.930  16.733  0.00  0.00    +0.000 A 
ATOM     32  O   UNL     1       5.591   5.576  16.168  0.00  0.00    +0.000 OA
ENDBRANCH  17  18
ENDBRANCH   1  17
TORSDOF 4
ENDMDL
MODEL 7
REMARK VINA RESULT:      -8.4      1.269      1.411
REMARK  Name = 
REMARK  5 active torsions:
REMARK  status: ('A' for Active; 'I' for Inactive)
REMARK    1  A    between atoms: C_1  and  C_2
REMARK    2  A    between atoms: N_4  and  C_5
REMARK    3  A    between atoms: C_8  and  C_9
REMARK    4  A    between atoms: C_9  and  O_10
REMARK    5  A    between atoms: O_10  and  P_11
REMARK                            x       y       z     vdW  Elec       q    Type
REMARK                         _______ _______ _______ _____ _____    ______ ____
ROOT
ATOM      1  C   UNL     1       8.125   8.722  17.500  0.00  0.00    +0.000 C 
ENDROOT
BRANCH   1   5
ATOM      2  C   UNL     1      10.380  11.275  18.227  0.00  0.00    +0.000 C 
ATOM      3  C   UNL     1      10.234  10.650  19.572  0.00  0.00    +0.000 C 
ATOM      4  C   UNL     1       9.129   9.905  19.607  0.00  0.00    +0.000 C 
ATOM      5  C   UNL     1       8.407  10.031  18.312  0.00  0.00    +0.000 C 
ATOM      6  O   UNL     1       9.093  11.090  17.594  0.00  0.00    +0.000 OA
BRANCH   2  10
ATOM      7  C   UNL     1      10.536  16.090  16.667  0.00  0.00    +0.000 C 
ATOM      8  C   UNL     1      10.841  14.950  17.594  0.00  0.00    +0.000 A 
ATOM      9  C   UNL     1      10.474  13.667  17.427  0.00  0.00    +0.000 A 
ATOM     10  N   UNL     1      10.816  12.674  18.333  0.00  0.00    +0.000 N 
ATOM     11  C   UNL     1      11.518  12.979  19.496  0.00  0.00    +0.000 A 
ATOM     12  O   UNL     1      11.772  12.171  20.377  0.00  0.00    +0.000 OA
ATOM     13  N   UNL     1      11.926  14.281  19.638  0.00  0.00    +0.000 N 
ATOM     14  C   UNL     1      11.634  15.306  18.796  0.00  0.00    +0.000 A 
ATOM     15  O   UNL     1      11.991  16.462  19.026  0.00  0.00    +0.000 OA
ATOM     16  H   UNL     1      12.423  14.505  20.485  0.00  0.00    +0.000 HD
ENDBRANCH   2  10
ENDBRANCH   1   5
BRANCH   1  17
ATOM     17  O   UNL     1       8.054   7.387  18.096  0.00  0.00    +0.000 OA
BRANCH  17  18
ATOM     18  P   UNL     1       7.032   6.424  17.218  0.00  0.00    +0.000 P 
ATOM     19  O   UNL     1       7.579   6.121  15.854  0.00  0.00    +0.000 OA
ATOM     20  O   UNL     1       6.939   5.144  18.194  0.00  0.00    +0.000 OA
ATOM     21  C   UNL     1       6.147   5.313  19.369  0.00  0.00    +0.000 C 
ATOM     22  C   UNL     1       4.749   5.827  19.063  0.00  0.00    +0.000 A 
ATOM     23  C   UNL     1       3.685   5.428  19.864  0.00  0.00    +0.000 A 
ATOM     24  C   UNL     1       2.624   4.769  19.260  0.00  0.00    +0.000 A 
ATOM     25  C   UNL     1       1.753   4.071  20.084  0.00  0.00    +0.000 A 
ATOM     26  C   UNL     1       1.568   2.731  19.807  0.00  0.00    +0.000 A 
ATOM     27  C   UNL     1       1.729   2.321  18.491  0.00  0.00    +0.000 A 
ATOM     28  C   UNL     1       2.167   3.239  17.507  0.00  0.00    +0.000 A 
ATOM     29  C   UNL     1       2.726   4.491  17.888  0.00  0.00    +0.000 A 
ATOM     30  C   UNL     1       3.529   5.386  17.094  0.00  0.00    +0.000 A 
ATOM     31  C   UNL     1       4.523   6.134  17.739  0.00  0.00    +0.000 A 
ATOM     32  O   UNL     1       5.485   6.936  17.163  0.00  0.00    +0.000 OA
ENDBRANCH  17  18
ENDBRANCH   1  17
TORSDOF 4
ENDMDL
MODEL 8
REMARK VINA RESULT:      -8.3      2.050      2.491
REMARK  Name = 
REMARK  5 active torsions:
REMARK  status: ('A' for Active; 'I' for Inactive)
REMARK    1  A    between atoms: C_1  and  C_2
REMARK    2  A    between atoms: N_4  and  C_5
REMARK    3  A    between atoms: C_8  and  C_9
REMARK    4  A    between atoms: C_9  and  O_10
REMARK    5  A    between atoms: O_10  and  P_11
REMARK                            x       y       z     vdW  Elec       q    Type
REMARK                         _______ _______ _______ _____ _____    ______ ____
ROOT
ATOM      1  C   UNL     1       8.243   9.094  18.186  0.00  0.00    +0.000 C 
ENDROOT
BRANCH   1   5
ATOM      2  C   UNL     1       8.879  12.314  19.353  0.00  0.00    +0.000 C 
ATOM      3  C   UNL     1       9.614  12.344  18.057  0.00  0.00    +0.000 C 
ATOM      4  C   UNL     1       9.828  11.099  17.630  0.00  0.00    +0.000 C 
ATOM      5  C   UNL     1       9.321  10.135  18.642  0.00  0.00    +0.000 C 
ATOM      6  O   UNL     1       8.977  10.941  19.800  0.00  0.00    +0.000 OA
BRANCH   2  10
ATOM      7  C   UNL     1      11.883  16.195  20.602  0.00  0.00    +0.000 C 
ATOM      8  C   UNL     1      10.821  15.164  20.846  0.00  0.00    +0.000 A 
ATOM      9  C   UNL     1      10.399  14.231  19.973  0.00  0.00    +0.000 A 
ATOM     10  N   UNL     1       9.418  13.304  20.295  0.00  0.00    +0.000 N 
ATOM     11  C   UNL     1       8.784  13.336  21.534  0.00  0.00    +0.000 A 
ATOM     12  O   UNL     1       7.854  12.609  21.848  0.00  0.00    +0.000 OA
ATOM     13  N   UNL     1       9.250  14.260  22.433  0.00  0.00    +0.000 N 
ATOM     14  C   UNL     1      10.205  15.197  22.195  0.00  0.00    +0.000 A 
ATOM     15  O   UNL     1      10.526  16.031  23.042  0.00  0.00    +0.000 OA
ATOM     16  H   UNL     1       8.783  14.292  23.325  0.00  0.00    +0.000 HD
ENDBRANCH   2  10
ENDBRANCH   1   5
BRANCH   1  17
ATOM     17  O   UNL     1       8.211   7.699  18.628  0.00  0.00    +0.000 OA
BRANCH  17  18
ATOM     18  P   UNL     1       7.326   6.785  17.569  0.00  0.00    +0.000 P 
ATOM     19  O   UNL     1       7.968   6.711  16.216  0.00  0.00    +0.000 OA
ATOM     20  O   UNL     1       7.291   5.383  18.365  0.00  0.00    +0.000 OA
ATOM     21  C   UNL     1       6.425   5.331  19.498  0.00  0.00    +0.000 C 
ATOM     22  C   UNL     1       5.006   5.770  19.171  0.00  0.00    +0.000 A 
ATOM     23  C   UNL     1       3.939   5.186  19.844  0.00  0.00    +0.000 A 
ATOM     24  C   UNL     1       2.973   4.532  19.093  0.00  0.00    +0.000 A 
ATOM     25  C   UNL     1       2.122   3.664  19.762  0.00  0.00    +0.000 A 
ATOM     26  C   UNL     1       2.068   2.363  19.304  0.00  0.00    +0.000 A 
ATOM     27  C   UNL     1       2.334   2.146  17.959  0.00  0.00    +0.000 A 
ATOM     28  C   UNL     1       2.744   3.219  17.132  0.00  0.00    +0.000 A 
ATOM     29  C   UNL     1       3.172   4.449  17.706  0.00  0.00    +0.000 A 
ATOM     30  C   UNL     1       3.936   5.502  17.087  0.00  0.00    +0.000 A 
ATOM     31  C   UNL     1       4.826   6.232  17.886  0.00  0.00    +0.000 A 
ATOM     32  O   UNL     1       5.745   7.177  17.481  0.00  0.00    +0.000 OA
ENDBRANCH  17  18
ENDBRANCH   1  17
TORSDOF 4
ENDMDL
MODEL 9
REMARK VINA RESULT:      -8.1      8.004     11.065
REMARK  Name = 
REMARK  5 active torsions:
REMARK  status: ('A' for Active; 'I' for Inactive)
REMARK    1  A    between atoms: C_1  and  C_2
REMARK    2  A    between atoms: N_4  and  C_5
REMARK    3  A    between atoms: C_8  and  C_9
REMARK    4  A    between atoms: C_9  and  O_10
REMARK    5  A    between atoms: O_10  and  P_11
REMARK                            x       y       z     vdW  Elec       q    Type
REMARK                         _______ _______ _______ _____ _____    ______ ____
ROOT
ATOM      1  C   UNL     1       1.139  10.628  19.720  0.00  0.00    +0.000 C 
ENDROOT
BRANCH   1   5
ATOM      2  C   UNL     1       2.714   7.547  19.320  0.00  0.00    +0.000 C 
ATOM      3  C   UNL     1       2.302   7.826  17.915  0.00  0.00    +0.000 C 
ATOM      4  C   UNL     1       1.350   8.759  17.901  0.00  0.00    +0.000 C 
ATOM      5  C   UNL     1       0.995   9.126  19.298  0.00  0.00    +0.000 C 
ATOM      6  O   UNL     1       1.687   8.162  20.134  0.00  0.00    +0.000 OA
BRANCH   2  10
ATOM      7  C   UNL     1       1.228   3.022  21.045  0.00  0.00    +0.000 C 
ATOM      8  C   UNL     1       2.149   3.974  20.338  0.00  0.00    +0.000 A 
ATOM      9  C   UNL     1       1.976   5.301  20.207  0.00  0.00    +0.000 A 
ATOM     10  N   UNL     1       2.894   6.106  19.547  0.00  0.00    +0.000 N 
ATOM     11  C   UNL     1       4.020   5.557  18.940  0.00  0.00    +0.000 A 
ATOM     12  O   UNL     1       4.817   6.194  18.269  0.00  0.00    +0.000 OA
ATOM     13  N   UNL     1       4.211   4.210  19.116  0.00  0.00    +0.000 N 
ATOM     14  C   UNL     1       3.363   3.358  19.748  0.00  0.00    +0.000 A 
ATOM     15  O   UNL     1       3.581   2.148  19.813  0.00  0.00    +0.000 OA
ATOM     16  H   UNL     1       5.019   3.810  18.666  0.00  0.00    +0.000 HD
ENDBRANCH   2  10
ENDBRANCH   1   5
BRANCH   1  17
ATOM     17  O   UNL     1       1.009  11.755  18.796  0.00  0.00    +0.000 OA
BRANCH  17  18
ATOM     18  P   UNL     1      -0.186  12.780  19.311  0.00  0.00    +0.000 P 
ATOM     19  O   UNL     1       0.371  14.036  19.913  0.00  0.00    +0.000 OA
ATOM     20  O   UNL     1      -0.984  13.004  17.929  0.00  0.00    +0.000 OA
ATOM     21  C   UNL     1      -1.789  11.911  17.489  0.00  0.00    +0.000 C 
ATOM     22  C   UNL     1      -2.749  11.423  18.562  0.00  0.00    +0.000 A 
ATOM     23  C   UNL     1      -3.989  10.915  18.189  0.00  0.00    +0.000 A 
ATOM     24  C   UNL     1      -5.125  11.533  18.690  0.00  0.00    +0.000 A 
ATOM     25  C   UNL     1      -6.330  11.266  18.056  0.00  0.00    +0.000 A 
ATOM     26  C   UNL     1      -7.045  12.351  17.587  0.00  0.00    +0.000 A 
ATOM     27  C   UNL     1      -6.883  13.559  18.250  0.00  0.00    +0.000 A 
ATOM     28  C   UNL     1      -5.938  13.676  19.298  0.00  0.00    +0.000 A 
ATOM     29  C   UNL     1      -4.948  12.672  19.491  0.00  0.00    +0.000 A 
ATOM     30  C   UNL     1      -3.722  12.764  20.241  0.00  0.00    +0.000 A 
ATOM     31  C   UNL     1      -2.611  12.041  19.786  0.00  0.00    +0.000 A 
ATOM     32  O   UNL     1      -1.318  12.090  20.262  0.00  0.00    +0.000 OA
ENDBRANCH  17  18
ENDBRANCH   1  17
TORSDOF 4
ENDMDL
