MODEL 1
REMARK VINA RESULT:      -9.1      0.000      0.000
REMARK  Name = 
REMARK  7 active torsions:
REMARK  status: ('A' for Active; 'I' for Inactive)
REMARK    1  A    between atoms: C_1  and  C_2
REMARK    2  A    between atoms: C_2  and  C_3
REMARK    3  A    between atoms: C_4  and  C_5
REMARK    4  A    between atoms: C_13  and  C_15
REMARK    5  A    between atoms: C_15  and  O_16
REMARK    6  A    between atoms: O_16  and  C_17
REMARK    7  A    between atoms: C_27  and  C_28
REMARK                            x       y       z     vdW  Elec       q    Type
REMARK                         _______ _______ _______ _____ _____    ______ ____
ROOT
ATOM      1  C   UNL     1       1.073  12.202  18.479  0.00  0.00    +0.000 C 
ATOM      2  C   UNL     1      -0.188  12.233  19.364  0.00  0.00    +0.000 C 
ATOM      3  C   UNL     1      -0.890  13.587  19.246  0.00  0.00    +0.000 C 
ATOM      4  C   UNL     1      -1.051  11.005  19.054  0.00  0.00    +0.000 C 
ATOM      5  N   UNL     1      -0.800   9.965  19.799  0.00  0.00    +0.000 NA
ATOM      6  N   UNL     1       0.090  10.378  20.763  0.00  0.00    +0.000 N 
ATOM      7  C   UNL     1       0.738   9.514  21.633  0.00  0.00    +0.000 C 
ATOM      8  O   UNL     1       1.558   9.911  22.465  0.00  0.00    +0.000 OA
ATOM      9  C   UNL     1       0.207  11.838  20.819  0.00  0.00    +0.000 C 
ENDROOT
BRANCH   4  10
ATOM     10  C   UNL     1      -2.083  10.959  17.988  0.00  0.00    +0.000 A 
ATOM     11  C   UNL     1      -3.321  11.592  18.111  0.00  0.00    +0.000 A 
ATOM     12  C   UNL     1      -4.271  11.488  17.091  0.00  0.00    +0.000 A 
ATOM     13  C   UNL     1      -3.983  10.761  15.939  0.00  0.00    +0.000 A 
ATOM     14  C   UNL     1      -2.742  10.142  15.799  0.00  0.00    +0.000 A 
ATOM     15  C   UNL     1      -1.792  10.244  16.818  0.00  0.00    +0.000 A 
ENDBRANCH   4  10
BRANCH   9  16
ATOM     16  C   UNL     1      -0.682  12.436  21.914  0.00  0.00    +0.000 A 
ATOM     17  C   UNL     1      -0.342  13.672  22.488  0.00  0.00    +0.000 A 
ATOM     18  C   UNL     1      -1.159  14.266  23.453  0.00  0.00    +0.000 A 
ATOM     19  C   UNL     1      -2.330  13.631  23.867  0.00  0.00    +0.000 A 
ATOM     20  C   UNL     1      -2.682  12.403  23.315  0.00  0.00    +0.000 A 
ATOM     21  C   UNL     1      -1.869  11.813  22.346  0.00  0.00    +0.000 A 
ENDBRANCH   9  16
BRANCH   7  22
ATOM     22  C   UNL     1       0.390   8.033  21.491  0.00  0.00    +0.000 C 
BRANCH  22  23
ATOM     23  O   UNL     1       1.585   7.262  21.466  0.00  0.00    +0.000 OA
BRANCH  23  24
ATOM     24  C   UNL     1       1.903   6.583  20.308  0.00  0.00    +0.000 A 
ATOM     25  C   UNL     1       2.367   7.456  19.308  0.00  0.00    +0.000 A 
ATOM     26  C   UNL     1       2.709   6.981  18.048  0.00  0.00    +0.000 A 
ATOM     27  C   UNL     1       2.543   5.632  17.765  0.00  0.00    +0.000 A 
ATOM     28  C   UNL     1       2.060   4.752  18.746  0.00  0.00    +0.000 A 
ATOM     29  C   UNL     1       1.821   3.410  18.419  0.00  0.00    +0.000 A 
ATOM     30  C   UNL     1       1.362   2.527  19.385  0.00  0.00    +0.000 A 
ATOM     31  C   UNL     1       1.201   3.010  20.663  0.00  0.00    +0.000 A 
ATOM     32  N   UNL     1       1.403   4.300  21.006  0.00  0.00    +0.000 NA
ATOM     33  C   UNL     1       1.783   5.198  20.063  0.00  0.00    +0.000 A 
ENDBRANCH  23  24
ENDBRANCH  22  23
ENDBRANCH   7  22
TORSDOF 5
ENDMDL
MODEL 2
REMARK VINA RESULT:      -9.0      0.096      1.189
REMARK  Name = 
REMARK  7 active torsions:
REMARK  status: ('A' for Active; 'I' for Inactive)
REMARK    1  A    between atoms: C_1  and  C_2
REMARK    2  A    between atoms: C_2  and  C_3
REMARK    3  A    between atoms: C_4  and  C_5
REMARK    4  A    between atoms: C_13  and  C_15
REMARK    5  A    between atoms: C_15  and  O_16
REMARK    6  A    between atoms: O_16  and  C_17
REMARK    7  A    between atoms: C_27  and  C_28
REMARK                            x       y       z     vdW  Elec       q    Type
REMARK                         _______ _______ _______ _____ _____    ______ ____
ROOT
ATOM      1  C   UNL     1       1.055  12.197  18.470  0.00  0.00    +0.000 C 
ATOM      2  C   UNL     1      -0.216  12.215  19.341  0.00  0.00    +0.000 C 
ATOM      3  C   UNL     1      -0.937  13.558  19.204  0.00  0.00    +0.000 C 
ATOM      4  C   UNL     1      -1.058  10.972  19.029  0.00  0.00    +0.000 C 
ATOM      5  N   UNL     1      -0.800   9.942  19.785  0.00  0.00    +0.000 NA
ATOM      6  N   UNL     1       0.073  10.375  20.755  0.00  0.00    +0.000 N 
ATOM      7  C   UNL     1       0.723   9.526  21.639  0.00  0.00    +0.000 C 
ATOM      8  O   UNL     1       1.528   9.942  22.478  0.00  0.00    +0.000 OA
ATOM      9  C   UNL     1       0.167  11.837  20.803  0.00  0.00    +0.000 C 
ENDROOT
BRANCH   4  10
ATOM     10  C   UNL     1      -2.076  10.903  17.951  0.00  0.00    +0.000 A 
ATOM     11  C   UNL     1      -1.827  10.298  16.718  0.00  0.00    +0.000 A 
ATOM     12  C   UNL     1      -2.810  10.292  15.725  0.00  0.00    +0.000 A 
ATOM     13  C   UNL     1      -4.050  10.879  15.964  0.00  0.00    +0.000 A 
ATOM     14  C   UNL     1      -4.314  11.467  17.199  0.00  0.00    +0.000 A 
ATOM     15  C   UNL     1      -3.332  11.476  18.193  0.00  0.00    +0.000 A 
ENDBRANCH   4  10
BRANCH   9  16
ATOM     16  C   UNL     1      -0.742  12.429  21.883  0.00  0.00    +0.000 A 
ATOM     17  C   UNL     1      -1.906  11.741  22.265  0.00  0.00    +0.000 A 
ATOM     18  C   UNL     1      -2.729  12.230  23.283  0.00  0.00    +0.000 A 
ATOM     19  C   UNL     1      -2.406  13.421  23.933  0.00  0.00    +0.000 A 
ATOM     20  C   UNL     1      -1.260  14.121  23.566  0.00  0.00    +0.000 A 
ATOM     21  C   UNL     1      -0.435  13.628  22.554  0.00  0.00    +0.000 A 
ENDBRANCH   9  16
BRANCH   7  22
ATOM     22  C   UNL     1       0.399   8.040  21.504  0.00  0.00    +0.000 C 
BRANCH  22  23
ATOM     23  O   UNL     1       1.607   7.289  21.464  0.00  0.00    +0.000 OA
BRANCH  23  24
ATOM     24  C   UNL     1       1.909   6.594  20.312  0.00  0.00    +0.000 A 
ATOM     25  C   UNL     1       2.355   7.453  19.292  0.00  0.00    +0.000 A 
ATOM     26  C   UNL     1       2.678   6.961  18.033  0.00  0.00    +0.000 A 
ATOM     27  C   UNL     1       2.514   5.608  17.773  0.00  0.00    +0.000 A 
ATOM     28  C   UNL     1       2.049   4.741  18.775  0.00  0.00    +0.000 A 
ATOM     29  C   UNL     1       1.810   3.393  18.472  0.00  0.00    +0.000 A 
ATOM     30  C   UNL     1       1.370   2.523  19.457  0.00  0.00    +0.000 A 
ATOM     31  C   UNL     1       1.227   3.024  20.731  0.00  0.00    +0.000 A 
ATOM     32  N   UNL     1       1.429   4.320  21.052  0.00  0.00    +0.000 NA
ATOM     33  C   UNL     1       1.791   5.205  20.089  0.00  0.00    +0.000 A 
ENDBRANCH  23  24
ENDBRANCH  22  23
ENDBRANCH   7  22
TORSDOF 5
ENDMDL
MODEL 3
REMARK VINA RESULT:      -8.7      1.000      1.881
REMARK  Name = 
REMARK  7 active torsions:
REMARK  status: ('A' for Active; 'I' for Inactive)
REMARK    1  A    between atoms: C_1  and  C_2
REMARK    2  A    between atoms: C_2  and  C_3
REMARK    3  A    between atoms: C_4  and  C_5
REMARK    4  A    between atoms: C_13  and  C_15
REMARK    5  A    between atoms: C_15  and  O_16
REMARK    6  A    between atoms: O_16  and  C_17
REMARK    7  A    between atoms: C_27  and  C_28
REMARK                            x       y       z     vdW  Elec       q    Type
REMARK                         _______ _______ _______ _____ _____    ______ ____
ROOT
ATOM      1  C   UNL     1       1.166  12.116  18.359  0.00  0.00    +0.000 C 
ATOM      2  C   UNL     1      -0.084  12.086  19.260  0.00  0.00    +0.000 C 
ATOM      3  C   UNL     1      -0.824  13.423  19.192  0.00  0.00    +0.000 C 
ATOM      4  C   UNL     1      -0.919  10.845  18.920  0.00  0.00    +0.000 C 
ATOM      5  N   UNL     1      -0.631   9.790  19.630  0.00  0.00    +0.000 NA
ATOM      6  N   UNL     1       0.259  10.196  20.595  0.00  0.00    +0.000 N 
ATOM      7  C   UNL     1       0.941   9.322  21.430  0.00  0.00    +0.000 C 
ATOM      8  O   UNL     1       1.761   9.716  22.265  0.00  0.00    +0.000 OA
ATOM      9  C   UNL     1       0.338  11.656  20.697  0.00  0.00    +0.000 C 
ENDROOT
BRANCH   4  10
ATOM     10  C   UNL     1      -1.962  10.804  17.865  0.00  0.00    +0.000 A 
ATOM     11  C   UNL     1      -3.147  11.539  17.950  0.00  0.00    +0.000 A 
ATOM     12  C   UNL     1      -4.112  11.438  16.944  0.00  0.00    +0.000 A 
ATOM     13  C   UNL     1      -3.893  10.611  15.845  0.00  0.00    +0.000 A 
ATOM     14  C   UNL     1      -2.705   9.891  15.743  0.00  0.00    +0.000 A 
ATOM     15  C   UNL     1      -1.739   9.990  16.747  0.00  0.00    +0.000 A 
ENDBRANCH   4  10
BRANCH   9  16
ATOM     16  C   UNL     1      -0.552  12.195  21.820  0.00  0.00    +0.000 A 
ATOM     17  C   UNL     1      -0.329  13.486  22.326  0.00  0.00    +0.000 A 
ATOM     18  C   UNL     1      -1.156  14.025  23.315  0.00  0.00    +0.000 A 
ATOM     19  C   UNL     1      -2.218  13.277  23.823  0.00  0.00    +0.000 A 
ATOM     20  C   UNL     1      -2.454  11.993  23.339  0.00  0.00    +0.000 A 
ATOM     21  C   UNL     1      -1.632  11.459  22.346  0.00  0.00    +0.000 A 
ENDBRANCH   9  16
BRANCH   7  22
ATOM     22  C   UNL     1       0.631   7.838  21.246  0.00  0.00    +0.000 C 
BRANCH  22  23
ATOM     23  O   UNL     1       1.846   7.104  21.156  0.00  0.00    +0.000 OA
BRANCH  23  24
ATOM     24  C   UNL     1       1.909   6.047  20.274  0.00  0.00    +0.000 A 
ATOM     25  C   UNL     1       1.101   4.974  20.692  0.00  0.00    +0.000 A 
ATOM     26  C   UNL     1       1.048   3.792  19.964  0.00  0.00    +0.000 A 
ATOM     27  C   UNL     1       1.840   3.658  18.833  0.00  0.00    +0.000 A 
ATOM     28  C   UNL     1       2.668   4.712  18.414  0.00  0.00    +0.000 A 
ATOM     29  C   UNL     1       3.523   4.530  17.317  0.00  0.00    +0.000 A 
ATOM     30  C   UNL     1       4.332   5.569  16.883  0.00  0.00    +0.000 A 
ATOM     31  C   UNL     1       4.222   6.776  17.534  0.00  0.00    +0.000 A 
ATOM     32  N   UNL     1       3.425   6.978  18.605  0.00  0.00    +0.000 NA
ATOM     33  C   UNL     1       2.678   5.955  19.093  0.00  0.00    +0.000 A 
ENDBRANCH  23  24
ENDBRANCH  22  23
ENDBRANCH   7  22
TORSDOF 5
ENDMDL
MODEL 4
REMARK VINA RESULT:      -8.3      1.641      4.202
REMARK  Name = 
REMARK  7 active torsions:
REMARK  status: ('A' for Active; 'I' for Inactive)
REMARK    1  A    between atoms: C_1  and  C_2
REMARK    2  A    between atoms: C_2  and  C_3
REMARK    3  A    between atoms: C_4  and  C_5
REMARK    4  A    between atoms: C_13  and  C_15
REMARK    5  A    between atoms: C_15  and  O_16
REMARK    6  A    between atoms: O_16  and  C_17
REMARK    7  A    between atoms: C_27  and  C_28
REMARK                            x       y       z     vdW  Elec       q    Type
REMARK                         _______ _______ _______ _____ _____    ______ ____
ROOT
ATOM      1  C   UNL     1      -0.427  13.162  22.212  0.00  0.00    +0.000 C 
ATOM      2  C   UNL     1      -0.455  12.791  20.717  0.00  0.00    +0.000 C 
ATOM      3  C   UNL     1      -1.217  13.850  19.919  0.00  0.00    +0.000 C 
ATOM      4  C   UNL     1       0.975  12.501  20.243  0.00  0.00    +0.000 C 
ATOM      5  N   UNL     1       1.332  11.251  20.338  0.00  0.00    +0.000 NA
ATOM      6  N   UNL     1       0.209  10.548  20.705  0.00  0.00    +0.000 N 
ATOM      7  C   UNL     1       0.227   9.214  21.084  0.00  0.00    +0.000 C 
ATOM      8  O   UNL     1      -0.794   8.618  21.441  0.00  0.00    +0.000 OA
ATOM      9  C   UNL     1      -1.013  11.344  20.565  0.00  0.00    +0.000 C 
ENDROOT
BRANCH   4  10
ATOM     10  C   UNL     1       1.910  13.535  19.732  0.00  0.00    +0.000 A 
ATOM     11  C   UNL     1       2.158  14.727  20.413  0.00  0.00    +0.000 A 
ATOM     12  C   UNL     1       3.022  15.683  19.870  0.00  0.00    +0.000 A 
ATOM     13  C   UNL     1       3.648  15.445  18.649  0.00  0.00    +0.000 A 
ATOM     14  C   UNL     1       3.421  14.249  17.972  0.00  0.00    +0.000 A 
ATOM     15  C   UNL     1       2.558  13.293  18.513  0.00  0.00    +0.000 A 
ENDBRANCH   4  10
BRANCH   9  16
ATOM     16  C   UNL     1      -1.725  11.062  19.238  0.00  0.00    +0.000 A 
ATOM     17  C   UNL     1      -2.981  11.638  18.987  0.00  0.00    +0.000 A 
ATOM     18  C   UNL     1      -3.632  11.440  17.767  0.00  0.00    +0.000 A 
ATOM     19  C   UNL     1      -3.040  10.656  16.777  0.00  0.00    +0.000 A 
ATOM     20  C   UNL     1      -1.798  10.072  17.007  0.00  0.00    +0.000 A 
ATOM     21  C   UNL     1      -1.145  10.276  18.224  0.00  0.00    +0.000 A 
ENDBRANCH   9  16
BRANCH   7  22
ATOM     22  C   UNL     1       1.589   8.524  21.051  0.00  0.00    +0.000 C 
BRANCH  22  23
ATOM     23  O   UNL     1       1.410   7.113  21.041  0.00  0.00    +0.000 OA
BRANCH  23  24
ATOM     24  C   UNL     1       1.940   6.392  19.992  0.00  0.00    +0.000 A 
ATOM     25  C   UNL     1       2.703   7.208  19.137  0.00  0.00    +0.000 A 
ATOM     26  C   UNL     1       3.298   6.687  17.995  0.00  0.00    +0.000 A 
ATOM     27  C   UNL     1       3.094   5.352  17.674  0.00  0.00    +0.000 A 
ATOM     28  C   UNL     1       2.317   4.530  18.506  0.00  0.00    +0.000 A 
ATOM     29  C   UNL     1       2.054   3.207  18.125  0.00  0.00    +0.000 A 
ATOM     30  C   UNL     1       1.303   2.380  18.947  0.00  0.00    +0.000 A 
ATOM     31  C   UNL     1       0.879   2.894  20.150  0.00  0.00    +0.000 A 
ATOM     32  N   UNL     1       1.099   4.168  20.538  0.00  0.00    +0.000 NA
ATOM     33  C   UNL     1       1.769   5.018  19.718  0.00  0.00    +0.000 A 
ENDBRANCH  23  24
ENDBRANCH  22  23
ENDBRANCH   7  22
TORSDOF 5
ENDMDL
MODEL 5
REMARK VINA RESULT:      -8.3      1.232      2.092
REMARK  Name = 
REMARK  7 active torsions:
REMARK  status: ('A' for Active; 'I' for Inactive)
REMARK    1  A    between atoms: C_1  and  C_2
REMARK    2  A    between atoms: C_2  and  C_3
REMARK    3  A    between atoms: C_4  and  C_5
REMARK    4  A    between atoms: C_13  and  C_15
REMARK    5  A    between atoms: C_15  and  O_16
REMARK    6  A    between atoms: O_16  and  C_17
REMARK    7  A    between atoms: C_27  and  C_28
REMARK                            x       y       z     vdW  Elec       q    Type
REMARK                         _______ _______ _______ _____ _____    ______ ____
ROOT
ATOM      1  C   UNL     1       0.854  12.737  18.446  0.00  0.00    +0.000 C 
ATOM      2  C   UNL     1      -0.357  12.495  19.368  0.00  0.00    +0.000 C 
ATOM      3  C   UNL     1      -1.264  13.726  19.392  0.00  0.00    +0.000 C 
ATOM      4  C   UNL     1      -1.034  11.176  18.974  0.00  0.00    +0.000 C 
ATOM      5  N   UNL     1      -0.593  10.130  19.616  0.00  0.00    +0.000 NA
ATOM      6  N   UNL     1       0.264  10.596  20.585  0.00  0.00    +0.000 N 
ATOM      7  C   UNL     1       1.074   9.774  21.354  0.00  0.00    +0.000 C 
ATOM      8  O   UNL     1       1.859  10.225  22.194  0.00  0.00    +0.000 OA
ATOM      9  C   UNL     1       0.156  12.046  20.769  0.00  0.00    +0.000 C 
ENDROOT
BRANCH   4  10
ATOM     10  C   UNL     1      -2.091  11.058  17.939  0.00  0.00    +0.000 A 
ATOM     11  C   UNL     1      -1.854  10.500  16.681  0.00  0.00    +0.000 A 
ATOM     12  C   UNL     1      -2.877  10.445  15.731  0.00  0.00    +0.000 A 
ATOM     13  C   UNL     1      -4.144  10.936  16.037  0.00  0.00    +0.000 A 
ATOM     14  C   UNL     1      -4.394  11.476  17.297  0.00  0.00    +0.000 A 
ATOM     15  C   UNL     1      -3.373  11.533  18.248  0.00  0.00    +0.000 A 
ENDBRANCH   4  10
BRANCH   9  16
ATOM     16  C   UNL     1      -0.765  12.402  21.939  0.00  0.00    +0.000 A 
ATOM     17  C   UNL     1      -0.542  13.584  22.665  0.00  0.00    +0.000 A 
ATOM     18  C   UNL     1      -1.396  13.961  23.705  0.00  0.00    +0.000 A 
ATOM     19  C   UNL     1      -2.485  13.158  24.043  0.00  0.00    +0.000 A 
ATOM     20  C   UNL     1      -2.721  11.981  23.339  0.00  0.00    +0.000 A 
ATOM     21  C   UNL     1      -1.872  11.608  22.296  0.00  0.00    +0.000 A 
ENDBRANCH   9  16
BRANCH   7  22
ATOM     22  C   UNL     1       0.954   8.275  21.091  0.00  0.00    +0.000 C 
BRANCH  22  23
ATOM     23  O   UNL     1       1.830   7.903  20.034  0.00  0.00    +0.000 OA
BRANCH  23  24
ATOM     24  C   UNL     1       2.139   6.569  19.877  0.00  0.00    +0.000 A 
ATOM     25  C   UNL     1       1.508   5.774  20.851  0.00  0.00    +0.000 A 
ATOM     26  C   UNL     1       1.714   4.401  20.896  0.00  0.00    +0.000 A 
ATOM     27  C   UNL     1       2.592   3.818  19.993  0.00  0.00    +0.000 A 
ATOM     28  C   UNL     1       3.247   4.601  19.028  0.00  0.00    +0.000 A 
ATOM     29  C   UNL     1       4.192   4.011  18.178  0.00  0.00    +0.000 A 
ATOM     30  C   UNL     1       4.830   4.770  17.209  0.00  0.00    +0.000 A 
ATOM     31  C   UNL     1       4.465   6.091  17.094  0.00  0.00    +0.000 A 
ATOM     32  N   UNL     1       3.574   6.695  17.908  0.00  0.00    +0.000 NA
ATOM     33  C   UNL     1       2.989   5.990  18.910  0.00  0.00    +0.000 A 
ENDBRANCH  23  24
ENDBRANCH  22  23
ENDBRANCH   7  22
TORSDOF 5
ENDMDL
MODEL 6
REMARK VINA RESULT:      -8.3      1.944      4.134
REMARK  Name = 
REMARK  7 active torsions:
REMARK  status: ('A' for Active; 'I' for Inactive)
REMARK    1  A    between atoms: C_1  and  C_2
REMARK    2  A    between atoms: C_2  and  C_3
REMARK    3  A    between atoms: C_4  and  C_5
REMARK    4  A    between atoms: C_13  and  C_15
REMARK    5  A    between atoms: C_15  and  O_16
REMARK    6  A    between atoms: O_16  and  C_17
REMARK    7  A    between atoms: C_27  and  C_28
REMARK                            x       y       z     vdW  Elec       q    Type
REMARK                         _______ _______ _______ _____ _____    ______ ____
ROOT
ATOM      1  C   UNL     1      -1.839  11.593  17.886  0.00  0.00    +0.000 C 
ATOM      2  C   UNL     1      -0.874  12.215  18.915  0.00  0.00    +0.000 C 
ATOM      3  C   UNL     1      -0.981  13.741  18.892  0.00  0.00    +0.000 C 
ATOM      4  C   UNL     1      -1.098  11.552  20.280  0.00  0.00    +0.000 C 
ATOM      5  N   UNL     1      -0.344  10.512  20.505  0.00  0.00    +0.000 NA
ATOM      6  N   UNL     1       0.549  10.440  19.462  0.00  0.00    +0.000 N 
ATOM      7  C   UNL     1       1.397   9.364  19.247  0.00  0.00    +0.000 C 
ATOM      8  O   UNL     1       2.164   9.313  18.281  0.00  0.00    +0.000 OA
ATOM      9  C   UNL     1       0.562  11.666  18.658  0.00  0.00    +0.000 C 
ENDROOT
BRANCH   4  10
ATOM     10  C   UNL     1      -2.093  12.014  21.279  0.00  0.00    +0.000 A 
ATOM     11  C   UNL     1      -3.313  12.588  20.915  0.00  0.00    +0.000 A 
ATOM     12  C   UNL     1      -4.200  13.039  21.896  0.00  0.00    +0.000 A 
ATOM     13  C   UNL     1      -3.877  12.907  23.245  0.00  0.00    +0.000 A 
ATOM     14  C   UNL     1      -2.671  12.317  23.617  0.00  0.00    +0.000 A 
ATOM     15  C   UNL     1      -1.782  11.867  22.637  0.00  0.00    +0.000 A 
ENDBRANCH   4  10
BRANCH   9  16
ATOM     16  C   UNL     1       1.696  12.606  19.076  0.00  0.00    +0.000 A 
ATOM     17  C   UNL     1       2.493  13.215  18.092  0.00  0.00    +0.000 A 
ATOM     18  C   UNL     1       3.503  14.116  18.440  0.00  0.00    +0.000 A 
ATOM     19  C   UNL     1       3.739  14.419  19.781  0.00  0.00    +0.000 A 
ATOM     20  C   UNL     1       2.965  13.823  20.772  0.00  0.00    +0.000 A 
ATOM     21  C   UNL     1       1.952  12.928  20.423  0.00  0.00    +0.000 A 
ENDBRANCH   9  16
BRANCH   7  22
ATOM     22  C   UNL     1       1.315   8.231  20.268  0.00  0.00    +0.000 C 
BRANCH  22  23
ATOM     23  O   UNL     1       2.462   7.399  20.151  0.00  0.00    +0.000 OA
BRANCH  23  24
ATOM     24  C   UNL     1       2.287   6.095  19.739  0.00  0.00    +0.000 A 
ATOM     25  C   UNL     1       1.359   5.416  20.549  0.00  0.00    +0.000 A 
ATOM     26  C   UNL     1       1.062   4.077  20.328  0.00  0.00    +0.000 A 
ATOM     27  C   UNL     1       1.728   3.393  19.321  0.00  0.00    +0.000 A 
ATOM     28  C   UNL     1       2.673   4.051  18.517  0.00  0.00    +0.000 A 
ATOM     29  C   UNL     1       3.396   3.326  17.560  0.00  0.00    +0.000 A 
ATOM     30  C   UNL     1       4.319   3.967  16.748  0.00  0.00    +0.000 A 
ATOM     31  C   UNL     1       4.453   5.329  16.891  0.00  0.00    +0.000 A 
ATOM     32  N   UNL     1       3.787   6.053  17.816  0.00  0.00    +0.000 NA
ATOM     33  C   UNL     1       2.933   5.435  18.670  0.00  0.00    +0.000 A 
ENDBRANCH  23  24
ENDBRANCH  22  23
ENDBRANCH   7  22
TORSDOF 5
ENDMDL
MODEL 7
REMARK VINA RESULT:      -8.3      1.779      4.356
REMARK  Name = 
REMARK  7 active torsions:
REMARK  status: ('A' for Active; 'I' for Inactive)
REMARK    1  A    between atoms: C_1  and  C_2
REMARK    2  A    between atoms: C_2  and  C_3
REMARK    3  A    between atoms: C_4  and  C_5
REMARK    4  A    between atoms: C_13  and  C_15
REMARK    5  A    between atoms: C_15  and  O_16
REMARK    6  A    between atoms: O_16  and  C_17
REMARK    7  A    between atoms: C_27  and  C_28
REMARK                            x       y       z     vdW  Elec       q    Type
REMARK                         _______ _______ _______ _____ _____    ______ ____
ROOT
ATOM      1  C   UNL     1      -0.256  13.359  22.132  0.00  0.00    +0.000 C 
ATOM      2  C   UNL     1      -0.278  12.904  20.660  0.00  0.00    +0.000 C 
ATOM      3  C   UNL     1      -0.953  13.962  19.785  0.00  0.00    +0.000 C 
ATOM      4  C   UNL     1       1.138  12.494  20.238  0.00  0.00    +0.000 C 
ATOM      5  N   UNL     1       1.409  11.231  20.412  0.00  0.00    +0.000 NA
ATOM      6  N   UNL     1       0.235  10.625  20.791  0.00  0.00    +0.000 N 
ATOM      7  C   UNL     1       0.156   9.317  21.246  0.00  0.00    +0.000 C 
ATOM      8  O   UNL     1      -0.909   8.812  21.612  0.00  0.00    +0.000 OA
ATOM      9  C   UNL     1      -0.929  11.490  20.577  0.00  0.00    +0.000 C 
ENDROOT
BRANCH   4  10
ATOM     10  C   UNL     1       2.149  13.433  19.691  0.00  0.00    +0.000 A 
ATOM     11  C   UNL     1       2.294  13.670  18.323  0.00  0.00    +0.000 A 
ATOM     12  C   UNL     1       3.286  14.538  17.859  0.00  0.00    +0.000 A 
ATOM     13  C   UNL     1       4.131  15.181  18.761  0.00  0.00    +0.000 A 
ATOM     14  C   UNL     1       3.980  14.966  20.129  0.00  0.00    +0.000 A 
ATOM     15  C   UNL     1       2.989  14.098  20.594  0.00  0.00    +0.000 A 
ENDBRANCH   4  10
BRANCH   9  16
ATOM     16  C   UNL     1      -1.631  11.179  19.252  0.00  0.00    +0.000 A 
ATOM     17  C   UNL     1      -1.026  10.305  18.334  0.00  0.00    +0.000 A 
ATOM     18  C   UNL     1      -1.664   9.961  17.140  0.00  0.00    +0.000 A 
ATOM     19  C   UNL     1      -2.918  10.492  16.838  0.00  0.00    +0.000 A 
ATOM     20  C   UNL     1      -3.533  11.364  17.732  0.00  0.00    +0.000 A 
ATOM     21  C   UNL     1      -2.897  11.701  18.928  0.00  0.00    +0.000 A 
ENDBRANCH   9  16
BRANCH   7  22
ATOM     22  C   UNL     1       1.470   8.539  21.285  0.00  0.00    +0.000 C 
BRANCH  22  23
ATOM     23  O   UNL     1       1.230   7.180  20.941  0.00  0.00    +0.000 OA
BRANCH  23  24
ATOM     24  C   UNL     1       2.070   6.577  20.029  0.00  0.00    +0.000 A 
ATOM     25  C   UNL     1       2.419   7.456  18.988  0.00  0.00    +0.000 A 
ATOM     26  C   UNL     1       3.231   7.037  17.941  0.00  0.00    +0.000 A 
ATOM     27  C   UNL     1       3.663   5.719  17.905  0.00  0.00    +0.000 A 
ATOM     28  C   UNL     1       3.305   4.823  18.926  0.00  0.00    +0.000 A 
ATOM     29  C   UNL     1       3.681   3.476  18.832  0.00  0.00    +0.000 A 
ATOM     30  C   UNL     1       3.349   2.587  19.842  0.00  0.00    +0.000 A 
ATOM     31  C   UNL     1       2.690   3.089  20.941  0.00  0.00    +0.000 A 
ATOM     32  N   UNL     1       2.297   4.375  21.054  0.00  0.00    +0.000 NA
ATOM     33  C   UNL     1       2.547   5.249  20.045  0.00  0.00    +0.000 A 
ENDBRANCH  23  24
ENDBRANCH  22  23
ENDBRANCH   7  22
TORSDOF 5
ENDMDL
MODEL 8
REMARK VINA RESULT:      -8.3      2.077      4.769
REMARK  Name = 
REMARK  7 active torsions:
REMARK  status: ('A' for Active; 'I' for Inactive)
REMARK    1  A    between atoms: C_1  and  C_2
REMARK    2  A    between atoms: C_2  and  C_3
REMARK    3  A    between atoms: C_4  and  C_5
REMARK    4  A    between atoms: C_13  and  C_15
REMARK    5  A    between atoms: C_15  and  O_16
REMARK    6  A    between atoms: O_16  and  C_17
REMARK    7  A    between atoms: C_27  and  C_28
REMARK                            x       y       z     vdW  Elec       q    Type
REMARK                         _______ _______ _______ _____ _____    ______ ____
ROOT
ATOM      1  C   UNL     1      -0.327  13.205  22.172  0.00  0.00    +0.000 C 
ATOM      2  C   UNL     1      -0.333  12.802  20.685  0.00  0.00    +0.000 C 
ATOM      3  C   UNL     1      -1.016  13.881  19.842  0.00  0.00    +0.000 C 
ATOM      4  C   UNL     1       1.091  12.427  20.259  0.00  0.00    +0.000 C 
ATOM      5  N   UNL     1       1.379  11.162  20.390  0.00  0.00    +0.000 NA
ATOM      6  N   UNL     1       0.210  10.527  20.740  0.00  0.00    +0.000 N 
ATOM      7  C   UNL     1       0.146   9.203  21.147  0.00  0.00    +0.000 C 
ATOM      8  O   UNL     1      -0.914   8.670  21.488  0.00  0.00    +0.000 OA
ATOM      9  C   UNL     1      -0.964  11.384  20.547  0.00  0.00    +0.000 C 
ENDROOT
BRANCH   4  10
ATOM     10  C   UNL     1       2.094  13.398  19.753  0.00  0.00    +0.000 A 
ATOM     11  C   UNL     1       2.265  13.662  18.392  0.00  0.00    +0.000 A 
ATOM     12  C   UNL     1       3.248  14.560  17.968  0.00  0.00    +0.000 A 
ATOM     13  C   UNL     1       4.055  15.206  18.901  0.00  0.00    +0.000 A 
ATOM     14  C   UNL     1       3.877  14.964  20.261  0.00  0.00    +0.000 A 
ATOM     15  C   UNL     1       2.896  14.065  20.688  0.00  0.00    +0.000 A 
ENDBRANCH   4  10
BRANCH   9  16
ATOM     16  C   UNL     1      -1.652  11.109  19.207  0.00  0.00    +0.000 A 
ATOM     17  C   UNL     1      -1.030  10.274  18.265  0.00  0.00    +0.000 A 
ATOM     18  C   UNL     1      -1.656   9.965  17.054  0.00  0.00    +0.000 A 
ATOM     19  C   UNL     1      -2.914  10.492  16.762  0.00  0.00    +0.000 A 
ATOM     20  C   UNL     1      -3.545  11.326  17.680  0.00  0.00    +0.000 A 
ATOM     21  C   UNL     1      -2.922  11.629  18.892  0.00  0.00    +0.000 A 
ENDBRANCH   9  16
BRANCH   7  22
ATOM     22  C   UNL     1       1.470   8.442  21.169  0.00  0.00    +0.000 C 
BRANCH  22  23
ATOM     23  O   UNL     1       1.805   8.030  19.849  0.00  0.00    +0.000 OA
BRANCH  23  24
ATOM     24  C   UNL     1       2.284   6.750  19.664  0.00  0.00    +0.000 A 
ATOM     25  C   UNL     1       1.771   5.861  20.625  0.00  0.00    +0.000 A 
ATOM     26  C   UNL     1       2.154   4.526  20.642  0.00  0.00    +0.000 A 
ATOM     27  C   UNL     1       3.093   4.081  19.722  0.00  0.00    +0.000 A 
ATOM     28  C   UNL     1       3.632   4.961  18.770  0.00  0.00    +0.000 A 
ATOM     29  C   UNL     1       4.639   4.515  17.902  0.00  0.00    +0.000 A 
ATOM     30  C   UNL     1       5.166   5.369  16.946  0.00  0.00    +0.000 A 
ATOM     31  C   UNL     1       4.630   6.633  16.859  0.00  0.00    +0.000 A 
ATOM     32  N   UNL     1       3.675   7.100  17.690  0.00  0.00    +0.000 NA
ATOM     33  C   UNL     1       3.195   6.306  18.681  0.00  0.00    +0.000 A 
ENDBRANCH  23  24
ENDBRANCH  22  23
ENDBRANCH   7  22
TORSDOF 5
ENDMDL
MODEL 9
REMARK VINA RESULT:      -8.2      2.064      4.703
REMARK  Name = 
REMARK  7 active torsions:
REMARK  status: ('A' for Active; 'I' for Inactive)
REMARK    1  A    between atoms: C_1  and  C_2
REMARK    2  A    between atoms: C_2  and  C_3
REMARK    3  A    between atoms: C_4  and  C_5
REMARK    4  A    between atoms: C_13  and  C_15
REMARK    5  A    between atoms: C_15  and  O_16
REMARK    6  A    between atoms: O_16  and  C_17
REMARK    7  A    between atoms: C_27  and  C_28
REMARK                            x       y       z     vdW  Elec       q    Type
REMARK                         _______ _______ _______ _____ _____    ______ ____
ROOT
ATOM      1  C   UNL     1      -0.395  13.127  22.221  0.00  0.00    +0.000 C 
ATOM      2  C   UNL     1      -0.385  12.745  20.728  0.00  0.00    +0.000 C 
ATOM      3  C   UNL     1      -1.082  13.823  19.897  0.00  0.00    +0.000 C 
ATOM      4  C   UNL     1       1.049  12.402  20.305  0.00  0.00    +0.000 C 
ATOM      5  N   UNL     1       1.359  11.141  20.421  0.00  0.00    +0.000 NA
ATOM      6  N   UNL     1       0.200  10.480  20.754  0.00  0.00    +0.000 N 
ATOM      7  C   UNL     1       0.159   9.149  21.143  0.00  0.00    +0.000 C 
ATOM      8  O   UNL     1      -0.894   8.593  21.469  0.00  0.00    +0.000 OA
ATOM      9  C   UNL     1      -0.988  11.317  20.567  0.00  0.00    +0.000 C 
ENDROOT
BRANCH   4  10
ATOM     10  C   UNL     1       2.036  13.398  19.819  0.00  0.00    +0.000 A 
ATOM     11  C   UNL     1       2.767  14.217  20.683  0.00  0.00    +0.000 A 
ATOM     12  C   UNL     1       3.659  15.163  20.171  0.00  0.00    +0.000 A 
ATOM     13  C   UNL     1       3.833  15.288  18.795  0.00  0.00    +0.000 A 
ATOM     14  C   UNL     1       3.123  14.461  17.926  0.00  0.00    +0.000 A 
ATOM     15  C   UNL     1       2.230  13.515  18.436  0.00  0.00    +0.000 A 
ENDBRANCH   4  10
BRANCH   9  16
ATOM     16  C   UNL     1      -1.663  11.050  19.219  0.00  0.00    +0.000 A 
ATOM     17  C   UNL     1      -2.900  11.650  18.929  0.00  0.00    +0.000 A 
ATOM     18  C   UNL     1      -3.516  11.465  17.689  0.00  0.00    +0.000 A 
ATOM     19  C   UNL     1      -2.909  10.670  16.717  0.00  0.00    +0.000 A 
ATOM     20  C   UNL     1      -1.686  10.062  16.985  0.00  0.00    +0.000 A 
ATOM     21  C   UNL     1      -1.068  10.252  18.222  0.00  0.00    +0.000 A 
ENDBRANCH   9  16
BRANCH   7  22
ATOM     22  C   UNL     1       1.496   8.412  21.161  0.00  0.00    +0.000 C 
BRANCH  22  23
ATOM     23  O   UNL     1       1.822   7.982  19.845  0.00  0.00    +0.000 OA
BRANCH  23  24
ATOM     24  C   UNL     1       2.308   6.702  19.676  0.00  0.00    +0.000 A 
ATOM     25  C   UNL     1       1.797   5.822  20.647  0.00  0.00    +0.000 A 
ATOM     26  C   UNL     1       2.187   4.489  20.680  0.00  0.00    +0.000 A 
ATOM     27  C   UNL     1       3.130   4.037  19.767  0.00  0.00    +0.000 A 
ATOM     28  C   UNL     1       3.666   4.909  18.806  0.00  0.00    +0.000 A 
ATOM     29  C   UNL     1       4.677   4.458  17.945  0.00  0.00    +0.000 A 
ATOM     30  C   UNL     1       5.200   5.303  16.979  0.00  0.00    +0.000 A 
ATOM     31  C   UNL     1       4.659   6.564  16.876  0.00  0.00    +0.000 A 
ATOM     32  N   UNL     1       3.700   7.036  17.701  0.00  0.00    +0.000 NA
ATOM     33  C   UNL     1       3.222   6.251  18.700  0.00  0.00    +0.000 A 
ENDBRANCH  23  24
ENDBRANCH  22  23
ENDBRANCH   7  22
TORSDOF 5
ENDMDL
