MODEL 1
REMARK VINA RESULT:      -8.7      0.000      0.000
REMARK  Name = 
REMARK  2 active torsions:
REMARK  status: ('A' for Active; 'I' for Inactive)
REMARK    1  A    between atoms: C_2  and  C_12
REMARK    2  A    between atoms: N_3  and  C_4
REMARK                            x       y       z     vdW  Elec       q    Type
REMARK                         _______ _______ _______ _____ _____    ______ ____
ROOT
ATOM      1  C   UNL     1       8.233   7.730  18.049  0.00  0.00    +0.000 C 
ATOM      2  C   UNL     1       8.247   7.008  19.409  0.00  0.00    +0.000 C 
ATOM      3  C   UNL     1       7.931   5.517  19.293  0.00  0.00    +0.000 C 
ATOM      4  C   UNL     1       6.657   5.277  18.488  0.00  0.00    +0.000 C 
ATOM      5  N   UNL     1       6.801   5.911  17.181  0.00  0.00    +0.000 N 
ATOM      6  C   UNL     1       6.674   5.254  15.968  0.00  0.00    +0.000 A 
ATOM      7  C   UNL     1       5.759   4.061  15.853  0.00  0.00    +0.000 A 
ATOM      8  C   UNL     1       5.626   3.445  14.674  0.00  0.00    +0.000 A 
ATOM      9  C   UNL     1       6.367   3.927  13.582  0.00  0.00    +0.000 A 
ATOM     10  N   UNL     1       6.479   3.568  12.323  0.00  0.00    +0.000 NA
ATOM     11  N   UNL     1       7.365   4.462  11.763  0.00  0.00    +0.000 NA
ATOM     12  N   UNL     1       7.783   5.353  12.657  0.00  0.00    +0.000 NA
ATOM     13  N   UNL     1       7.163   5.028  13.802  0.00  0.00    +0.000 N 
ATOM     14  N   UNL     1       7.344   5.722  14.945  0.00  0.00    +0.000 NA
ATOM     15  C   UNL     1       6.995   7.363  17.231  0.00  0.00    +0.000 C 
ENDROOT
BRANCH   1  17
ATOM     16  O   UNL     1       7.537   9.968  17.479  0.00  0.00    +0.000 OA
ATOM     17  C   UNL     1       8.175   9.239  18.239  0.00  0.00    +0.000 C 
ATOM     18  N   UNL     1       8.967   9.738  19.248  0.00  0.00    +0.000 N 
ATOM     19  H   UNL     1       9.501   9.098  19.827  0.00  0.00    +0.000 HD
BRANCH  18  20
ATOM     20  C   UNL     1       9.151  11.184  19.436  0.00  0.00    +0.000 C 
ATOM     21  C   UNL     1       9.932  11.431  20.731  0.00  0.00    +0.000 C 
ATOM     22  C   UNL     1      10.165  12.893  21.111  0.00  0.00    +0.000 C 
ATOM     23  C   UNL     1      11.127  13.720  20.256  0.00  0.00    +0.000 C 
ATOM     24  C   UNL     1      12.333  12.969  19.693  0.00  0.00    +0.000 C 
ATOM     25  C   UNL     1      12.205  12.605  18.213  0.00  0.00    +0.000 C 
ATOM     26  C   UNL     1      11.187  11.524  17.840  0.00  0.00    +0.000 C 
ATOM     27  C   UNL     1       9.720  11.833  18.158  0.00  0.00    +0.000 C 
ENDBRANCH  18  20
ENDBRANCH   1  17
TORSDOF 2
ENDMDL
MODEL 2
REMARK VINA RESULT:      -8.7      6.899      8.262
REMARK  Name = 
REMARK  2 active torsions:
REMARK  status: ('A' for Active; 'I' for Inactive)
REMARK    1  A    between atoms: C_2  and  C_12
REMARK    2  A    between atoms: N_3  and  C_4
REMARK                            x       y       z     vdW  Elec       q    Type
REMARK                         _______ _______ _______ _____ _____    ______ ____
ROOT
ATOM      1  C   UNL     1       2.054   8.173  19.550  0.00  0.00    +0.000 C 
ATOM      2  C   UNL     1       1.323   7.330  20.611  0.00  0.00    +0.000 C 
ATOM      3  C   UNL     1       1.833   5.890  20.679  0.00  0.00    +0.000 C 
ATOM      4  C   UNL     1       1.862   5.241  19.299  0.00  0.00    +0.000 C 
ATOM      5  N   UNL     1       2.670   6.068  18.409  0.00  0.00    +0.000 N 
ATOM      6  C   UNL     1       3.776   5.620  17.704  0.00  0.00    +0.000 A 
ATOM      7  C   UNL     1       3.852   4.180  17.264  0.00  0.00    +0.000 A 
ATOM      8  C   UNL     1       4.911   3.759  16.567  0.00  0.00    +0.000 A 
ATOM      9  C   UNL     1       5.933   4.681  16.285  0.00  0.00    +0.000 A 
ATOM     10  N   UNL     1       7.081   4.609  15.650  0.00  0.00    +0.000 NA
ATOM     11  N   UNL     1       7.616   5.877  15.712  0.00  0.00    +0.000 NA
ATOM     12  N   UNL     1       6.813   6.710  16.365  0.00  0.00    +0.000 NA
ATOM     13  N   UNL     1       5.753   5.971  16.729  0.00  0.00    +0.000 N 
ATOM     14  N   UNL     1       4.713   6.488  17.418  0.00  0.00    +0.000 NA
ATOM     15  C   UNL     1       2.162   7.430  18.218  0.00  0.00    +0.000 C 
ENDROOT
BRANCH   1  17
ATOM     16  O   UNL     1       1.385  10.038  18.173  0.00  0.00    +0.000 OA
ATOM     17  C   UNL     1       1.284   9.452  19.252  0.00  0.00    +0.000 C 
ATOM     18  N   UNL     1       0.557   9.962  20.303  0.00  0.00    +0.000 N 
ATOM     19  H   UNL     1       0.532   9.458  21.185  0.00  0.00    +0.000 HD
BRANCH  18  20
ATOM     20  C   UNL     1      -0.092  11.278  20.222  0.00  0.00    +0.000 C 
ATOM     21  C   UNL     1      -1.506  11.112  19.658  0.00  0.00    +0.000 C 
ATOM     22  C   UNL     1      -2.308  12.397  19.453  0.00  0.00    +0.000 C 
ATOM     23  C   UNL     1      -2.783  13.161  20.691  0.00  0.00    +0.000 C 
ATOM     24  C   UNL     1      -3.180  12.303  21.892  0.00  0.00    +0.000 C 
ATOM     25  C   UNL     1      -2.128  12.260  23.002  0.00  0.00    +0.000 C 
ATOM     26  C   UNL     1      -0.832  11.498  22.713  0.00  0.00    +0.000 C 
ATOM     27  C   UNL     1       0.028  12.030  21.563  0.00  0.00    +0.000 C 
ENDBRANCH  18  20
ENDBRANCH   1  17
TORSDOF 2
ENDMDL
MODEL 3
REMARK VINA RESULT:      -8.6      9.002     10.382
REMARK  Name = 
REMARK  2 active torsions:
REMARK  status: ('A' for Active; 'I' for Inactive)
REMARK    1  A    between atoms: C_2  and  C_12
REMARK    2  A    between atoms: N_3  and  C_4
REMARK                            x       y       z     vdW  Elec       q    Type
REMARK                         _______ _______ _______ _____ _____    ______ ____
ROOT
ATOM      1  C   UNL     1      -0.007   9.372  20.927  0.00  0.00    +0.000 C 
ATOM      2  C   UNL     1      -0.207  10.188  19.637  0.00  0.00    +0.000 C 
ATOM      3  C   UNL     1       0.321   9.472  18.394  0.00  0.00    +0.000 C 
ATOM      4  C   UNL     1       1.755   8.990  18.594  0.00  0.00    +0.000 C 
ATOM      5  N   UNL     1       1.802   8.139  19.778  0.00  0.00    +0.000 N 
ATOM      6  C   UNL     1       2.265   6.833  19.793  0.00  0.00    +0.000 A 
ATOM      7  C   UNL     1       3.333   6.404  18.820  0.00  0.00    +0.000 A 
ATOM      8  C   UNL     1       3.789   5.149  18.854  0.00  0.00    +0.000 A 
ATOM      9  C   UNL     1       3.234   4.262  19.792  0.00  0.00    +0.000 A 
ATOM     10  N   UNL     1       3.434   2.997  20.085  0.00  0.00    +0.000 NA
ATOM     11  N   UNL     1       2.573   2.720  21.124  0.00  0.00    +0.000 NA
ATOM     12  N   UNL     1       1.864   3.792  21.465  0.00  0.00    +0.000 NA
ATOM     13  N   UNL     1       2.270   4.766  20.636  0.00  0.00    +0.000 N 
ATOM     14  N   UNL     1       1.766   6.017  20.687  0.00  0.00    +0.000 NA
ATOM     15  C   UNL     1       1.411   8.810  21.022  0.00  0.00    +0.000 C 
ENDROOT
BRANCH   1  17
ATOM     16  O   UNL     1       0.259   9.933  23.258  0.00  0.00    +0.000 OA
ATOM     17  C   UNL     1      -0.190  10.251  22.156  0.00  0.00    +0.000 C 
ATOM     18  N   UNL     1      -0.980  11.363  21.975  0.00  0.00    +0.000 N 
ATOM     19  H   UNL     1      -1.356  11.564  21.053  0.00  0.00    +0.000 HD
BRANCH  18  20
ATOM     20  C   UNL     1      -1.392  12.206  23.106  0.00  0.00    +0.000 C 
ATOM     21  C   UNL     1      -0.896  13.637  22.877  0.00  0.00    +0.000 C 
ATOM     22  C   UNL     1      -1.190  14.641  23.992  0.00  0.00    +0.000 C 
ATOM     23  C   UNL     1      -2.642  15.072  24.215  0.00  0.00    +0.000 C 
ATOM     24  C   UNL     1      -3.503  15.189  22.958  0.00  0.00    +0.000 C 
ATOM     25  C   UNL     1      -4.463  14.017  22.750  0.00  0.00    +0.000 C 
ATOM     26  C   UNL     1      -3.852  12.665  22.371  0.00  0.00    +0.000 C 
ATOM     27  C   UNL     1      -2.898  12.039  23.392  0.00  0.00    +0.000 C 
ENDBRANCH  18  20
ENDBRANCH   1  17
TORSDOF 2
ENDMDL
MODEL 4
REMARK VINA RESULT:      -8.6      5.724      7.016
REMARK  Name = 
REMARK  2 active torsions:
REMARK  status: ('A' for Active; 'I' for Inactive)
REMARK    1  A    between atoms: C_2  and  C_12
REMARK    2  A    between atoms: N_3  and  C_4
REMARK                            x       y       z     vdW  Elec       q    Type
REMARK                         _______ _______ _______ _____ _____    ______ ____
ROOT
ATOM      1  C   UNL     1       2.100   6.342  20.382  0.00  0.00    +0.000 C 
ATOM      2  C   UNL     1       1.467   5.042  20.909  0.00  0.00    +0.000 C 
ATOM      3  C   UNL     1       2.124   3.786  20.334  0.00  0.00    +0.000 C 
ATOM      4  C   UNL     1       2.211   3.849  18.812  0.00  0.00    +0.000 C 
ATOM      5  N   UNL     1       2.925   5.064  18.433  0.00  0.00    +0.000 N 
ATOM      6  C   UNL     1       4.066   5.097  17.649  0.00  0.00    +0.000 A 
ATOM      7  C   UNL     1       4.289   4.033  16.603  0.00  0.00    +0.000 A 
ATOM      8  C   UNL     1       5.382   4.082  15.836  0.00  0.00    +0.000 A 
ATOM      9  C   UNL     1       6.302   5.123  16.051  0.00  0.00    +0.000 A 
ATOM     10  N   UNL     1       7.447   5.459  15.503  0.00  0.00    +0.000 NA
ATOM     11  N   UNL     1       7.848   6.601  16.159  0.00  0.00    +0.000 NA
ATOM     12  N   UNL     1       6.966   6.961  17.086  0.00  0.00    +0.000 NA
ATOM     13  N   UNL     1       5.991   6.042  17.027  0.00  0.00    +0.000 N 
ATOM     14  N   UNL     1       4.908   6.083  17.832  0.00  0.00    +0.000 NA
ATOM     15  C   UNL     1       2.277   6.307  18.864  0.00  0.00    +0.000 C 
ENDROOT
BRANCH   1  17
ATOM     16  O   UNL     1       0.239   7.459  21.436  0.00  0.00    +0.000 OA
ATOM     17  C   UNL     1       1.200   7.536  20.669  0.00  0.00    +0.000 C 
ATOM     18  N   UNL     1       1.467   8.667  19.934  0.00  0.00    +0.000 N 
ATOM     19  H   UNL     1       2.251   8.670  19.288  0.00  0.00    +0.000 HD
BRANCH  18  20
ATOM     20  C   UNL     1       0.578   9.836  19.971  0.00  0.00    +0.000 C 
ATOM     21  C   UNL     1       0.880  10.664  21.223  0.00  0.00    +0.000 C 
ATOM     22  C   UNL     1       0.002  11.894  21.449  0.00  0.00    +0.000 C 
ATOM     23  C   UNL     1       0.163  13.085  20.500  0.00  0.00    +0.000 C 
ATOM     24  C   UNL     1       1.582  13.353  20.001  0.00  0.00    +0.000 C 
ATOM     25  C   UNL     1       1.837  12.883  18.569  0.00  0.00    +0.000 C 
ATOM     26  C   UNL     1       1.889  11.373  18.321  0.00  0.00    +0.000 C 
ATOM     27  C   UNL     1       0.609  10.590  18.625  0.00  0.00    +0.000 C 
ENDBRANCH  18  20
ENDBRANCH   1  17
TORSDOF 2
ENDMDL
MODEL 5
REMARK VINA RESULT:      -8.3      6.034      7.793
REMARK  Name = 
REMARK  2 active torsions:
REMARK  status: ('A' for Active; 'I' for Inactive)
REMARK    1  A    between atoms: C_2  and  C_12
REMARK    2  A    between atoms: N_3  and  C_4
REMARK                            x       y       z     vdW  Elec       q    Type
REMARK                         _______ _______ _______ _____ _____    ______ ____
ROOT
ATOM      1  C   UNL     1       2.178   6.889  20.405  0.00  0.00    +0.000 C 
ATOM      2  C   UNL     1       1.326   5.690  20.860  0.00  0.00    +0.000 C 
ATOM      3  C   UNL     1       1.752   4.376  20.205  0.00  0.00    +0.000 C 
ATOM      4  C   UNL     1       1.851   4.514  18.689  0.00  0.00    +0.000 C 
ATOM      5  N   UNL     1       2.767   5.605  18.375  0.00  0.00    +0.000 N 
ATOM      6  C   UNL     1       3.897   5.484  17.583  0.00  0.00    +0.000 A 
ATOM      7  C   UNL     1       3.929   4.463  16.474  0.00  0.00    +0.000 A 
ATOM      8  C   UNL     1       5.015   4.365  15.701  0.00  0.00    +0.000 A 
ATOM      9  C   UNL     1       6.103   5.213  15.967  0.00  0.00    +0.000 A 
ATOM     10  N   UNL     1       7.290   5.375  15.429  0.00  0.00    +0.000 NA
ATOM     11  N   UNL     1       7.885   6.388  16.148  0.00  0.00    +0.000 NA
ATOM     12  N   UNL     1       7.080   6.841  17.103  0.00  0.00    +0.000 NA
ATOM     13  N   UNL     1       5.958   6.112  16.999  0.00  0.00    +0.000 N 
ATOM     14  N   UNL     1       4.898   6.295  17.816  0.00  0.00    +0.000 NA
ATOM     15  C   UNL     1       2.347   6.914  18.886  0.00  0.00    +0.000 C 
ENDROOT
BRANCH   1  17
ATOM     16  O   UNL     1       1.034   8.405  21.892  0.00  0.00    +0.000 OA
ATOM     17  C   UNL     1       1.501   8.202  20.771  0.00  0.00    +0.000 C 
ATOM     18  N   UNL     1       1.353   9.098  19.737  0.00  0.00    +0.000 N 
ATOM     19  H   UNL     1       1.727   8.870  18.820  0.00  0.00    +0.000 HD
BRANCH  18  20
ATOM     20  C   UNL     1       0.565  10.329  19.893  0.00  0.00    +0.000 C 
ATOM     21  C   UNL     1       1.113  11.404  18.950  0.00  0.00    +0.000 C 
ATOM     22  C   UNL     1       0.440  12.775  19.024  0.00  0.00    +0.000 C 
ATOM     23  C   UNL     1      -0.994  12.908  18.506  0.00  0.00    +0.000 C 
ATOM     24  C   UNL     1      -1.347  12.049  17.293  0.00  0.00    +0.000 C 
ATOM     25  C   UNL     1      -2.171  10.805  17.629  0.00  0.00    +0.000 C 
ATOM     26  C   UNL     1      -1.467   9.680  18.392  0.00  0.00    +0.000 C 
ATOM     27  C   UNL     1      -0.944  10.028  19.789  0.00  0.00    +0.000 C 
ENDBRANCH  18  20
ENDBRANCH   1  17
TORSDOF 2
ENDMDL
MODEL 6
REMARK VINA RESULT:      -8.2      6.106      7.602
REMARK  Name = 
REMARK  2 active torsions:
REMARK  status: ('A' for Active; 'I' for Inactive)
REMARK    1  A    between atoms: C_2  and  C_12
REMARK    2  A    between atoms: N_3  and  C_4
REMARK                            x       y       z     vdW  Elec       q    Type
REMARK                         _______ _______ _______ _____ _____    ______ ____
ROOT
ATOM      1  C   UNL     1       2.098   7.355  20.028  0.00  0.00    +0.000 C 
ATOM      2  C   UNL     1       1.411   6.299  20.913  0.00  0.00    +0.000 C 
ATOM      3  C   UNL     1       1.972   4.892  20.703  0.00  0.00    +0.000 C 
ATOM      4  C   UNL     1       2.006   4.520  19.223  0.00  0.00    +0.000 C 
ATOM      5  N   UNL     1       2.774   5.530  18.504  0.00  0.00    +0.000 N 
ATOM      6  C   UNL     1       3.886   5.266  17.720  0.00  0.00    +0.000 A 
ATOM      7  C   UNL     1       4.007   3.940  17.013  0.00  0.00    +0.000 A 
ATOM      8  C   UNL     1       5.072   3.699  16.242  0.00  0.00    +0.000 A 
ATOM      9  C   UNL     1       6.058   4.695  16.136  0.00  0.00    +0.000 A 
ATOM     10  N   UNL     1       7.200   4.788  15.494  0.00  0.00    +0.000 NA
ATOM     11  N   UNL     1       7.690   6.039  15.793  0.00  0.00    +0.000 NA
ATOM     12  N   UNL     1       6.866   6.702  16.597  0.00  0.00    +0.000 NA
ATOM     13  N   UNL     1       5.837   5.869  16.820  0.00  0.00    +0.000 N 
ATOM     14  N   UNL     1       4.789   6.206  17.600  0.00  0.00    +0.000 NA
ATOM     15  C   UNL     1       2.216   6.884  18.579  0.00  0.00    +0.000 C 
ENDROOT
BRANCH   1  17
ATOM     16  O   UNL     1       0.483   8.934  20.875  0.00  0.00    +0.000 OA
ATOM     17  C   UNL     1       1.280   8.638  19.984  0.00  0.00    +0.000 C 
ATOM     18  N   UNL     1       1.413   9.384  18.835  0.00  0.00    +0.000 N 
ATOM     19  H   UNL     1       2.059   9.079  18.113  0.00  0.00    +0.000 HD
BRANCH  18  20
ATOM     20  C   UNL     1       0.557  10.549  18.572  0.00  0.00    +0.000 C 
ATOM     21  C   UNL     1      -0.862  10.259  19.073  0.00  0.00    +0.000 C 
ATOM     22  C   UNL     1      -1.902  11.351  18.826  0.00  0.00    +0.000 C 
ATOM     23  C   UNL     1      -1.783  12.658  19.614  0.00  0.00    +0.000 C 
ATOM     24  C   UNL     1      -1.270  12.527  21.048  0.00  0.00    +0.000 C 
ATOM     25  C   UNL     1       0.195  12.932  21.224  0.00  0.00    +0.000 C 
ATOM     26  C   UNL     1       1.257  12.012  20.615  0.00  0.00    +0.000 C 
ATOM     27  C   UNL     1       1.217  11.841  19.094  0.00  0.00    +0.000 C 
ENDBRANCH  18  20
ENDBRANCH   1  17
TORSDOF 2
ENDMDL
MODEL 7
REMARK VINA RESULT:      -8.1      6.237      7.272
REMARK  Name = 
REMARK  2 active torsions:
REMARK  status: ('A' for Active; 'I' for Inactive)
REMARK    1  A    between atoms: C_2  and  C_12
REMARK    2  A    between atoms: N_3  and  C_4
REMARK                            x       y       z     vdW  Elec       q    Type
REMARK                         _______ _______ _______ _____ _____    ______ ____
ROOT
ATOM      1  C   UNL     1       2.001   8.176  19.438  0.00  0.00    +0.000 C 
ATOM      2  C   UNL     1       1.327   7.389  20.577  0.00  0.00    +0.000 C 
ATOM      3  C   UNL     1       1.902   5.983  20.748  0.00  0.00    +0.000 C 
ATOM      4  C   UNL     1       1.937   5.229  19.422  0.00  0.00    +0.000 C 
ATOM      5  N   UNL     1       2.692   6.016  18.454  0.00  0.00    +0.000 N 
ATOM      6  C   UNL     1       3.804   5.562  17.763  0.00  0.00    +0.000 A 
ATOM      7  C   UNL     1       3.937   4.096  17.436  0.00  0.00    +0.000 A 
ATOM      8  C   UNL     1       5.002   3.668  16.752  0.00  0.00    +0.000 A 
ATOM      9  C   UNL     1       5.977   4.608  16.378  0.00  0.00    +0.000 A 
ATOM     10  N   UNL     1       7.116   4.536  15.727  0.00  0.00    +0.000 NA
ATOM     11  N   UNL     1       7.594   5.827  15.678  0.00  0.00    +0.000 NA
ATOM     12  N   UNL     1       6.765   6.673  16.280  0.00  0.00    +0.000 NA
ATOM     13  N   UNL     1       5.746   5.920  16.723  0.00  0.00    +0.000 N 
ATOM     14  N   UNL     1       4.696   6.444  17.391  0.00  0.00    +0.000 NA
ATOM     15  C   UNL     1       2.119   7.335  18.167  0.00  0.00    +0.000 C 
ENDROOT
BRANCH   1  17
ATOM     16  O   UNL     1       0.891   9.652  17.885  0.00  0.00    +0.000 OA
ATOM     17  C   UNL     1       1.169   9.393  19.056  0.00  0.00    +0.000 C 
ATOM     18  N   UNL     1       0.843  10.235  20.095  0.00  0.00    +0.000 N 
ATOM     19  H   UNL     1       1.125   9.994  21.040  0.00  0.00    +0.000 HD
BRANCH  18  20
ATOM     20  C   UNL     1       0.200  11.534  19.857  0.00  0.00    +0.000 C 
ATOM     21  C   UNL     1      -0.758  11.844  21.012  0.00  0.00    +0.000 C 
ATOM     22  C   UNL     1      -1.558  13.141  20.897  0.00  0.00    +0.000 C 
ATOM     23  C   UNL     1      -0.809  14.469  21.029  0.00  0.00    +0.000 C 
ATOM     24  C   UNL     1       0.357  14.482  22.017  0.00  0.00    +0.000 C 
ATOM     25  C   UNL     1       1.734  14.405  21.355  0.00  0.00    +0.000 C 
ATOM     26  C   UNL     1       2.126  13.079  20.698  0.00  0.00    +0.000 C 
ATOM     27  C   UNL     1       1.252  12.613  19.530  0.00  0.00    +0.000 C 
ENDBRANCH  18  20
ENDBRANCH   1  17
TORSDOF 2
ENDMDL
MODEL 8
REMARK VINA RESULT:      -8.1      6.998     10.550
REMARK  Name = 
REMARK  2 active torsions:
REMARK  status: ('A' for Active; 'I' for Inactive)
REMARK    1  A    between atoms: C_2  and  C_12
REMARK    2  A    between atoms: N_3  and  C_4
REMARK                            x       y       z     vdW  Elec       q    Type
REMARK                         _______ _______ _______ _____ _____    ______ ____
ROOT
ATOM      1  C   UNL     1       0.941   9.948  18.159  0.00  0.00    +0.000 C 
ATOM      2  C   UNL     1      -0.545   9.649  17.890  0.00  0.00    +0.000 C 
ATOM      3  C   UNL     1      -1.373  10.914  17.663  0.00  0.00    +0.000 C 
ATOM      4  C   UNL     1      -1.148  11.936  18.773  0.00  0.00    +0.000 C 
ATOM      5  N   UNL     1       0.279  12.224  18.863  0.00  0.00    +0.000 N 
ATOM      6  C   UNL     1       0.837  13.487  18.754  0.00  0.00    +0.000 A 
ATOM      7  C   UNL     1       0.049  14.696  19.192  0.00  0.00    +0.000 A 
ATOM      8  C   UNL     1       0.602  15.909  19.103  0.00  0.00    +0.000 A 
ATOM      9  C   UNL     1       1.902  16.015  18.580  0.00  0.00    +0.000 A 
ATOM     10  N   UNL     1       2.717  17.019  18.351  0.00  0.00    +0.000 NA
ATOM     11  N   UNL     1       3.862  16.452  17.837  0.00  0.00    +0.000 NA
ATOM     12  N   UNL     1       3.754  15.130  17.756  0.00  0.00    +0.000 NA
ATOM     13  N   UNL     1       2.528  14.843  18.220  0.00  0.00    +0.000 N 
ATOM     14  N   UNL     1       2.059  13.580  18.293  0.00  0.00    +0.000 NA
ATOM     15  C   UNL     1       1.113  11.063  19.191  0.00  0.00    +0.000 C 
ENDROOT
BRANCH   1  17
ATOM     16  O   UNL     1       1.632   8.488  19.951  0.00  0.00    +0.000 OA
ATOM     17  C   UNL     1       1.641   8.729  18.743  0.00  0.00    +0.000 C 
ATOM     18  N   UNL     1       2.369   7.980  17.847  0.00  0.00    +0.000 N 
ATOM     19  H   UNL     1       2.373   8.240  16.865  0.00  0.00    +0.000 HD
BRANCH  18  20
ATOM     20  C   UNL     1       3.239   6.882  18.291  0.00  0.00    +0.000 C 
ATOM     21  C   UNL     1       2.540   5.544  18.028  0.00  0.00    +0.000 C 
ATOM     22  C   UNL     1       3.286   4.291  18.485  0.00  0.00    +0.000 C 
ATOM     23  C   UNL     1       4.557   3.889  17.733  0.00  0.00    +0.000 C 
ATOM     24  C   UNL     1       4.558   4.163  16.230  0.00  0.00    +0.000 C 
ATOM     25  C   UNL     1       5.368   5.395  15.822  0.00  0.00    +0.000 C 
ATOM     26  C   UNL     1       4.808   6.766  16.210  0.00  0.00    +0.000 C 
ATOM     27  C   UNL     1       4.658   7.040  17.710  0.00  0.00    +0.000 C 
ENDBRANCH  18  20
ENDBRANCH   1  17
TORSDOF 2
ENDMDL
MODEL 9
REMARK VINA RESULT:      -8.0      7.177      9.141
REMARK  Name = 
REMARK  2 active torsions:
REMARK  status: ('A' for Active; 'I' for Inactive)
REMARK    1  A    between atoms: C_2  and  C_12
REMARK    2  A    between atoms: N_3  and  C_4
REMARK                            x       y       z     vdW  Elec       q    Type
REMARK                         _______ _______ _______ _____ _____    ______ ____
ROOT
ATOM      1  C   UNL     1       1.788   9.226  18.925  0.00  0.00    +0.000 C 
ATOM      2  C   UNL     1       1.112   8.845  20.255  0.00  0.00    +0.000 C 
ATOM      3  C   UNL     1       1.703   7.581  20.880  0.00  0.00    +0.000 C 
ATOM      4  C   UNL     1       1.762   6.435  19.874  0.00  0.00    +0.000 C 
ATOM      5  N   UNL     1       2.517   6.874  18.706  0.00  0.00    +0.000 N 
ATOM      6  C   UNL     1       3.643   6.237  18.209  0.00  0.00    +0.000 A 
ATOM      7  C   UNL     1       3.798   4.747  18.380  0.00  0.00    +0.000 A 
ATOM      8  C   UNL     1       4.876   4.136  17.881  0.00  0.00    +0.000 A 
ATOM      9  C   UNL     1       5.843   4.917  17.225  0.00  0.00    +0.000 A 
ATOM     10  N   UNL     1       6.990   4.654  16.641  0.00  0.00    +0.000 NA
ATOM     11  N   UNL     1       7.452   5.865  16.176  0.00  0.00    +0.000 NA
ATOM     12  N   UNL     1       6.606   6.849  16.462  0.00  0.00    +0.000 NA
ATOM     13  N   UNL     1       5.592   6.267  17.121  0.00  0.00    +0.000 N 
ATOM     14  N   UNL     1       4.528   6.963  17.574  0.00  0.00    +0.000 NA
ATOM     15  C   UNL     1       1.931   8.018  18.000  0.00  0.00    +0.000 C 
ENDROOT
BRANCH   1  17
ATOM     16  O   UNL     1       1.336  11.387  17.951  0.00  0.00    +0.000 OA
ATOM     17  C   UNL     1       0.945  10.238  18.162  0.00  0.00    +0.000 C 
ATOM     18  N   UNL     1      -0.320   9.816  17.822  0.00  0.00    +0.000 N 
ATOM     19  H   UNL     1      -0.609   8.869  18.049  0.00  0.00    +0.000 HD
BRANCH  18  20
ATOM     20  C   UNL     1      -1.308  10.736  17.243  0.00  0.00    +0.000 C 
ATOM     21  C   UNL     1      -2.564   9.952  16.850  0.00  0.00    +0.000 C 
ATOM     22  C   UNL     1      -3.678  10.752  16.176  0.00  0.00    +0.000 C 
ATOM     23  C   UNL     1      -4.454  11.767  17.019  0.00  0.00    +0.000 C 
ATOM     24  C   UNL     1      -4.690  11.380  18.479  0.00  0.00    +0.000 C 
ATOM     25  C   UNL     1      -3.767  12.092  19.469  0.00  0.00    +0.000 C 
ATOM     26  C   UNL     1      -2.288  11.698  19.461  0.00  0.00    +0.000 C 
ATOM     27  C   UNL     1      -1.521  11.957  18.161  0.00  0.00    +0.000 C 
ENDBRANCH  18  20
ENDBRANCH   1  17
TORSDOF 2
ENDMDL
