MODEL 1
REMARK VINA RESULT:      -6.4      0.000      0.000
REMARK  Name = 
REMARK  2 active torsions:
REMARK  status: ('A' for Active; 'I' for Inactive)
REMARK    1  A    between atoms: C_2  and  C_3
REMARK    2  A    between atoms: N_5  and  C_6
REMARK                            x       y       z     vdW  Elec       q    Type
REMARK                         _______ _______ _______ _____ _____    ______ ____
ROOT
ATOM      1  C   UNL     1       6.172   4.492  17.104  0.00  0.00    +0.000 A 
ATOM      2  C   UNL     1       4.812   4.277  17.105  0.00  0.00    +0.000 A 
ATOM      3  N   UNL     1       4.483   4.076  18.424  0.00  0.00    +0.000 N 
ATOM      4  N   UNL     1       5.603   4.191  19.185  0.00  0.00    +0.000 NA
ATOM      5  N   UNL     1       6.635   4.430  18.387  0.00  0.00    +0.000 NA
ENDROOT
BRANCH   3   6
ATOM      6  C   UNL     1       3.214   3.789  18.987  0.00  0.00    +0.000 A 
ATOM      7  C   UNL     1       2.361   2.849  18.390  0.00  0.00    +0.000 A 
ATOM      8  C   UNL     1       1.117   2.572  18.962  0.00  0.00    +0.000 A 
ATOM      9  C   UNL     1       0.715   3.230  20.123  0.00  0.00    +0.000 A 
ATOM     10  C   UNL     1       1.557   4.167  20.719  0.00  0.00    +0.000 A 
ATOM     11  C   UNL     1       2.806   4.446  20.157  0.00  0.00    +0.000 A 
ENDBRANCH   3   6
BRANCH   1  13
ATOM     12  O   UNL     1       7.502   5.848  15.707  0.00  0.00    +0.000 OA
ATOM     13  C   UNL     1       7.024   4.746  15.968  0.00  0.00    +0.000 C 
ENDBRANCH   1  13
TORSDOF 2
ENDMDL
MODEL 2
REMARK VINA RESULT:      -6.3      0.079      1.342
REMARK  Name = 
REMARK  2 active torsions:
REMARK  status: ('A' for Active; 'I' for Inactive)
REMARK    1  A    between atoms: C_2  and  C_3
REMARK    2  A    between atoms: N_5  and  C_6
REMARK                            x       y       z     vdW  Elec       q    Type
REMARK                         _______ _______ _______ _____ _____    ______ ____
ROOT
ATOM      1  C   UNL     1       6.173   4.513  17.085  0.00  0.00    +0.000 A 
ATOM      2  C   UNL     1       4.819   4.264  17.107  0.00  0.00    +0.000 A 
ATOM      3  N   UNL     1       4.508   4.098  18.436  0.00  0.00    +0.000 N 
ATOM      4  N   UNL     1       5.632   4.265  19.180  0.00  0.00    +0.000 NA
ATOM      5  N   UNL     1       6.650   4.504  18.365  0.00  0.00    +0.000 NA
ENDROOT
BRANCH   3   6
ATOM      6  C   UNL     1       3.253   3.796  19.021  0.00  0.00    +0.000 A 
ATOM      7  C   UNL     1       2.873   4.372  20.243  0.00  0.00    +0.000 A 
ATOM      8  C   UNL     1       1.629   4.070  20.801  0.00  0.00    +0.000 A 
ATOM      9  C   UNL     1       0.762   3.192  20.153  0.00  0.00    +0.000 A 
ATOM     10  C   UNL     1       1.135   2.614  18.941  0.00  0.00    +0.000 A 
ATOM     11  C   UNL     1       2.375   2.916  18.371  0.00  0.00    +0.000 A 
ENDBRANCH   3   6
BRANCH   1  13
ATOM     12  O   UNL     1       7.602   5.808  15.729  0.00  0.00    +0.000 OA
ATOM     13  C   UNL     1       7.007   4.752  15.932  0.00  0.00    +0.000 C 
ENDBRANCH   1  13
TORSDOF 2
ENDMDL
MODEL 3
REMARK VINA RESULT:      -6.2      1.067      1.069
REMARK  Name = 
REMARK  2 active torsions:
REMARK  status: ('A' for Active; 'I' for Inactive)
REMARK    1  A    between atoms: C_2  and  C_3
REMARK    2  A    between atoms: N_5  and  C_6
REMARK                            x       y       z     vdW  Elec       q    Type
REMARK                         _______ _______ _______ _____ _____    ______ ____
ROOT
ATOM      1  C   UNL     1       6.221   5.782  18.103  0.00  0.00    +0.000 A 
ATOM      2  C   UNL     1       4.846   5.773  18.177  0.00  0.00    +0.000 A 
ATOM      3  N   UNL     1       4.534   4.631  18.875  0.00  0.00    +0.000 N 
ATOM      4  N   UNL     1       5.682   3.995  19.224  0.00  0.00    +0.000 NA
ATOM      5  N   UNL     1       6.711   4.682  18.747  0.00  0.00    +0.000 NA
ENDROOT
BRANCH   3   6
ATOM      6  C   UNL     1       3.255   4.122  19.214  0.00  0.00    +0.000 A 
ATOM      7  C   UNL     1       2.679   3.077  18.477  0.00  0.00    +0.000 A 
ATOM      8  C   UNL     1       1.422   2.582  18.831  0.00  0.00    +0.000 A 
ATOM      9  C   UNL     1       0.730   3.128  19.911  0.00  0.00    +0.000 A 
ATOM     10  C   UNL     1       1.296   4.168  20.646  0.00  0.00    +0.000 A 
ATOM     11  C   UNL     1       2.557   4.665  20.303  0.00  0.00    +0.000 A 
ENDBRANCH   3   6
BRANCH   1  13
ATOM     12  O   UNL     1       7.625   6.585  16.387  0.00  0.00    +0.000 OA
ATOM     13  C   UNL     1       7.064   6.764  17.465  0.00  0.00    +0.000 C 
ENDBRANCH   1  13
TORSDOF 2
ENDMDL
MODEL 4
REMARK VINA RESULT:      -6.2      1.058      1.663
REMARK  Name = 
REMARK  2 active torsions:
REMARK  status: ('A' for Active; 'I' for Inactive)
REMARK    1  A    between atoms: C_2  and  C_3
REMARK    2  A    between atoms: N_5  and  C_6
REMARK                            x       y       z     vdW  Elec       q    Type
REMARK                         _______ _______ _______ _____ _____    ______ ____
ROOT
ATOM      1  C   UNL     1       6.381   5.726  18.081  0.00  0.00    +0.000 A 
ATOM      2  C   UNL     1       5.005   5.706  18.017  0.00  0.00    +0.000 A 
ATOM      3  N   UNL     1       4.623   4.695  18.866  0.00  0.00    +0.000 N 
ATOM      4  N   UNL     1       5.729   4.147  19.433  0.00  0.00    +0.000 NA
ATOM      5  N   UNL     1       6.802   4.760  18.951  0.00  0.00    +0.000 NA
ENDROOT
BRANCH   3   6
ATOM      6  C   UNL     1       3.316   4.230  19.157  0.00  0.00    +0.000 A 
ATOM      7  C   UNL     1       2.769   4.383  20.440  0.00  0.00    +0.000 A 
ATOM      8  C   UNL     1       1.477   3.926  20.708  0.00  0.00    +0.000 A 
ATOM      9  C   UNL     1       0.727   3.311  19.706  0.00  0.00    +0.000 A 
ATOM     10  C   UNL     1       1.265   3.154  18.431  0.00  0.00    +0.000 A 
ATOM     11  C   UNL     1       2.555   3.614  18.152  0.00  0.00    +0.000 A 
ENDBRANCH   3   6
BRANCH   1  13
ATOM     12  O   UNL     1       7.539   6.491  16.175  0.00  0.00    +0.000 OA
ATOM     13  C   UNL     1       7.285   6.599  17.372  0.00  0.00    +0.000 C 
ENDBRANCH   1  13
TORSDOF 2
ENDMDL
MODEL 5
REMARK VINA RESULT:      -6.1      1.292      1.686
REMARK  Name = 
REMARK  2 active torsions:
REMARK  status: ('A' for Active; 'I' for Inactive)
REMARK    1  A    between atoms: C_2  and  C_3
REMARK    2  A    between atoms: N_5  and  C_6
REMARK                            x       y       z     vdW  Elec       q    Type
REMARK                         _______ _______ _______ _____ _____    ______ ____
ROOT
ATOM      1  C   UNL     1       5.883   4.505  17.149  0.00  0.00    +0.000 A 
ATOM      2  C   UNL     1       5.427   4.308  18.433  0.00  0.00    +0.000 A 
ATOM      3  N   UNL     1       4.112   3.934  18.291  0.00  0.00    +0.000 N 
ATOM      4  N   UNL     1       3.803   3.887  16.969  0.00  0.00    +0.000 NA
ATOM      5  N   UNL     1       4.871   4.246  16.269  0.00  0.00    +0.000 NA
ENDROOT
BRANCH   3   6
ATOM      6  C   UNL     1       3.163   3.632  19.299  0.00  0.00    +0.000 A 
ATOM      7  C   UNL     1       3.516   2.842  20.404  0.00  0.00    +0.000 A 
ATOM      8  C   UNL     1       2.570   2.562  21.393  0.00  0.00    +0.000 A 
ATOM      9  C   UNL     1       1.272   3.058  21.285  0.00  0.00    +0.000 A 
ATOM     10  C   UNL     1       0.914   3.840  20.189  0.00  0.00    +0.000 A 
ATOM     11  C   UNL     1       1.856   4.132  19.197  0.00  0.00    +0.000 A 
ENDBRANCH   3   6
BRANCH   1  13
ATOM     12  O   UNL     1       7.421   5.619  15.751  0.00  0.00    +0.000 OA
ATOM     13  C   UNL     1       7.203   4.917  16.735  0.00  0.00    +0.000 C 
ENDBRANCH   1  13
TORSDOF 2
ENDMDL
MODEL 6
REMARK VINA RESULT:      -6.1      1.189      1.551
REMARK  Name = 
REMARK  2 active torsions:
REMARK  status: ('A' for Active; 'I' for Inactive)
REMARK    1  A    between atoms: C_2  and  C_3
REMARK    2  A    between atoms: N_5  and  C_6
REMARK                            x       y       z     vdW  Elec       q    Type
REMARK                         _______ _______ _______ _____ _____    ______ ____
ROOT
ATOM      1  C   UNL     1       6.421   4.492  16.886  0.00  0.00    +0.000 A 
ATOM      2  C   UNL     1       5.093   4.369  17.229  0.00  0.00    +0.000 A 
ATOM      3  N   UNL     1       5.083   4.303  18.602  0.00  0.00    +0.000 N 
ATOM      4  N   UNL     1       6.358   4.406  19.062  0.00  0.00    +0.000 NA
ATOM      5  N   UNL     1       7.177   4.507  18.024  0.00  0.00    +0.000 NA
ENDROOT
BRANCH   3   6
ATOM      6  C   UNL     1       3.976   4.148  19.473  0.00  0.00    +0.000 A 
ATOM      7  C   UNL     1       3.149   5.238  19.783  0.00  0.00    +0.000 A 
ATOM      8  C   UNL     1       2.057   5.066  20.638  0.00  0.00    +0.000 A 
ATOM      9  C   UNL     1       1.789   3.816  21.191  0.00  0.00    +0.000 A 
ATOM     10  C   UNL     1       2.608   2.730  20.890  0.00  0.00    +0.000 A 
ATOM     11  C   UNL     1       3.699   2.891  20.030  0.00  0.00    +0.000 A 
ENDBRANCH   3   6
BRANCH   1  13
ATOM     12  O   UNL     1       6.891   5.593  14.855  0.00  0.00    +0.000 OA
ATOM     13  C   UNL     1       6.985   4.592  15.562  0.00  0.00    +0.000 C 
ENDBRANCH   1  13
TORSDOF 2
ENDMDL
MODEL 7
REMARK VINA RESULT:      -6.0      1.483      1.578
REMARK  Name = 
REMARK  2 active torsions:
REMARK  status: ('A' for Active; 'I' for Inactive)
REMARK    1  A    between atoms: C_2  and  C_3
REMARK    2  A    between atoms: N_5  and  C_6
REMARK                            x       y       z     vdW  Elec       q    Type
REMARK                         _______ _______ _______ _____ _____    ______ ____
ROOT
ATOM      1  C   UNL     1       5.580   5.033  15.860  0.00  0.00    +0.000 A 
ATOM      2  C   UNL     1       4.747   4.165  16.531  0.00  0.00    +0.000 A 
ATOM      3  N   UNL     1       3.960   4.967  17.323  0.00  0.00    +0.000 N 
ATOM      4  N   UNL     1       4.296   6.267  17.113  0.00  0.00    +0.000 NA
ATOM      5  N   UNL     1       5.289   6.313  16.236  0.00  0.00    +0.000 NA
ENDROOT
BRANCH   3   6
ATOM      6  C   UNL     1       2.946   4.587  18.237  0.00  0.00    +0.000 A 
ATOM      7  C   UNL     1       2.057   3.545  17.931  0.00  0.00    +0.000 A 
ATOM      8  C   UNL     1       1.069   3.178  18.848  0.00  0.00    +0.000 A 
ATOM      9  C   UNL     1       0.955   3.848  20.065  0.00  0.00    +0.000 A 
ATOM     10  C   UNL     1       1.833   4.886  20.373  0.00  0.00    +0.000 A 
ATOM     11  C   UNL     1       2.829   5.255  19.465  0.00  0.00    +0.000 A 
ENDBRANCH   3   6
BRANCH   1  13
ATOM     12  O   UNL     1       7.597   5.407  14.698  0.00  0.00    +0.000 OA
ATOM     13  C   UNL     1       6.611   4.705  14.905  0.00  0.00    +0.000 C 
ENDBRANCH   1  13
TORSDOF 2
ENDMDL
MODEL 8
REMARK VINA RESULT:      -6.0      1.295      1.625
REMARK  Name = 
REMARK  2 active torsions:
REMARK  status: ('A' for Active; 'I' for Inactive)
REMARK    1  A    between atoms: C_2  and  C_3
REMARK    2  A    between atoms: N_5  and  C_6
REMARK                            x       y       z     vdW  Elec       q    Type
REMARK                         _______ _______ _______ _____ _____    ______ ____
ROOT
ATOM      1  C   UNL     1       5.927   4.431  17.168  0.00  0.00    +0.000 A 
ATOM      2  C   UNL     1       5.428   4.370  18.450  0.00  0.00    +0.000 A 
ATOM      3  N   UNL     1       4.153   3.876  18.314  0.00  0.00    +0.000 N 
ATOM      4  N   UNL     1       3.909   3.630  17.000  0.00  0.00    +0.000 NA
ATOM      5  N   UNL     1       4.978   3.978  16.296  0.00  0.00    +0.000 NA
ENDROOT
BRANCH   3   6
ATOM      6  C   UNL     1       3.184   3.636  19.320  0.00  0.00    +0.000 A 
ATOM      7  C   UNL     1       1.912   4.223  19.245  0.00  0.00    +0.000 A 
ATOM      8  C   UNL     1       0.966   3.969  20.242  0.00  0.00    +0.000 A 
ATOM      9  C   UNL     1       1.283   3.139  21.316  0.00  0.00    +0.000 A 
ATOM     10  C   UNL     1       2.545   2.556  21.397  0.00  0.00    +0.000 A 
ATOM     11  C   UNL     1       3.496   2.799  20.401  0.00  0.00    +0.000 A 
ENDBRANCH   3   6
BRANCH   1  13
ATOM     12  O   UNL     1       7.444   6.005  16.285  0.00  0.00    +0.000 OA
ATOM     13  C   UNL     1       7.230   4.888  16.749  0.00  0.00    +0.000 C 
ENDBRANCH   1  13
TORSDOF 2
ENDMDL
MODEL 9
REMARK VINA RESULT:      -6.0      3.190      5.605
REMARK  Name = 
REMARK  2 active torsions:
REMARK  status: ('A' for Active; 'I' for Inactive)
REMARK    1  A    between atoms: C_2  and  C_3
REMARK    2  A    between atoms: N_5  and  C_6
REMARK                            x       y       z     vdW  Elec       q    Type
REMARK                         _______ _______ _______ _____ _____    ______ ____
ROOT
ATOM      1  C   UNL     1       2.991   3.460  20.451  0.00  0.00    +0.000 A 
ATOM      2  C   UNL     1       3.424   4.658  19.926  0.00  0.00    +0.000 A 
ATOM      3  N   UNL     1       4.662   4.387  19.394  0.00  0.00    +0.000 N 
ATOM      4  N   UNL     1       4.947   3.071  19.575  0.00  0.00    +0.000 NA
ATOM      5  N   UNL     1       3.941   2.505  20.229  0.00  0.00    +0.000 NA
ENDROOT
BRANCH   3   6
ATOM      6  C   UNL     1       5.563   5.273  18.751  0.00  0.00    +0.000 A 
ATOM      7  C   UNL     1       6.841   5.506  19.279  0.00  0.00    +0.000 A 
ATOM      8  C   UNL     1       7.718   6.377  18.627  0.00  0.00    +0.000 A 
ATOM      9  C   UNL     1       7.327   7.021  17.455  0.00  0.00    +0.000 A 
ATOM     10  C   UNL     1       6.058   6.796  16.927  0.00  0.00    +0.000 A 
ATOM     11  C   UNL     1       5.175   5.921  17.568  0.00  0.00    +0.000 A 
ENDBRANCH   3   6
BRANCH   1  13
ATOM     12  O   UNL     1       1.648   2.441  22.099  0.00  0.00    +0.000 OA
ATOM     13  C   UNL     1       1.748   3.195  21.134  0.00  0.00    +0.000 C 
ENDBRANCH   1  13
TORSDOF 2
ENDMDL
