MODEL 1
REMARK VINA RESULT:      -7.1      0.000      0.000
REMARK  Name = 
REMARK  3 active torsions:
REMARK  status: ('A' for Active; 'I' for Inactive)
REMARK    1  A    between atoms: O_1  and  C_2
REMARK    2  A    between atoms: C_6  and  C_7
REMARK    3  A    between atoms: C_16  and  C_17
REMARK                            x       y       z     vdW  Elec       q    Type
REMARK                         _______ _______ _______ _____ _____    ______ ____
ROOT
ATOM      1  C   UNL     1       3.633   6.009  17.440  0.00  0.00    +0.000 C 
ATOM      2  N   UNL     1       3.819   7.213  17.899  0.00  0.00    +0.000 NA
ATOM      3  C   UNL     1       2.754   7.934  18.472  0.00  0.00    +0.000 A 
ATOM      4  C   UNL     1       2.506   9.206  17.941  0.00  0.00    +0.000 A 
ATOM      5  C   UNL     1       1.489  10.016  18.443  0.00  0.00    +0.000 A 
ATOM      6  C   UNL     1       0.706   9.565  19.501  0.00  0.00    +0.000 A 
ATOM      7  C   UNL     1       0.950   8.306  20.058  0.00  0.00    +0.000 A 
ATOM      8  C   UNL     1       1.967   7.484  19.551  0.00  0.00    +0.000 A 
ATOM      9  S   UNL     1       2.244   5.919  20.370  0.00  0.00    +0.000 S 
ATOM     10  C   UNL     1       2.059   4.728  18.975  0.00  0.00    +0.000 C 
ATOM     11  C   UNL     1       2.306   5.272  17.560  0.00  0.00    +0.000 C 
ENDROOT
BRANCH   1  16
ATOM     12  C   UNL     1       7.033   4.408  16.900  0.00  0.00    +0.000 A 
ATOM     13  C   UNL     1       7.007   4.145  15.533  0.00  0.00    +0.000 A 
ATOM     14  C   UNL     1       5.853   4.435  14.804  0.00  0.00    +0.000 A 
ATOM     15  C   UNL     1       4.747   5.000  15.445  0.00  0.00    +0.000 A 
ATOM     16  C   UNL     1       4.798   5.307  16.813  0.00  0.00    +0.000 A 
ATOM     17  C   UNL     1       5.943   4.982  17.546  0.00  0.00    +0.000 A 
BRANCH  12  18
ATOM     18  O   UNL     1       8.127   4.117  17.659  0.00  0.00    +0.000 OA
ATOM     19  H   UNL     1       8.069   4.613  18.492  0.00  0.00    +0.000 HD
ENDBRANCH  12  18
ENDBRANCH   1  16
BRANCH  10  20
ATOM     20  C   UNL     1       2.912   3.501  19.244  0.00  0.00    +0.000 A 
ATOM     21  C   UNL     1       3.782   3.254  20.292  0.00  0.00    +0.000 A 
ATOM     22  C   UNL     1       4.511   2.043  20.133  0.00  0.00    +0.000 A 
ATOM     23  C   UNL     1       4.108   1.349  19.016  0.00  0.00    +0.000 A 
ATOM     24  S   UNL     1       2.898   2.182  18.142  0.00  0.00    +0.000 S 
ENDBRANCH  10  20
TORSDOF 3
ENDMDL
MODEL 2
REMARK VINA RESULT:      -7.0      1.053      1.143
REMARK  Name = 
REMARK  3 active torsions:
REMARK  status: ('A' for Active; 'I' for Inactive)
REMARK    1  A    between atoms: O_1  and  C_2
REMARK    2  A    between atoms: C_6  and  C_7
REMARK    3  A    between atoms: C_16  and  C_17
REMARK                            x       y       z     vdW  Elec       q    Type
REMARK                         _______ _______ _______ _____ _____    ______ ____
ROOT
ATOM      1  C   UNL     1       3.158   6.165  17.972  0.00  0.00    +0.000 C 
ATOM      2  N   UNL     1       3.290   7.279  18.632  0.00  0.00    +0.000 NA
ATOM      3  C   UNL     1       2.208   7.815  19.357  0.00  0.00    +0.000 A 
ATOM      4  C   UNL     1       1.862   9.142  19.068  0.00  0.00    +0.000 A 
ATOM      5  C   UNL     1       0.820   9.781  19.737  0.00  0.00    +0.000 A 
ATOM      6  C   UNL     1       0.111   9.100  20.722  0.00  0.00    +0.000 A 
ATOM      7  C   UNL     1       0.453   7.783  21.039  0.00  0.00    +0.000 A 
ATOM      8  C   UNL     1       1.496   7.132  20.363  0.00  0.00    +0.000 A 
ATOM      9  S   UNL     1       1.901   5.470  20.882  0.00  0.00    +0.000 S 
ATOM     10  C   UNL     1       1.729   4.532  19.303  0.00  0.00    +0.000 C 
ATOM     11  C   UNL     1       1.883   5.331  18.000  0.00  0.00    +0.000 C 
ENDROOT
BRANCH   1  16
ATOM     12  C   UNL     1       6.581   5.901  16.352  0.00  0.00    +0.000 A 
ATOM     13  C   UNL     1       6.440   4.750  15.581  0.00  0.00    +0.000 A 
ATOM     14  C   UNL     1       5.247   4.029  15.643  0.00  0.00    +0.000 A 
ATOM     15  C   UNL     1       4.204   4.476  16.459  0.00  0.00    +0.000 A 
ATOM     16  C   UNL     1       4.335   5.663  17.195  0.00  0.00    +0.000 A 
ATOM     17  C   UNL     1       5.545   6.362  17.157  0.00  0.00    +0.000 A 
BRANCH  12  18
ATOM     18  O   UNL     1       7.737   6.623  16.345  0.00  0.00    +0.000 OA
ATOM     19  H   UNL     1       8.474   6.030  16.126  0.00  0.00    +0.000 HD
ENDBRANCH  12  18
ENDBRANCH   1  16
BRANCH  10  20
ATOM     20  C   UNL     1       2.666   3.336  19.324  0.00  0.00    +0.000 A 
ATOM     21  C   UNL     1       3.823   3.145  20.058  0.00  0.00    +0.000 A 
ATOM     22  C   UNL     1       4.509   1.949  19.710  0.00  0.00    +0.000 A 
ATOM     23  C   UNL     1       3.807   1.210  18.787  0.00  0.00    +0.000 A 
ATOM     24  S   UNL     1       2.360   1.984  18.308  0.00  0.00    +0.000 S 
ENDBRANCH  10  20
TORSDOF 3
ENDMDL
MODEL 3
REMARK VINA RESULT:      -6.9      2.436      5.615
REMARK  Name = 
REMARK  3 active torsions:
REMARK  status: ('A' for Active; 'I' for Inactive)
REMARK    1  A    between atoms: O_1  and  C_2
REMARK    2  A    between atoms: C_6  and  C_7
REMARK    3  A    between atoms: C_16  and  C_17
REMARK                            x       y       z     vdW  Elec       q    Type
REMARK                         _______ _______ _______ _____ _____    ______ ____
ROOT
ATOM      1  C   UNL     1       3.826   6.222  18.278  0.00  0.00    +0.000 C 
ATOM      2  N   UNL     1       3.953   6.326  16.987  0.00  0.00    +0.000 NA
ATOM      3  C   UNL     1       4.929   5.579  16.300  0.00  0.00    +0.000 A 
ATOM      4  C   UNL     1       5.807   6.304  15.483  0.00  0.00    +0.000 A 
ATOM      5  C   UNL     1       6.800   5.666  14.742  0.00  0.00    +0.000 A 
ATOM      6  C   UNL     1       6.924   4.281  14.800  0.00  0.00    +0.000 A 
ATOM      7  C   UNL     1       6.045   3.538  15.593  0.00  0.00    +0.000 A 
ATOM      8  C   UNL     1       5.049   4.176  16.347  0.00  0.00    +0.000 A 
ATOM      9  S   UNL     1       3.933   3.136  17.281  0.00  0.00    +0.000 S 
ATOM     10  C   UNL     1       4.145   3.799  18.989  0.00  0.00    +0.000 C 
ATOM     11  C   UNL     1       4.643   5.247  19.115  0.00  0.00    +0.000 C 
ENDROOT
BRANCH   1  16
ATOM     12  C   UNL     1       1.339   8.989  19.032  0.00  0.00    +0.000 A 
ATOM     13  C   UNL     1       0.985   8.700  20.347  0.00  0.00    +0.000 A 
ATOM     14  C   UNL     1       1.513   7.563  20.962  0.00  0.00    +0.000 A 
ATOM     15  C   UNL     1       2.401   6.742  20.262  0.00  0.00    +0.000 A 
ATOM     16  C   UNL     1       2.791   7.067  18.955  0.00  0.00    +0.000 A 
ATOM     17  C   UNL     1       2.232   8.186  18.331  0.00  0.00    +0.000 A 
BRANCH  12  18
ATOM     18  O   UNL     1       0.828  10.073  18.381  0.00  0.00    +0.000 OA
ATOM     19  H   UNL     1       1.127  10.878  18.835  0.00  0.00    +0.000 HD
ENDBRANCH  12  18
ENDBRANCH   1  16
BRANCH  10  20
ATOM     20  C   UNL     1       2.860   3.594  19.771  0.00  0.00    +0.000 A 
ATOM     21  C   UNL     1       2.682   3.440  21.135  0.00  0.00    +0.000 A 
ATOM     22  C   UNL     1       1.339   3.133  21.487  0.00  0.00    +0.000 A 
ATOM     23  C   UNL     1       0.507   3.155  20.392  0.00  0.00    +0.000 A 
ATOM     24  S   UNL     1       1.355   3.492  18.947  0.00  0.00    +0.000 S 
ENDBRANCH  10  20
TORSDOF 3
ENDMDL
MODEL 4
REMARK VINA RESULT:      -6.8      3.210      4.675
REMARK  Name = 
REMARK  3 active torsions:
REMARK  status: ('A' for Active; 'I' for Inactive)
REMARK    1  A    between atoms: O_1  and  C_2
REMARK    2  A    between atoms: C_6  and  C_7
REMARK    3  A    between atoms: C_16  and  C_17
REMARK                            x       y       z     vdW  Elec       q    Type
REMARK                         _______ _______ _______ _____ _____    ______ ____
ROOT
ATOM      1  C   UNL     1       4.650   3.889  17.016  0.00  0.00    +0.000 C 
ATOM      2  N   UNL     1       3.351   3.878  16.943  0.00  0.00    +0.000 NA
ATOM      3  C   UNL     1       2.570   3.652  18.092  0.00  0.00    +0.000 A 
ATOM      4  C   UNL     1       1.628   2.618  18.011  0.00  0.00    +0.000 A 
ATOM      5  C   UNL     1       0.788   2.317  19.083  0.00  0.00    +0.000 A 
ATOM      6  C   UNL     1       0.872   3.060  20.256  0.00  0.00    +0.000 A 
ATOM      7  C   UNL     1       1.791   4.109  20.349  0.00  0.00    +0.000 A 
ATOM      8  C   UNL     1       2.644   4.410  19.278  0.00  0.00    +0.000 A 
ATOM      9  S   UNL     1       3.742   5.808  19.469  0.00  0.00    +0.000 S 
ATOM     10  C   UNL     1       5.389   5.036  19.164  0.00  0.00    +0.000 C 
ATOM     11  C   UNL     1       5.408   3.747  18.329  0.00  0.00    +0.000 C 
ENDROOT
BRANCH   1  16
ATOM     12  C   UNL     1       5.699   3.886  13.367  0.00  0.00    +0.000 A 
ATOM     13  C   UNL     1       7.000   4.374  13.447  0.00  0.00    +0.000 A 
ATOM     14  C   UNL     1       7.508   4.762  14.688  0.00  0.00    +0.000 A 
ATOM     15  C   UNL     1       6.718   4.641  15.833  0.00  0.00    +0.000 A 
ATOM     16  C   UNL     1       5.425   4.103  15.753  0.00  0.00    +0.000 A 
ATOM     17  C   UNL     1       4.908   3.749  14.503  0.00  0.00    +0.000 A 
BRANCH  12  18
ATOM     18  O   UNL     1       5.149   3.520  12.174  0.00  0.00    +0.000 OA
ATOM     19  H   UNL     1       5.392   2.598  11.990  0.00  0.00    +0.000 HD
ENDBRANCH  12  18
ENDBRANCH   1  16
BRANCH  10  20
ATOM     20  C   UNL     1       6.332   6.075  18.583  0.00  0.00    +0.000 A 
ATOM     21  C   UNL     1       7.693   6.229  18.783  0.00  0.00    +0.000 A 
ATOM     22  C   UNL     1       8.213   7.405  18.176  0.00  0.00    +0.000 A 
ATOM     23  C   UNL     1       7.254   8.068  17.447  0.00  0.00    +0.000 A 
ATOM     24  S   UNL     1       5.728   7.303  17.543  0.00  0.00    +0.000 S 
ENDBRANCH  10  20
TORSDOF 3
ENDMDL
MODEL 5
REMARK VINA RESULT:      -6.6      3.013      4.452
REMARK  Name = 
REMARK  3 active torsions:
REMARK  status: ('A' for Active; 'I' for Inactive)
REMARK    1  A    between atoms: O_1  and  C_2
REMARK    2  A    between atoms: C_6  and  C_7
REMARK    3  A    between atoms: C_16  and  C_17
REMARK                            x       y       z     vdW  Elec       q    Type
REMARK                         _______ _______ _______ _____ _____    ______ ____
ROOT
ATOM      1  C   UNL     1       4.603   3.855  17.044  0.00  0.00    +0.000 C 
ATOM      2  N   UNL     1       3.303   3.842  16.971  0.00  0.00    +0.000 NA
ATOM      3  C   UNL     1       2.522   3.654  18.127  0.00  0.00    +0.000 A 
ATOM      4  C   UNL     1       1.580   2.618  18.080  0.00  0.00    +0.000 A 
ATOM      5  C   UNL     1       0.740   2.352  19.160  0.00  0.00    +0.000 A 
ATOM      6  C   UNL     1       0.824   3.133  20.308  0.00  0.00    +0.000 A 
ATOM      7  C   UNL     1       1.743   4.183  20.368  0.00  0.00    +0.000 A 
ATOM      8  C   UNL     1       2.597   4.450  19.288  0.00  0.00    +0.000 A 
ATOM      9  S   UNL     1       3.695   5.853  19.433  0.00  0.00    +0.000 S 
ATOM     10  C   UNL     1       5.341   5.071  19.154  0.00  0.00    +0.000 C 
ATOM     11  C   UNL     1       5.360   3.756  18.362  0.00  0.00    +0.000 C 
ENDROOT
BRANCH   1  16
ATOM     12  C   UNL     1       7.189   4.992  14.507  0.00  0.00    +0.000 A 
ATOM     13  C   UNL     1       6.685   4.449  13.329  0.00  0.00    +0.000 A 
ATOM     14  C   UNL     1       5.535   3.659  13.377  0.00  0.00    +0.000 A 
ATOM     15  C   UNL     1       4.893   3.438  14.599  0.00  0.00    +0.000 A 
ATOM     16  C   UNL     1       5.378   4.028  15.775  0.00  0.00    +0.000 A 
ATOM     17  C   UNL     1       6.551   4.788  15.726  0.00  0.00    +0.000 A 
BRANCH  12  18
ATOM     18  O   UNL     1       8.323   5.747  14.514  0.00  0.00    +0.000 OA
ATOM     19  H   UNL     1       8.806   5.591  13.685  0.00  0.00    +0.000 HD
ENDBRANCH  12  18
ENDBRANCH   1  16
BRANCH  10  20
ATOM     20  C   UNL     1       6.285   6.091  18.541  0.00  0.00    +0.000 A 
ATOM     21  C   UNL     1       7.653   6.226  18.705  0.00  0.00    +0.000 A 
ATOM     22  C   UNL     1       8.174   7.388  18.074  0.00  0.00    +0.000 A 
ATOM     23  C   UNL     1       7.207   8.060  17.363  0.00  0.00    +0.000 A 
ATOM     24  S   UNL     1       5.674   7.318  17.504  0.00  0.00    +0.000 S 
ENDBRANCH  10  20
TORSDOF 3
ENDMDL
MODEL 6
REMARK VINA RESULT:      -6.5      1.148      1.410
REMARK  Name = 
REMARK  3 active torsions:
REMARK  status: ('A' for Active; 'I' for Inactive)
REMARK    1  A    between atoms: O_1  and  C_2
REMARK    2  A    between atoms: C_6  and  C_7
REMARK    3  A    between atoms: C_16  and  C_17
REMARK                            x       y       z     vdW  Elec       q    Type
REMARK                         _______ _______ _______ _____ _____    ______ ____
ROOT
ATOM      1  C   UNL     1       3.261   6.235  18.030  0.00  0.00    +0.000 C 
ATOM      2  N   UNL     1       3.344   7.326  18.735  0.00  0.00    +0.000 NA
ATOM      3  C   UNL     1       2.216   7.832  19.408  0.00  0.00    +0.000 A 
ATOM      4  C   UNL     1       1.881   9.167  19.143  0.00  0.00    +0.000 A 
ATOM      5  C   UNL     1       0.794   9.779  19.766  0.00  0.00    +0.000 A 
ATOM      6  C   UNL     1       0.028   9.061  20.679  0.00  0.00    +0.000 A 
ATOM      7  C   UNL     1       0.357   7.735  20.971  0.00  0.00    +0.000 A 
ATOM      8  C   UNL     1       1.444   7.112  20.341  0.00  0.00    +0.000 A 
ATOM      9  S   UNL     1       1.825   5.434  20.827  0.00  0.00    +0.000 S 
ATOM     10  C   UNL     1       1.760   4.552  19.209  0.00  0.00    +0.000 C 
ATOM     11  C   UNL     1       1.992   5.396  17.947  0.00  0.00    +0.000 C 
ENDROOT
BRANCH   1  16
ATOM     12  C   UNL     1       5.739   4.078  16.128  0.00  0.00    +0.000 A 
ATOM     13  C   UNL     1       6.875   4.882  16.134  0.00  0.00    +0.000 A 
ATOM     14  C   UNL     1       6.809   6.154  16.705  0.00  0.00    +0.000 A 
ATOM     15  C   UNL     1       5.615   6.598  17.279  0.00  0.00    +0.000 A 
ATOM     16  C   UNL     1       4.488   5.764  17.312  0.00  0.00    +0.000 A 
ATOM     17  C   UNL     1       4.549   4.505  16.707  0.00  0.00    +0.000 A 
BRANCH  12  18
ATOM     18  O   UNL     1       5.748   2.839  15.558  0.00  0.00    +0.000 OA
ATOM     19  H   UNL     1       6.145   2.211  16.184  0.00  0.00    +0.000 HD
ENDBRANCH  12  18
ENDBRANCH   1  16
BRANCH  10  20
ATOM     20  C   UNL     1       2.700   3.359  19.248  0.00  0.00    +0.000 A 
ATOM     21  C   UNL     1       3.801   3.140  20.058  0.00  0.00    +0.000 A 
ATOM     22  C   UNL     1       4.518   1.963  19.710  0.00  0.00    +0.000 A 
ATOM     23  C   UNL     1       3.891   1.261  18.707  0.00  0.00    +0.000 A 
ATOM     24  S   UNL     1       2.479   2.051  18.156  0.00  0.00    +0.000 S 
ENDBRANCH  10  20
TORSDOF 3
ENDMDL
MODEL 7
REMARK VINA RESULT:      -6.5      0.965      1.392
REMARK  Name = 
REMARK  3 active torsions:
REMARK  status: ('A' for Active; 'I' for Inactive)
REMARK    1  A    between atoms: O_1  and  C_2
REMARK    2  A    between atoms: C_6  and  C_7
REMARK    3  A    between atoms: C_16  and  C_17
REMARK                            x       y       z     vdW  Elec       q    Type
REMARK                         _______ _______ _______ _____ _____    ______ ____
ROOT
ATOM      1  C   UNL     1       3.595   6.133  17.497  0.00  0.00    +0.000 C 
ATOM      2  N   UNL     1       3.753   7.334  17.972  0.00  0.00    +0.000 NA
ATOM      3  C   UNL     1       2.667   8.030  18.538  0.00  0.00    +0.000 A 
ATOM      4  C   UNL     1       2.405   9.304  18.017  0.00  0.00    +0.000 A 
ATOM      5  C   UNL     1       1.366  10.090  18.514  0.00  0.00    +0.000 A 
ATOM      6  C   UNL     1       0.576   9.613  19.555  0.00  0.00    +0.000 A 
ATOM      7  C   UNL     1       0.834   8.353  20.102  0.00  0.00    +0.000 A 
ATOM      8  C   UNL     1       1.873   7.555  19.601  0.00  0.00    +0.000 A 
ATOM      9  S   UNL     1       2.166   5.986  20.407  0.00  0.00    +0.000 S 
ATOM     10  C   UNL     1       2.021   4.807  18.996  0.00  0.00    +0.000 C 
ATOM     11  C   UNL     1       2.279   5.371  17.590  0.00  0.00    +0.000 C 
ENDROOT
BRANCH   1  16
ATOM     12  C   UNL     1       5.864   4.333  15.043  0.00  0.00    +0.000 A 
ATOM     13  C   UNL     1       6.970   4.048  15.839  0.00  0.00    +0.000 A 
ATOM     14  C   UNL     1       6.997   4.501  17.159  0.00  0.00    +0.000 A 
ATOM     15  C   UNL     1       5.912   5.216  17.672  0.00  0.00    +0.000 A 
ATOM     16  C   UNL     1       4.780   5.458  16.880  0.00  0.00    +0.000 A 
ATOM     17  C   UNL     1       4.773   5.033  15.547  0.00  0.00    +0.000 A 
BRANCH  12  18
ATOM     18  O   UNL     1       5.805   3.935  13.741  0.00  0.00    +0.000 OA
ATOM     19  H   UNL     1       6.334   3.127  13.637  0.00  0.00    +0.000 HD
ENDBRANCH  12  18
ENDBRANCH   1  16
BRANCH  10  20
ATOM     20  C   UNL     1       2.892   3.592  19.264  0.00  0.00    +0.000 A 
ATOM     21  C   UNL     1       3.771   3.360  20.307  0.00  0.00    +0.000 A 
ATOM     22  C   UNL     1       4.514   2.158  20.148  0.00  0.00    +0.000 A 
ATOM     23  C   UNL     1       4.114   1.455  19.036  0.00  0.00    +0.000 A 
ATOM     24  S   UNL     1       2.890   2.270  18.165  0.00  0.00    +0.000 S 
ENDBRANCH  10  20
TORSDOF 3
ENDMDL
MODEL 8
REMARK VINA RESULT:      -6.4      2.347      5.520
REMARK  Name = 
REMARK  3 active torsions:
REMARK  status: ('A' for Active; 'I' for Inactive)
REMARK    1  A    between atoms: O_1  and  C_2
REMARK    2  A    between atoms: C_6  and  C_7
REMARK    3  A    between atoms: C_16  and  C_17
REMARK                            x       y       z     vdW  Elec       q    Type
REMARK                         _______ _______ _______ _____ _____    ______ ____
ROOT
ATOM      1  C   UNL     1       4.013   6.376  17.944  0.00  0.00    +0.000 C 
ATOM      2  N   UNL     1       4.138   6.406  16.649  0.00  0.00    +0.000 NA
ATOM      3  C   UNL     1       5.076   5.580  16.000  0.00  0.00    +0.000 A 
ATOM      4  C   UNL     1       5.982   6.220  15.145  0.00  0.00    +0.000 A 
ATOM      5  C   UNL     1       6.942   5.499  14.436  0.00  0.00    +0.000 A 
ATOM      6  C   UNL     1       7.002   4.115  14.565  0.00  0.00    +0.000 A 
ATOM      7  C   UNL     1       6.093   3.456  15.398  0.00  0.00    +0.000 A 
ATOM      8  C   UNL     1       5.131   4.177  16.120  0.00  0.00    +0.000 A 
ATOM      9  S   UNL     1       3.973   3.241  17.109  0.00  0.00    +0.000 S 
ATOM     10  C   UNL     1       4.223   3.981  18.780  0.00  0.00    +0.000 C 
ATOM     11  C   UNL     1       4.788   5.408  18.829  0.00  0.00    +0.000 C 
ENDROOT
BRANCH   1  16
ATOM     12  C   UNL     1       1.638   7.986  20.431  0.00  0.00    +0.000 A 
ATOM     13  C   UNL     1       1.034   8.966  19.649  0.00  0.00    +0.000 A 
ATOM     14  C   UNL     1       1.450   9.139  18.328  0.00  0.00    +0.000 A 
ATOM     15  C   UNL     1       2.451   8.319  17.800  0.00  0.00    +0.000 A 
ATOM     16  C   UNL     1       3.021   7.301  18.578  0.00  0.00    +0.000 A 
ATOM     17  C   UNL     1       2.626   7.156  19.911  0.00  0.00    +0.000 A 
BRANCH  12  18
ATOM     18  O   UNL     1       1.284   7.797  21.733  0.00  0.00    +0.000 OA
ATOM     19  H   UNL     1       1.403   8.634  22.213  0.00  0.00    +0.000 HD
ENDBRANCH  12  18
ENDBRANCH   1  16
BRANCH  10  20
ATOM     20  C   UNL     1       2.933   3.877  19.575  0.00  0.00    +0.000 A 
ATOM     21  C   UNL     1       2.753   3.834  20.946  0.00  0.00    +0.000 A 
ATOM     22  C   UNL     1       1.402   3.596  21.320  0.00  0.00    +0.000 A 
ATOM     23  C   UNL     1       0.569   3.560  20.226  0.00  0.00    +0.000 A 
ATOM     24  S   UNL     1       1.425   3.758  18.759  0.00  0.00    +0.000 S 
ENDBRANCH  10  20
TORSDOF 3
ENDMDL
MODEL 9
REMARK VINA RESULT:      -6.1      1.306      1.777
REMARK  Name = 
REMARK  3 active torsions:
REMARK  status: ('A' for Active; 'I' for Inactive)
REMARK    1  A    between atoms: O_1  and  C_2
REMARK    2  A    between atoms: C_6  and  C_7
REMARK    3  A    between atoms: C_16  and  C_17
REMARK                            x       y       z     vdW  Elec       q    Type
REMARK                         _______ _______ _______ _____ _____    ______ ____
ROOT
ATOM      1  C   UNL     1       3.471   5.886  17.811  0.00  0.00    +0.000 C 
ATOM      2  N   UNL     1       3.586   6.994  18.484  0.00  0.00    +0.000 NA
ATOM      3  C   UNL     1       2.488   7.520  19.191  0.00  0.00    +0.000 A 
ATOM      4  C   UNL     1       2.144   8.848  18.907  0.00  0.00    +0.000 A 
ATOM      5  C   UNL     1       1.086   9.478  19.561  0.00  0.00    +0.000 A 
ATOM      6  C   UNL     1       0.358   8.785  20.524  0.00  0.00    +0.000 A 
ATOM      7  C   UNL     1       0.699   7.466  20.835  0.00  0.00    +0.000 A 
ATOM      8  C   UNL     1       1.757   6.825  20.175  0.00  0.00    +0.000 A 
ATOM      9  S   UNL     1       2.156   5.159  20.686  0.00  0.00    +0.000 S 
ATOM     10  C   UNL     1       2.021   4.236  19.096  0.00  0.00    +0.000 C 
ATOM     11  C   UNL     1       2.199   5.048  17.804  0.00  0.00    +0.000 C 
ENDROOT
BRANCH   1  16
ATOM     12  C   UNL     1       5.690   4.442  15.090  0.00  0.00    +0.000 A 
ATOM     13  C   UNL     1       6.909   4.326  15.752  0.00  0.00    +0.000 A 
ATOM     14  C   UNL     1       7.018   4.780  17.067  0.00  0.00    +0.000 A 
ATOM     15  C   UNL     1       5.904   5.326  17.710  0.00  0.00    +0.000 A 
ATOM     16  C   UNL     1       4.666   5.394  17.054  0.00  0.00    +0.000 A 
ATOM     17  C   UNL     1       4.572   4.971  15.724  0.00  0.00    +0.000 A 
BRANCH  12  18
ATOM     18  O   UNL     1       5.543   4.037  13.796  0.00  0.00    +0.000 OA
ATOM     19  H   UNL     1       5.313   3.093  13.789  0.00  0.00    +0.000 HD
ENDBRANCH  12  18
ENDBRANCH   1  16
BRANCH  10  20
ATOM     20  C   UNL     1       2.960   3.043  19.124  0.00  0.00    +0.000 A 
ATOM     21  C   UNL     1       3.176   2.077  18.157  0.00  0.00    +0.000 A 
ATOM     22  C   UNL     1       4.035   1.034  18.598  0.00  0.00    +0.000 A 
ATOM     23  C   UNL     1       4.530   1.279  19.858  0.00  0.00    +0.000 A 
ATOM     24  S   UNL     1       3.916   2.731  20.518  0.00  0.00    +0.000 S 
ENDBRANCH  10  20
TORSDOF 3
ENDMDL
