MODEL 1
REMARK VINA RESULT:      -8.6      0.000      0.000
REMARK  Name = 
REMARK  0 active torsions:
REMARK  status: ('A' for Active; 'I' for Inactive)
REMARK                            x       y       z     vdW  Elec       q    Type
REMARK                         _______ _______ _______ _____ _____    ______ ____
ROOT
ATOM      1  O   UNL     1       1.122   4.935  19.909  0.00  0.00    +0.000 OA
ATOM      2  C   UNL     1       1.919   5.831  19.674  0.00  0.00    +0.000 A 
ATOM      3  N   UNL     1       2.365   6.762  20.606  0.00  0.00    +0.000 N 
ATOM      4  C   UNL     1       1.581   7.931  20.606  0.00  0.00    +0.000 A 
ATOM      5  C   UNL     1       0.944   8.255  21.805  0.00  0.00    +0.000 A 
ATOM      6  C   UNL     1       0.104   9.366  21.864  0.00  0.00    +0.000 A 
ATOM      7  C   UNL     1      -0.094  10.143  20.728  0.00  0.00    +0.000 A 
ATOM      8  C   UNL     1       0.561   9.826  19.530  0.00  0.00    +0.000 A 
ATOM      9  C   UNL     1       1.418   8.716  19.457  0.00  0.00    +0.000 A 
ATOM     10  C   UNL     1       2.148   8.467  18.181  0.00  0.00    +0.000 A 
ATOM     11  O   UNL     1       2.139   9.351  17.320  0.00  0.00    +0.000 OA
ATOM     12  C   UNL     1       2.905   7.219  17.859  0.00  0.00    +0.000 A 
ATOM     13  C   UNL     1       4.001   7.319  16.993  0.00  0.00    +0.000 A 
ATOM     14  C   UNL     1       4.760   6.184  16.665  0.00  0.00    +0.000 A 
ATOM     15  C   UNL     1       5.996   6.294  16.016  0.00  0.00    +0.000 A 
ATOM     16  C   UNL     1       6.749   5.155  15.728  0.00  0.00    +0.000 A 
ATOM     17  C   UNL     1       6.250   3.890  16.025  0.00  0.00    +0.000 A 
ATOM     18  C   UNL     1       5.022   3.760  16.671  0.00  0.00    +0.000 A 
ATOM     19  C   UNL     1       4.301   4.900  17.046  0.00  0.00    +0.000 A 
ATOM     20  C   UNL     1       3.193   4.793  17.885  0.00  0.00    +0.000 A 
ATOM     21  C   UNL     1       2.599   5.956  18.379  0.00  0.00    +0.000 A 
ATOM     22  H   UNL     1       3.332   7.029  20.386  0.00  0.00    +0.000 HD
ENDROOT
TORSDOF 0
ENDMDL
MODEL 2
REMARK VINA RESULT:      -8.2      2.591      4.587
REMARK  Name = 
REMARK  0 active torsions:
REMARK  status: ('A' for Active; 'I' for Inactive)
REMARK                            x       y       z     vdW  Elec       q    Type
REMARK                         _______ _______ _______ _____ _____    ______ ____
ROOT
ATOM      1  O   UNL     1       6.237   7.045  18.123  0.00  0.00    +0.000 OA
ATOM      2  C   UNL     1       5.419   6.390  17.495  0.00  0.00    +0.000 A 
ATOM      3  N   UNL     1       4.053   6.652  17.455  0.00  0.00    +0.000 N 
ATOM      4  C   UNL     1       3.347   5.939  18.443  0.00  0.00    +0.000 A 
ATOM      5  C   UNL     1       2.635   6.699  19.373  0.00  0.00    +0.000 A 
ATOM      6  C   UNL     1       1.961   6.064  20.414  0.00  0.00    +0.000 A 
ATOM      7  C   UNL     1       2.004   4.679  20.521  0.00  0.00    +0.000 A 
ATOM      8  C   UNL     1       2.704   3.916  19.576  0.00  0.00    +0.000 A 
ATOM      9  C   UNL     1       3.381   4.540  18.516  0.00  0.00    +0.000 A 
ATOM     10  C   UNL     1       4.048   3.680  17.497  0.00  0.00    +0.000 A 
ATOM     11  O   UNL     1       3.804   2.469  17.503  0.00  0.00    +0.000 OA
ATOM     12  C   UNL     1       4.995   4.172  16.450  0.00  0.00    +0.000 A 
ATOM     13  C   UNL     1       5.060   3.471  15.240  0.00  0.00    +0.000 A 
ATOM     14  C   UNL     1       5.920   3.894  14.214  0.00  0.00    +0.000 A 
ATOM     15  C   UNL     1       5.822   3.374  12.917  0.00  0.00    +0.000 A 
ATOM     16  C   UNL     1       6.665   3.833  11.903  0.00  0.00    +0.000 A 
ATOM     17  C   UNL     1       7.659   4.766  12.186  0.00  0.00    +0.000 A 
ATOM     18  C   UNL     1       7.772   5.295  13.470  0.00  0.00    +0.000 A 
ATOM     19  C   UNL     1       6.872   4.910  14.470  0.00  0.00    +0.000 A 
ATOM     20  C   UNL     1       6.830   5.591  15.685  0.00  0.00    +0.000 A 
ATOM     21  C   UNL     1       5.812   5.298  16.595  0.00  0.00    +0.000 A 
ATOM     22  H   UNL     1       3.679   6.377  16.540  0.00  0.00    +0.000 HD
ENDROOT
TORSDOF 0
ENDMDL
MODEL 3
REMARK VINA RESULT:      -8.1      1.687      6.072
REMARK  Name = 
REMARK  0 active torsions:
REMARK  status: ('A' for Active; 'I' for Inactive)
REMARK                            x       y       z     vdW  Elec       q    Type
REMARK                         _______ _______ _______ _____ _____    ______ ____
ROOT
ATOM      1  O   UNL     1       2.177   4.817  21.521  0.00  0.00    +0.000 OA
ATOM      2  C   UNL     1       1.956   5.248  20.399  0.00  0.00    +0.000 A 
ATOM      3  N   UNL     1       1.420   4.504  19.354  0.00  0.00    +0.000 N 
ATOM      4  C   UNL     1       2.417   3.915  18.553  0.00  0.00    +0.000 A 
ATOM      5  C   UNL     1       2.406   2.522  18.466  0.00  0.00    +0.000 A 
ATOM      6  C   UNL     1       3.399   1.867  17.740  0.00  0.00    +0.000 A 
ATOM      7  C   UNL     1       4.394   2.605  17.110  0.00  0.00    +0.000 A 
ATOM      8  C   UNL     1       4.394   4.004  17.184  0.00  0.00    +0.000 A 
ATOM      9  C   UNL     1       3.395   4.680  17.903  0.00  0.00    +0.000 A 
ATOM     10  C   UNL     1       3.396   6.171  17.888  0.00  0.00    +0.000 A 
ATOM     11  O   UNL     1       4.134   6.748  17.084  0.00  0.00    +0.000 OA
ATOM     12  C   UNL     1       2.561   7.036  18.777  0.00  0.00    +0.000 A 
ATOM     13  C   UNL     1       2.173   8.293  18.296  0.00  0.00    +0.000 A 
ATOM     14  C   UNL     1       1.376   9.143  19.079  0.00  0.00    +0.000 A 
ATOM     15  C   UNL     1       0.768  10.281  18.533  0.00  0.00    +0.000 A 
ATOM     16  C   UNL     1      -0.048  11.095  19.322  0.00  0.00    +0.000 A 
ATOM     17  C   UNL     1      -0.213  10.821  20.677  0.00  0.00    +0.000 A 
ATOM     18  C   UNL     1       0.384   9.694  21.237  0.00  0.00    +0.000 A 
ATOM     19  C   UNL     1       1.128   8.821  20.435  0.00  0.00    +0.000 A 
ATOM     20  C   UNL     1       1.538   7.583  20.927  0.00  0.00    +0.000 A 
ATOM     21  C   UNL     1       2.128   6.665  20.055  0.00  0.00    +0.000 A 
ATOM     22  H   UNL     1       0.854   5.115  18.754  0.00  0.00    +0.000 HD
ENDROOT
TORSDOF 0
ENDMDL
MODEL 4
REMARK VINA RESULT:      -7.9      2.014      3.774
REMARK  Name = 
REMARK  0 active torsions:
REMARK  status: ('A' for Active; 'I' for Inactive)
REMARK                            x       y       z     vdW  Elec       q    Type
REMARK                         _______ _______ _______ _____ _____    ______ ____
ROOT
ATOM      1  O   UNL     1       2.282  10.247  17.441  0.00  0.00    +0.000 OA
ATOM      2  C   UNL     1       1.601   9.509  18.138  0.00  0.00    +0.000 A 
ATOM      3  N   UNL     1       0.222   9.611  18.290  0.00  0.00    +0.000 N 
ATOM      4  C   UNL     1      -0.133  10.408  19.395  0.00  0.00    +0.000 A 
ATOM      5  C   UNL     1      -0.902  11.542  19.126  0.00  0.00    +0.000 A 
ATOM      6  C   UNL     1      -1.240  12.410  20.163  0.00  0.00    +0.000 A 
ATOM      7  C   UNL     1      -0.809  12.142  21.456  0.00  0.00    +0.000 A 
ATOM      8  C   UNL     1      -0.052  10.994  21.728  0.00  0.00    +0.000 A 
ATOM      9  C   UNL     1       0.289  10.104  20.696  0.00  0.00    +0.000 A 
ATOM     10  C   UNL     1       1.031   8.860  21.050  0.00  0.00    +0.000 A 
ATOM     11  O   UNL     1       1.129   8.556  22.242  0.00  0.00    +0.000 OA
ATOM     12  C   UNL     1       1.668   7.935  20.064  0.00  0.00    +0.000 A 
ATOM     13  C   UNL     1       1.769   6.580  20.402  0.00  0.00    +0.000 A 
ATOM     14  C   UNL     1       2.344   5.661  19.510  0.00  0.00    +0.000 A 
ATOM     15  C   UNL     1       2.229   4.279  19.709  0.00  0.00    +0.000 A 
ATOM     16  C   UNL     1       2.780   3.382  18.792  0.00  0.00    +0.000 A 
ATOM     17  C   UNL     1       3.510   3.851  17.703  0.00  0.00    +0.000 A 
ATOM     18  C   UNL     1       3.635   5.222  17.488  0.00  0.00    +0.000 A 
ATOM     19  C   UNL     1       3.008   6.129  18.350  0.00  0.00    +0.000 A 
ATOM     20  C   UNL     1       2.936   7.482  18.025  0.00  0.00    +0.000 A 
ATOM     21  C   UNL     1       2.160   8.332  18.815  0.00  0.00    +0.000 A 
ATOM     22  H   UNL     1      -0.176   8.676  18.435  0.00  0.00    +0.000 HD
ENDROOT
TORSDOF 0
ENDMDL
MODEL 5
REMARK VINA RESULT:      -7.7      2.792      5.050
REMARK  Name = 
REMARK  0 active torsions:
REMARK  status: ('A' for Active; 'I' for Inactive)
REMARK                            x       y       z     vdW  Elec       q    Type
REMARK                         _______ _______ _______ _____ _____    ______ ____
ROOT
ATOM      1  O   UNL     1       0.676  11.719  18.388  0.00  0.00    +0.000 OA
ATOM      2  C   UNL     1       0.210  10.886  19.152  0.00  0.00    +0.000 A 
ATOM      3  N   UNL     1      -1.135  10.781  19.488  0.00  0.00    +0.000 N 
ATOM      4  C   UNL     1      -1.452  11.513  20.648  0.00  0.00    +0.000 A 
ATOM      5  C   UNL     1      -2.410  12.520  20.509  0.00  0.00    +0.000 A 
ATOM      6  C   UNL     1      -2.730  13.324  21.600  0.00  0.00    +0.000 A 
ATOM      7  C   UNL     1      -2.095  13.120  22.819  0.00  0.00    +0.000 A 
ATOM      8  C   UNL     1      -1.147  12.098  22.962  0.00  0.00    +0.000 A 
ATOM      9  C   UNL     1      -0.819  11.272  21.875  0.00  0.00    +0.000 A 
ATOM     10  C   UNL     1       0.139  10.151  22.099  0.00  0.00    +0.000 A 
ATOM     11  O   UNL     1       0.440   9.863  23.261  0.00  0.00    +0.000 OA
ATOM     12  C   UNL     1       0.768   9.335  21.016  0.00  0.00    +0.000 A 
ATOM     13  C   UNL     1       1.112   8.009  21.307  0.00  0.00    +0.000 A 
ATOM     14  C   UNL     1       1.692   7.189  20.327  0.00  0.00    +0.000 A 
ATOM     15  C   UNL     1       1.809   5.805  20.508  0.00  0.00    +0.000 A 
ATOM     16  C   UNL     1       2.360   5.003  19.506  0.00  0.00    +0.000 A 
ATOM     17  C   UNL     1       2.859   5.579  18.341  0.00  0.00    +0.000 A 
ATOM     18  C   UNL     1       2.751   6.954  18.143  0.00  0.00    +0.000 A 
ATOM     19  C   UNL     1       2.118   7.755  19.101  0.00  0.00    +0.000 A 
ATOM     20  C   UNL     1       1.803   9.082  18.818  0.00  0.00    +0.000 A 
ATOM     21  C   UNL     1       1.023   9.805  19.723  0.00  0.00    +0.000 A 
ATOM     22  H   UNL     1      -1.367   9.796  19.662  0.00  0.00    +0.000 HD
ENDROOT
TORSDOF 0
ENDMDL
MODEL 6
REMARK VINA RESULT:      -7.3      2.328      3.928
REMARK  Name = 
REMARK  0 active torsions:
REMARK  status: ('A' for Active; 'I' for Inactive)
REMARK                            x       y       z     vdW  Elec       q    Type
REMARK                         _______ _______ _______ _____ _____    ______ ____
ROOT
ATOM      1  O   UNL     1       3.567   8.474  17.474  0.00  0.00    +0.000 OA
ATOM      2  C   UNL     1       2.569   8.120  18.085  0.00  0.00    +0.000 A 
ATOM      3  N   UNL     1       1.302   8.672  17.924  0.00  0.00    +0.000 N 
ATOM      4  C   UNL     1       1.061   9.722  18.832  0.00  0.00    +0.000 A 
ATOM      5  C   UNL     1       0.781  10.973  18.280  0.00  0.00    +0.000 A 
ATOM      6  C   UNL     1       0.590  12.071  19.117  0.00  0.00    +0.000 A 
ATOM      7  C   UNL     1       0.682  11.913  20.494  0.00  0.00    +0.000 A 
ATOM      8  C   UNL     1       0.946  10.653  21.048  0.00  0.00    +0.000 A 
ATOM      9  C   UNL     1       1.131   9.534  20.219  0.00  0.00    +0.000 A 
ATOM     10  C   UNL     1       1.334   8.203  20.859  0.00  0.00    +0.000 A 
ATOM     11  O   UNL     1       1.122   8.098  22.071  0.00  0.00    +0.000 OA
ATOM     12  C   UNL     1       1.773   6.968  20.142  0.00  0.00    +0.000 A 
ATOM     13  C   UNL     1       1.349   5.730  20.641  0.00  0.00    +0.000 A 
ATOM     14  C   UNL     1       1.716   4.536  20.001  0.00  0.00    +0.000 A 
ATOM     15  C   UNL     1       1.106   3.317  20.322  0.00  0.00    +0.000 A 
ATOM     16  C   UNL     1       1.464   2.147  19.650  0.00  0.00    +0.000 A 
ATOM     17  C   UNL     1       2.480   2.166  18.699  0.00  0.00    +0.000 A 
ATOM     18  C   UNL     1       3.099   3.369  18.367  0.00  0.00    +0.000 A 
ATOM     19  C   UNL     1       2.684   4.563  18.968  0.00  0.00    +0.000 A 
ATOM     20  C   UNL     1       3.133   5.791  18.487  0.00  0.00    +0.000 A 
ATOM     21  C   UNL     1       2.572   6.966  18.992  0.00  0.00    +0.000 A 
ATOM     22  H   UNL     1       0.592   7.949  18.082  0.00  0.00    +0.000 HD
ENDROOT
TORSDOF 0
ENDMDL
MODEL 7
REMARK VINA RESULT:      -7.2      3.315      8.485
REMARK  Name = 
REMARK  0 active torsions:
REMARK  status: ('A' for Active; 'I' for Inactive)
REMARK                            x       y       z     vdW  Elec       q    Type
REMARK                         _______ _______ _______ _____ _____    ______ ____
ROOT
ATOM      1  O   UNL     1       1.166   9.803  23.066  0.00  0.00    +0.000 OA
ATOM      2  C   UNL     1       0.353   9.831  22.154  0.00  0.00    +0.000 A 
ATOM      3  N   UNL     1       0.051   8.755  21.326  0.00  0.00    +0.000 N 
ATOM      4  C   UNL     1       0.839   8.746  20.159  0.00  0.00    +0.000 A 
ATOM      5  C   UNL     1       1.641   7.622  19.956  0.00  0.00    +0.000 A 
ATOM      6  C   UNL     1       2.492   7.569  18.853  0.00  0.00    +0.000 A 
ATOM      7  C   UNL     1       2.536   8.636  17.964  0.00  0.00    +0.000 A 
ATOM      8  C   UNL     1       1.716   9.756  18.159  0.00  0.00    +0.000 A 
ATOM      9  C   UNL     1       0.847   9.821  19.260  0.00  0.00    +0.000 A 
ATOM     10  C   UNL     1      -0.058  11.000  19.380  0.00  0.00    +0.000 A 
ATOM     11  O   UNL     1      -0.161  11.759  18.413  0.00  0.00    +0.000 OA
ATOM     12  C   UNL     1      -0.865  11.337  20.592  0.00  0.00    +0.000 A 
ATOM     13  C   UNL     1      -2.070  12.026  20.409  0.00  0.00    +0.000 A 
ATOM     14  C   UNL     1      -2.879  12.358  21.508  0.00  0.00    +0.000 A 
ATOM     15  C   UNL     1      -4.193  12.812  21.338  0.00  0.00    +0.000 A 
ATOM     16  C   UNL     1      -4.990  13.105  22.446  0.00  0.00    +0.000 A 
ATOM     17  C   UNL     1      -4.466  13.013  23.732  0.00  0.00    +0.000 A 
ATOM     18  C   UNL     1      -3.162  12.562  23.921  0.00  0.00    +0.000 A 
ATOM     19  C   UNL     1      -2.384  12.178  22.823  0.00  0.00    +0.000 A 
ATOM     20  C   UNL     1      -1.171  11.519  23.009  0.00  0.00    +0.000 A 
ATOM     21  C   UNL     1      -0.501  10.998  21.900  0.00  0.00    +0.000 A 
ATOM     22  H   UNL     1      -0.934   8.808  21.042  0.00  0.00    +0.000 HD
ENDROOT
TORSDOF 0
ENDMDL
MODEL 8
REMARK VINA RESULT:      -7.1      3.476      6.128
REMARK  Name = 
REMARK  0 active torsions:
REMARK  status: ('A' for Active; 'I' for Inactive)
REMARK                            x       y       z     vdW  Elec       q    Type
REMARK                         _______ _______ _______ _____ _____    ______ ____
ROOT
ATOM      1  O   UNL     1      -0.792  12.888  18.162  0.00  0.00    +0.000 OA
ATOM      2  C   UNL     1      -1.024  12.006  18.976  0.00  0.00    +0.000 A 
ATOM      3  N   UNL     1      -2.294  11.624  19.395  0.00  0.00    +0.000 N 
ATOM      4  C   UNL     1      -2.703  12.318  20.550  0.00  0.00    +0.000 A 
ATOM      5  C   UNL     1      -3.863  13.086  20.440  0.00  0.00    +0.000 A 
ATOM      6  C   UNL     1      -4.294  13.846  21.525  0.00  0.00    +0.000 A 
ATOM      7  C   UNL     1      -3.567  13.835  22.709  0.00  0.00    +0.000 A 
ATOM      8  C   UNL     1      -2.412  13.049  22.824  0.00  0.00    +0.000 A 
ATOM      9  C   UNL     1      -1.969  12.270  21.743  0.00  0.00    +0.000 A 
ATOM     10  C   UNL     1      -0.779  11.394  21.941  0.00  0.00    +0.000 A 
ATOM     11  O   UNL     1      -0.362  11.225  23.091  0.00  0.00    +0.000 OA
ATOM     12  C   UNL     1      -0.044  10.690  20.847  0.00  0.00    +0.000 A 
ATOM     13  C   UNL     1       0.597   9.483  21.155  0.00  0.00    +0.000 A 
ATOM     14  C   UNL     1       1.290   8.768  20.165  0.00  0.00    +0.000 A 
ATOM     15  C   UNL     1       1.717   7.451  20.379  0.00  0.00    +0.000 A 
ATOM     16  C   UNL     1       2.376   6.748  19.369  0.00  0.00    +0.000 A 
ATOM     17  C   UNL     1       2.676   7.370  18.160  0.00  0.00    +0.000 A 
ATOM     18  C   UNL     1       2.259   8.679  17.930  0.00  0.00    +0.000 A 
ATOM     19  C   UNL     1       1.517   9.362  18.900  0.00  0.00    +0.000 A 
ATOM     20  C   UNL     1       0.906  10.577  18.599  0.00  0.00    +0.000 A 
ATOM     21  C   UNL     1       0.035  11.150  19.528  0.00  0.00    +0.000 A 
ATOM     22  H   UNL     1      -2.296  10.621  19.611  0.00  0.00    +0.000 HD
ENDROOT
TORSDOF 0
ENDMDL
MODEL 9
REMARK VINA RESULT:      -7.1      7.173      9.905
REMARK  Name = 
REMARK  0 active torsions:
REMARK  status: ('A' for Active; 'I' for Inactive)
REMARK                            x       y       z     vdW  Elec       q    Type
REMARK                         _______ _______ _______ _____ _____    ______ ____
ROOT
ATOM      1  O   UNL     1      -7.823  12.609  19.178  0.00  0.00    +0.000 OA
ATOM      2  C   UNL     1      -6.829  12.285  19.810  0.00  0.00    +0.000 A 
ATOM      3  N   UNL     1      -6.846  11.682  21.063  0.00  0.00    +0.000 N 
ATOM      4  C   UNL     1      -6.776  12.624  22.107  0.00  0.00    +0.000 A 
ATOM      5  C   UNL     1      -7.845  12.641  23.006  0.00  0.00    +0.000 A 
ATOM      6  C   UNL     1      -7.873  13.587  24.029  0.00  0.00    +0.000 A 
ATOM      7  C   UNL     1      -6.838  14.507  24.147  0.00  0.00    +0.000 A 
ATOM      8  C   UNL     1      -5.757  14.477  23.255  0.00  0.00    +0.000 A 
ATOM      9  C   UNL     1      -5.709  13.525  22.225  0.00  0.00    +0.000 A 
ATOM     10  C   UNL     1      -4.503  13.487  21.349  0.00  0.00    +0.000 A 
ATOM     11  O   UNL     1      -3.512  14.141  21.690  0.00  0.00    +0.000 OA
ATOM     12  C   UNL     1      -4.392  12.707  20.079  0.00  0.00    +0.000 A 
ATOM     13  C   UNL     1      -3.125  12.249  19.697  0.00  0.00    +0.000 A 
ATOM     14  C   UNL     1      -2.960  11.498  18.522  0.00  0.00    +0.000 A 
ATOM     15  C   UNL     1      -1.765  10.819  18.251  0.00  0.00    +0.000 A 
ATOM     16  C   UNL     1      -1.634  10.051  17.092  0.00  0.00    +0.000 A 
ATOM     17  C   UNL     1      -2.667  10.006  16.159  0.00  0.00    +0.000 A 
ATOM     18  C   UNL     1      -3.862  10.676  16.412  0.00  0.00    +0.000 A 
ATOM     19  C   UNL     1      -4.038  11.372  17.613  0.00  0.00    +0.000 A 
ATOM     20  C   UNL     1      -5.294  11.852  17.976  0.00  0.00    +0.000 A 
ATOM     21  C   UNL     1      -5.475  12.391  19.252  0.00  0.00    +0.000 A 
ATOM     22  H   UNL     1      -6.040  11.053  21.151  0.00  0.00    +0.000 HD
ENDROOT
TORSDOF 0
ENDMDL
