MODEL 1
REMARK VINA RESULT:      -8.8      0.000      0.000
REMARK  Name = 
REMARK  6 active torsions:
REMARK  status: ('A' for Active; 'I' for Inactive)
REMARK    1  A    between atoms: C_1  and  C_2
REMARK    2  A    between atoms: C_2  and  C_3
REMARK    3  A    between atoms: C_2  and  N_4
REMARK    4  A    between atoms: C_6  and  C_7
REMARK    5  A    between atoms: N_9  and  C_10
REMARK    6  A    between atoms: C_13  and  N_14
REMARK                            x       y       z     vdW  Elec       q    Type
REMARK                         _______ _______ _______ _____ _____    ______ ____
ROOT
ATOM      1  C   UNL     1       1.995   7.698  19.540  0.00  0.00    +0.000 C 
ATOM      2  O   UNL     1       1.587   8.370  18.601  0.00  0.00    +0.000 OA
ATOM      3  N   UNL     1       1.769   7.956  20.889  0.00  0.00    +0.000 N 
ATOM      4  H   UNL     1       2.445   7.559  21.537  0.00  0.00    +0.000 HD
ENDROOT
BRANCH   1   7
ATOM      5  N   UNL     1       4.772   5.724  18.116  0.00  0.00    +0.000 N 
ATOM      6  N   UNL     1       3.944   6.767  18.481  0.00  0.00    +0.000 NA
ATOM      7  C   UNL     1       2.906   6.516  19.226  0.00  0.00    +0.000 A 
ATOM      8  C   UNL     1       2.549   5.161  19.708  0.00  0.00    +0.000 A 
ATOM      9  C   UNL     1       1.411   4.870  20.477  0.00  0.00    +0.000 A 
ATOM     10  C   UNL     1       1.090   3.548  20.805  0.00  0.00    +0.000 A 
ATOM     11  C   UNL     1       1.923   2.508  20.405  0.00  0.00    +0.000 A 
ATOM     12  C   UNL     1       3.074   2.792  19.675  0.00  0.00    +0.000 A 
ATOM     13  C   UNL     1       3.379   4.116  19.319  0.00  0.00    +0.000 A 
ATOM     14  C   UNL     1       4.556   4.393  18.481  0.00  0.00    +0.000 A 
ATOM     15  O   UNL     1       5.270   3.457  18.126  0.00  0.00    +0.000 OA
BRANCH   5  17
ATOM     16  C   UNL     1       5.115   6.510  15.806  0.00  0.00    +0.000 C 
ATOM     17  C   UNL     1       5.786   5.999  17.084  0.00  0.00    +0.000 C 
ATOM     18  C   UNL     1       6.867   6.970  17.553  0.00  0.00    +0.000 C 
ENDBRANCH   5  17
ENDBRANCH   1   7
BRANCH   3  19
ATOM     19  C   UNL     1       0.906   8.993  21.317  0.00  0.00    +0.000 A 
ATOM     20  C   UNL     1       0.989  10.268  20.748  0.00  0.00    +0.000 A 
ATOM     21  C   UNL     1       0.281  11.346  21.270  0.00  0.00    +0.000 A 
ATOM     22  C   UNL     1      -0.557  11.160  22.368  0.00  0.00    +0.000 A 
ATOM     23  C   UNL     1      -0.743   9.863  22.877  0.00  0.00    +0.000 A 
ATOM     24  C   UNL     1      -0.020   8.778  22.342  0.00  0.00    +0.000 A 
BRANCH  22  25
ATOM     25  N   UNL     1      -1.178  12.279  22.971  0.00  0.00    +0.000 N 
ATOM     26  C   UNL     1      -2.501  12.459  23.301  0.00  0.00    +0.000 A 
ATOM     27  N   UNL     1      -2.665  13.659  23.804  0.00  0.00    +0.000 NA
ATOM     28  N   UNL     1      -1.425  14.242  23.786  0.00  0.00    +0.000 NA
ATOM     29  N   UNL     1      -0.517  13.415  23.284  0.00  0.00    +0.000 NA
ENDBRANCH  22  25
ENDBRANCH   3  19
TORSDOF 4
ENDMDL
MODEL 2
REMARK VINA RESULT:      -8.6      2.666      4.304
REMARK  Name = 
REMARK  6 active torsions:
REMARK  status: ('A' for Active; 'I' for Inactive)
REMARK    1  A    between atoms: C_1  and  C_2
REMARK    2  A    between atoms: C_2  and  C_3
REMARK    3  A    between atoms: C_2  and  N_4
REMARK    4  A    between atoms: C_6  and  C_7
REMARK    5  A    between atoms: N_9  and  C_10
REMARK    6  A    between atoms: C_13  and  N_14
REMARK                            x       y       z     vdW  Elec       q    Type
REMARK                         _______ _______ _______ _____ _____    ______ ____
ROOT
ATOM      1  C   UNL     1       2.196   7.468  18.878  0.00  0.00    +0.000 C 
ATOM      2  O   UNL     1       2.222   7.777  20.062  0.00  0.00    +0.000 OA
ATOM      3  N   UNL     1       1.724   8.263  17.837  0.00  0.00    +0.000 N 
ATOM      4  H   UNL     1       1.423   7.768  17.000  0.00  0.00    +0.000 HD
ENDROOT
BRANCH   1   7
ATOM      5  N   UNL     1       2.362   3.780  18.780  0.00  0.00    +0.000 N 
ATOM      6  N   UNL     1       1.970   5.079  19.040  0.00  0.00    +0.000 NA
ATOM      7  C   UNL     1       2.636   6.058  18.499  0.00  0.00    +0.000 A 
ATOM      8  C   UNL     1       3.811   5.864  17.616  0.00  0.00    +0.000 A 
ATOM      9  C   UNL     1       4.563   6.911  17.061  0.00  0.00    +0.000 A 
ATOM     10  C   UNL     1       5.720   6.644  16.320  0.00  0.00    +0.000 A 
ATOM     11  C   UNL     1       6.114   5.330  16.091  0.00  0.00    +0.000 A 
ATOM     12  C   UNL     1       5.351   4.285  16.607  0.00  0.00    +0.000 A 
ATOM     13  C   UNL     1       4.208   4.554  17.377  0.00  0.00    +0.000 A 
ATOM     14  C   UNL     1       3.457   3.442  17.980  0.00  0.00    +0.000 A 
ATOM     15  O   UNL     1       3.831   2.289  17.777  0.00  0.00    +0.000 OA
BRANCH   5  17
ATOM     16  C   UNL     1       1.387   3.252  20.980  0.00  0.00    +0.000 C 
ATOM     17  C   UNL     1       1.748   2.717  19.591  0.00  0.00    +0.000 C 
ATOM     18  C   UNL     1       0.530   2.083  18.922  0.00  0.00    +0.000 C 
ENDBRANCH   5  17
ENDBRANCH   1   7
BRANCH   3  19
ATOM     19  C   UNL     1       1.328   9.606  18.042  0.00  0.00    +0.000 A 
ATOM     20  C   UNL     1       2.277  10.633  18.055  0.00  0.00    +0.000 A 
ATOM     21  C   UNL     1       1.941  11.931  18.430  0.00  0.00    +0.000 A 
ATOM     22  C   UNL     1       0.626  12.235  18.773  0.00  0.00    +0.000 A 
ATOM     23  C   UNL     1      -0.363  11.243  18.651  0.00  0.00    +0.000 A 
ATOM     24  C   UNL     1      -0.011   9.932  18.272  0.00  0.00    +0.000 A 
BRANCH  22  25
ATOM     25  N   UNL     1       0.313  13.522  19.271  0.00  0.00    +0.000 N 
ATOM     26  C   UNL     1      -0.676  13.890  20.153  0.00  0.00    +0.000 A 
ATOM     27  N   UNL     1      -0.651  15.191  20.317  0.00  0.00    +0.000 NA
ATOM     28  N   UNL     1       0.368  15.646  19.522  0.00  0.00    +0.000 NA
ATOM     29  N   UNL     1       0.959  14.644  18.884  0.00  0.00    +0.000 NA
ENDBRANCH  22  25
ENDBRANCH   3  19
TORSDOF 4
ENDMDL
MODEL 3
REMARK VINA RESULT:      -8.4      0.844      1.254
REMARK  Name = 
REMARK  6 active torsions:
REMARK  status: ('A' for Active; 'I' for Inactive)
REMARK    1  A    between atoms: C_1  and  C_2
REMARK    2  A    between atoms: C_2  and  C_3
REMARK    3  A    between atoms: C_2  and  N_4
REMARK    4  A    between atoms: C_6  and  C_7
REMARK    5  A    between atoms: N_9  and  C_10
REMARK    6  A    between atoms: C_13  and  N_14
REMARK                            x       y       z     vdW  Elec       q    Type
REMARK                         _______ _______ _______ _____ _____    ______ ____
ROOT
ATOM      1  C   UNL     1       2.105   7.741  19.475  0.00  0.00    +0.000 C 
ATOM      2  O   UNL     1       1.730   8.421  18.529  0.00  0.00    +0.000 OA
ATOM      3  N   UNL     1       1.866   8.010  20.820  0.00  0.00    +0.000 N 
ATOM      4  H   UNL     1       2.521   7.597  21.480  0.00  0.00    +0.000 HD
ENDROOT
BRANCH   1   7
ATOM      5  N   UNL     1       4.837   5.680  18.088  0.00  0.00    +0.000 N 
ATOM      6  N   UNL     1       4.034   6.749  18.438  0.00  0.00    +0.000 NA
ATOM      7  C   UNL     1       2.985   6.532  19.179  0.00  0.00    +0.000 A 
ATOM      8  C   UNL     1       2.588   5.192  19.670  0.00  0.00    +0.000 A 
ATOM      9  C   UNL     1       1.438   4.939  20.434  0.00  0.00    +0.000 A 
ATOM     10  C   UNL     1       1.079   3.629  20.772  0.00  0.00    +0.000 A 
ATOM     11  C   UNL     1       1.886   2.564  20.387  0.00  0.00    +0.000 A 
ATOM     12  C   UNL     1       3.049   2.810  19.662  0.00  0.00    +0.000 A 
ATOM     13  C   UNL     1       3.392   4.121  19.296  0.00  0.00    +0.000 A 
ATOM     14  C   UNL     1       4.582   4.358  18.464  0.00  0.00    +0.000 A 
ATOM     15  O   UNL     1       5.272   3.400  18.123  0.00  0.00    +0.000 OA
BRANCH   5  17
ATOM     16  C   UNL     1       5.204   6.217  15.712  0.00  0.00    +0.000 C 
ATOM     17  C   UNL     1       5.864   5.918  17.061  0.00  0.00    +0.000 C 
ATOM     18  C   UNL     1       6.844   7.025  17.442  0.00  0.00    +0.000 C 
ENDBRANCH   5  17
ENDBRANCH   1   7
BRANCH   3  19
ATOM     19  C   UNL     1       1.027   9.073  21.233  0.00  0.00    +0.000 A 
ATOM     20  C   UNL     1       0.546   9.131  22.544  0.00  0.00    +0.000 A 
ATOM     21  C   UNL     1      -0.418  10.060  22.927  0.00  0.00    +0.000 A 
ATOM     22  C   UNL     1      -0.902  10.979  21.999  0.00  0.00    +0.000 A 
ATOM     23  C   UNL     1      -0.343  11.012  20.709  0.00  0.00    +0.000 A 
ATOM     24  C   UNL     1       0.631  10.065  20.332  0.00  0.00    +0.000 A 
BRANCH  22  25
ATOM     25  N   UNL     1      -1.967  11.839  22.356  0.00  0.00    +0.000 N 
ATOM     26  C   UNL     1      -2.404  12.981  21.727  0.00  0.00    +0.000 A 
ATOM     27  N   UNL     1      -3.394  13.504  22.410  0.00  0.00    +0.000 NA
ATOM     28  N   UNL     1      -3.578  12.677  23.487  0.00  0.00    +0.000 NA
ATOM     29  N   UNL     1      -2.720  11.665  23.464  0.00  0.00    +0.000 NA
ENDBRANCH  22  25
ENDBRANCH   3  19
TORSDOF 4
ENDMDL
MODEL 4
REMARK VINA RESULT:      -8.3      3.203      9.168
REMARK  Name = 
REMARK  6 active torsions:
REMARK  status: ('A' for Active; 'I' for Inactive)
REMARK    1  A    between atoms: C_1  and  C_2
REMARK    2  A    between atoms: C_2  and  C_3
REMARK    3  A    between atoms: C_2  and  N_4
REMARK    4  A    between atoms: C_6  and  C_7
REMARK    5  A    between atoms: N_9  and  C_10
REMARK    6  A    between atoms: C_13  and  N_14
REMARK                            x       y       z     vdW  Elec       q    Type
REMARK                         _______ _______ _______ _____ _____    ______ ____
ROOT
ATOM      1  C   UNL     1       1.082   9.851  18.543  0.00  0.00    +0.000 C 
ATOM      2  O   UNL     1       1.928  10.432  17.874  0.00  0.00    +0.000 OA
ATOM      3  N   UNL     1       1.102   8.504  18.893  0.00  0.00    +0.000 N 
ATOM      4  H   UNL     1       0.199   8.088  19.113  0.00  0.00    +0.000 HD
ENDROOT
BRANCH   1   7
ATOM      5  N   UNL     1      -1.191  11.930  20.578  0.00  0.00    +0.000 N 
ATOM      6  N   UNL     1      -0.082  11.251  20.115  0.00  0.00    +0.000 NA
ATOM      7  C   UNL     1      -0.153  10.637  18.968  0.00  0.00    +0.000 A 
ATOM      8  C   UNL     1      -1.369  10.616  18.121  0.00  0.00    +0.000 A 
ATOM      9  C   UNL     1      -1.472   9.924  16.904  0.00  0.00    +0.000 A 
ATOM     10  C   UNL     1      -2.688   9.869  16.215  0.00  0.00    +0.000 A 
ATOM     11  C   UNL     1      -3.802  10.538  16.711  0.00  0.00    +0.000 A 
ATOM     12  C   UNL     1      -3.698  11.258  17.899  0.00  0.00    +0.000 A 
ATOM     13  C   UNL     1      -2.485  11.287  18.606  0.00  0.00    +0.000 A 
ATOM     14  C   UNL     1      -2.411  11.986  19.898  0.00  0.00    +0.000 A 
ATOM     15  O   UNL     1      -3.412  12.558  20.326  0.00  0.00    +0.000 OA
BRANCH   5  17
ATOM     16  C   UNL     1      -0.847  11.237  22.917  0.00  0.00    +0.000 C 
ATOM     17  C   UNL     1      -1.158  12.401  21.972  0.00  0.00    +0.000 C 
ATOM     18  C   UNL     1      -0.178  13.552  22.191  0.00  0.00    +0.000 C 
ENDBRANCH   5  17
ENDBRANCH   1   7
BRANCH   3  19
ATOM     19  C   UNL     1       2.208   7.671  18.601  0.00  0.00    +0.000 A 
ATOM     20  C   UNL     1       2.609   6.680  19.503  0.00  0.00    +0.000 A 
ATOM     21  C   UNL     1       3.794   5.970  19.327  0.00  0.00    +0.000 A 
ATOM     22  C   UNL     1       4.594   6.221  18.215  0.00  0.00    +0.000 A 
ATOM     23  C   UNL     1       4.147   7.129  17.238  0.00  0.00    +0.000 A 
ATOM     24  C   UNL     1       2.946   7.843  17.428  0.00  0.00    +0.000 A 
BRANCH  22  25
ATOM     25  N   UNL     1       5.854   5.589  18.102  0.00  0.00    +0.000 N 
ATOM     26  C   UNL     1       6.533   5.210  16.968  0.00  0.00    +0.000 A 
ATOM     27  N   UNL     1       7.651   4.614  17.307  0.00  0.00    +0.000 NA
ATOM     28  N   UNL     1       7.672   4.617  18.677  0.00  0.00    +0.000 NA
ATOM     29  N   UNL     1       6.589   5.205  19.169  0.00  0.00    +0.000 NA
ENDBRANCH  22  25
ENDBRANCH   3  19
TORSDOF 4
ENDMDL
MODEL 5
REMARK VINA RESULT:      -8.3      1.331      3.518
REMARK  Name = 
REMARK  6 active torsions:
REMARK  status: ('A' for Active; 'I' for Inactive)
REMARK    1  A    between atoms: C_1  and  C_2
REMARK    2  A    between atoms: C_2  and  C_3
REMARK    3  A    between atoms: C_2  and  N_4
REMARK    4  A    between atoms: C_6  and  C_7
REMARK    5  A    between atoms: N_9  and  C_10
REMARK    6  A    between atoms: C_13  and  N_14
REMARK                            x       y       z     vdW  Elec       q    Type
REMARK                         _______ _______ _______ _____ _____    ______ ____
ROOT
ATOM      1  C   UNL     1       2.274   7.355  19.101  0.00  0.00    +0.000 C 
ATOM      2  O   UNL     1       2.502   8.314  18.374  0.00  0.00    +0.000 OA
ATOM      3  N   UNL     1       1.687   7.408  20.362  0.00  0.00    +0.000 N 
ATOM      4  H   UNL     1       1.893   6.628  20.982  0.00  0.00    +0.000 HD
ENDROOT
BRANCH   1   7
ATOM      5  N   UNL     1       2.497   3.686  18.751  0.00  0.00    +0.000 N 
ATOM      6  N   UNL     1       2.079   4.958  19.091  0.00  0.00    +0.000 NA
ATOM      7  C   UNL     1       2.744   5.981  18.636  0.00  0.00    +0.000 A 
ATOM      8  C   UNL     1       3.941   5.864  17.771  0.00  0.00    +0.000 A 
ATOM      9  C   UNL     1       4.691   6.958  17.308  0.00  0.00    +0.000 A 
ATOM     10  C   UNL     1       5.869   6.758  16.580  0.00  0.00    +0.000 A 
ATOM     11  C   UNL     1       6.287   5.468  16.270  0.00  0.00    +0.000 A 
ATOM     12  C   UNL     1       5.528   4.380  16.693  0.00  0.00    +0.000 A 
ATOM     13  C   UNL     1       4.364   4.580  17.451  0.00  0.00    +0.000 A 
ATOM     14  C   UNL     1       3.615   3.419  17.957  0.00  0.00    +0.000 A 
ATOM     15  O   UNL     1       4.011   2.288  17.683  0.00  0.00    +0.000 OA
BRANCH   5  17
ATOM     16  C   UNL     1       1.687   2.918  20.948  0.00  0.00    +0.000 C 
ATOM     17  C   UNL     1       1.879   2.560  19.471  0.00  0.00    +0.000 C 
ATOM     18  C   UNL     1       0.561   2.104  18.848  0.00  0.00    +0.000 C 
ENDBRANCH   5  17
ENDBRANCH   1   7
BRANCH   3  19
ATOM     19  C   UNL     1       1.165   8.611  20.895  0.00  0.00    +0.000 A 
ATOM     20  C   UNL     1       1.247   8.876  22.265  0.00  0.00    +0.000 A 
ATOM     21  C   UNL     1       0.588   9.960  22.838  0.00  0.00    +0.000 A 
ATOM     22  C   UNL     1      -0.150  10.827  22.035  0.00  0.00    +0.000 A 
ATOM     23  C   UNL     1      -0.145  10.643  20.641  0.00  0.00    +0.000 A 
ATOM     24  C   UNL     1       0.524   9.540  20.072  0.00  0.00    +0.000 A 
BRANCH  22  25
ATOM     25  N   UNL     1      -0.918  11.854  22.634  0.00  0.00    +0.000 N 
ATOM     26  C   UNL     1      -2.270  11.889  22.881  0.00  0.00    +0.000 A 
ATOM     27  N   UNL     1      -2.586  13.045  23.413  0.00  0.00    +0.000 NA
ATOM     28  N   UNL     1      -1.412  13.747  23.499  0.00  0.00    +0.000 NA
ATOM     29  N   UNL     1      -0.396  13.035  23.030  0.00  0.00    +0.000 NA
ENDBRANCH  22  25
ENDBRANCH   3  19
TORSDOF 4
ENDMDL
MODEL 6
REMARK VINA RESULT:      -8.3      2.378      2.578
REMARK  Name = 
REMARK  6 active torsions:
REMARK  status: ('A' for Active; 'I' for Inactive)
REMARK    1  A    between atoms: C_1  and  C_2
REMARK    2  A    between atoms: C_2  and  C_3
REMARK    3  A    between atoms: C_2  and  N_4
REMARK    4  A    between atoms: C_6  and  C_7
REMARK    5  A    between atoms: N_9  and  C_10
REMARK    6  A    between atoms: C_13  and  N_14
REMARK                            x       y       z     vdW  Elec       q    Type
REMARK                         _______ _______ _______ _____ _____    ______ ____
ROOT
ATOM      1  C   UNL     1       2.297   7.613  18.967  0.00  0.00    +0.000 C 
ATOM      2  O   UNL     1       2.107   7.844  20.154  0.00  0.00    +0.000 OA
ATOM      3  N   UNL     1       1.889   8.413  17.904  0.00  0.00    +0.000 N 
ATOM      4  H   UNL     1       1.780   7.942  17.008  0.00  0.00    +0.000 HD
ENDROOT
BRANCH   1   7
ATOM      5  N   UNL     1       4.572   5.193  17.352  0.00  0.00    +0.000 N 
ATOM      6  N   UNL     1       3.967   6.363  17.770  0.00  0.00    +0.000 NA
ATOM      7  C   UNL     1       2.963   6.293  18.596  0.00  0.00    +0.000 A 
ATOM      8  C   UNL     1       2.416   5.018  19.118  0.00  0.00    +0.000 A 
ATOM      9  C   UNL     1       1.309   4.925  19.977  0.00  0.00    +0.000 A 
ATOM     10  C   UNL     1       0.792   3.679  20.343  0.00  0.00    +0.000 A 
ATOM     11  C   UNL     1       1.399   2.511  19.891  0.00  0.00    +0.000 A 
ATOM     12  C   UNL     1       2.521   2.594  19.070  0.00  0.00    +0.000 A 
ATOM     13  C   UNL     1       3.021   3.846  18.677  0.00  0.00    +0.000 A 
ATOM     14  C   UNL     1       4.158   3.918  17.747  0.00  0.00    +0.000 A 
ATOM     15  O   UNL     1       4.670   2.874  17.349  0.00  0.00    +0.000 OA
BRANCH   5  17
ATOM     16  C   UNL     1       5.195   6.493  15.354  0.00  0.00    +0.000 C 
ATOM     17  C   UNL     1       5.533   5.292  16.242  0.00  0.00    +0.000 C 
ATOM     18  C   UNL     1       6.984   5.359  16.713  0.00  0.00    +0.000 C 
ENDBRANCH   5  17
ENDBRANCH   1   7
BRANCH   3  19
ATOM     19  C   UNL     1       1.300   9.684  18.107  0.00  0.00    +0.000 A 
ATOM     20  C   UNL     1       2.099  10.824  18.241  0.00  0.00    +0.000 A 
ATOM     21  C   UNL     1       1.560  12.051  18.617  0.00  0.00    +0.000 A 
ATOM     22  C   UNL     1       0.190  12.168  18.841  0.00  0.00    +0.000 A 
ATOM     23  C   UNL     1      -0.642  11.062  18.596  0.00  0.00    +0.000 A 
ATOM     24  C   UNL     1      -0.086   9.823  18.216  0.00  0.00    +0.000 A 
BRANCH  22  25
ATOM     25  N   UNL     1      -0.336  13.382  19.342  0.00  0.00    +0.000 N 
ATOM     26  C   UNL     1      -1.316  13.574  20.287  0.00  0.00    +0.000 A 
ATOM     27  N   UNL     1      -1.538  14.859  20.431  0.00  0.00    +0.000 NA
ATOM     28  N   UNL     1      -0.683  15.482  19.559  0.00  0.00    +0.000 NA
ATOM     29  N   UNL     1       0.049  14.597  18.895  0.00  0.00    +0.000 NA
ENDBRANCH  22  25
ENDBRANCH   3  19
TORSDOF 4
ENDMDL
MODEL 7
REMARK VINA RESULT:      -8.1      1.376      1.562
REMARK  Name = 
REMARK  6 active torsions:
REMARK  status: ('A' for Active; 'I' for Inactive)
REMARK    1  A    between atoms: C_1  and  C_2
REMARK    2  A    between atoms: C_2  and  C_3
REMARK    3  A    between atoms: C_2  and  N_4
REMARK    4  A    between atoms: C_6  and  C_7
REMARK    5  A    between atoms: N_9  and  C_10
REMARK    6  A    between atoms: C_13  and  N_14
REMARK                            x       y       z     vdW  Elec       q    Type
REMARK                         _______ _______ _______ _____ _____    ______ ____
ROOT
ATOM      1  C   UNL     1       2.216   6.970  19.831  0.00  0.00    +0.000 C 
ATOM      2  O   UNL     1       1.931   6.695  20.990  0.00  0.00    +0.000 OA
ATOM      3  N   UNL     1       1.865   8.137  19.159  0.00  0.00    +0.000 N 
ATOM      4  H   UNL     1       1.837   8.075  18.144  0.00  0.00    +0.000 HD
ENDROOT
BRANCH   1   7
ATOM      5  N   UNL     1       4.670   5.416  17.551  0.00  0.00    +0.000 N 
ATOM      6  N   UNL     1       4.002   6.315  18.360  0.00  0.00    +0.000 NA
ATOM      7  C   UNL     1       2.946   5.915  19.008  0.00  0.00    +0.000 A 
ATOM      8  C   UNL     1       2.403   4.538  18.925  0.00  0.00    +0.000 A 
ATOM      9  C   UNL     1       1.242   4.105  19.585  0.00  0.00    +0.000 A 
ATOM     10  C   UNL     1       0.739   2.817  19.373  0.00  0.00    +0.000 A 
ATOM     11  C   UNL     1       1.411   1.935  18.533  0.00  0.00    +0.000 A 
ATOM     12  C   UNL     1       2.584   2.344  17.904  0.00  0.00    +0.000 A 
ATOM     13  C   UNL     1       3.072   3.648  18.093  0.00  0.00    +0.000 A 
ATOM     14  C   UNL     1       4.269   4.091  17.362  0.00  0.00    +0.000 A 
ATOM     15  O   UNL     1       4.838   3.300  16.613  0.00  0.00    +0.000 OA
BRANCH   5  17
ATOM     16  C   UNL     1       5.051   6.706  15.486  0.00  0.00    +0.000 C 
ATOM     17  C   UNL     1       5.702   5.958  16.653  0.00  0.00    +0.000 C 
ATOM     18  C   UNL     1       6.711   6.852  17.372  0.00  0.00    +0.000 C 
ENDBRANCH   5  17
ENDBRANCH   1   7
BRANCH   3  19
ATOM     19  C   UNL     1       1.226   9.216  19.816  0.00  0.00    +0.000 A 
ATOM     20  C   UNL     1       1.277  10.506  19.278  0.00  0.00    +0.000 A 
ATOM     21  C   UNL     1       0.814  11.610  19.989  0.00  0.00    +0.000 A 
ATOM     22  C   UNL     1       0.257  11.437  21.254  0.00  0.00    +0.000 A 
ATOM     23  C   UNL     1       0.091  10.136  21.759  0.00  0.00    +0.000 A 
ATOM     24  C   UNL     1       0.565   9.025  21.031  0.00  0.00    +0.000 A 
BRANCH  22  25
ATOM     25  N   UNL     1      -0.098  12.571  22.023  0.00  0.00    +0.000 N 
ATOM     26  C   UNL     1       0.249  13.888  21.831  0.00  0.00    +0.000 A 
ATOM     27  N   UNL     1      -0.256  14.616  22.798  0.00  0.00    +0.000 NA
ATOM     28  N   UNL     1      -0.927  13.740  23.611  0.00  0.00    +0.000 NA
ATOM     29  N   UNL     1      -0.838  12.499  23.150  0.00  0.00    +0.000 NA
ENDBRANCH  22  25
ENDBRANCH   3  19
TORSDOF 4
ENDMDL
MODEL 8
REMARK VINA RESULT:      -8.1      1.248      1.541
REMARK  Name = 
REMARK  6 active torsions:
REMARK  status: ('A' for Active; 'I' for Inactive)
REMARK    1  A    between atoms: C_1  and  C_2
REMARK    2  A    between atoms: C_2  and  C_3
REMARK    3  A    between atoms: C_2  and  N_4
REMARK    4  A    between atoms: C_6  and  C_7
REMARK    5  A    between atoms: N_9  and  C_10
REMARK    6  A    between atoms: C_13  and  N_14
REMARK                            x       y       z     vdW  Elec       q    Type
REMARK                         _______ _______ _______ _____ _____    ______ ____
ROOT
ATOM      1  C   UNL     1       2.380   7.285  18.770  0.00  0.00    +0.000 C 
ATOM      2  O   UNL     1       2.113   8.079  17.876  0.00  0.00    +0.000 OA
ATOM      3  N   UNL     1       2.116   7.464  20.126  0.00  0.00    +0.000 N 
ATOM      4  H   UNL     1       2.699   6.930  20.766  0.00  0.00    +0.000 HD
ENDROOT
BRANCH   1   7
ATOM      5  N   UNL     1       4.984   5.083  17.356  0.00  0.00    +0.000 N 
ATOM      6  N   UNL     1       4.276   6.194  17.772  0.00  0.00    +0.000 NA
ATOM      7  C   UNL     1       3.146   6.022  18.396  0.00  0.00    +0.000 A 
ATOM      8  C   UNL     1       2.560   4.691  18.684  0.00  0.00    +0.000 A 
ATOM      9  C   UNL     1       1.323   4.493  19.318  0.00  0.00    +0.000 A 
ATOM     10  C   UNL     1       0.793   3.206  19.462  0.00  0.00    +0.000 A 
ATOM     11  C   UNL     1       1.509   2.102  19.012  0.00  0.00    +0.000 A 
ATOM     12  C   UNL     1       2.754   2.288  18.416  0.00  0.00    +0.000 A 
ATOM     13  C   UNL     1       3.272   3.582  18.244  0.00  0.00    +0.000 A 
ATOM     14  C   UNL     1       4.552   3.768  17.543  0.00  0.00    +0.000 A 
ATOM     15  O   UNL     1       5.161   2.779  17.141  0.00  0.00    +0.000 OA
BRANCH   5  17
ATOM     16  C   UNL     1       5.619   5.607  15.033  0.00  0.00    +0.000 C 
ATOM     17  C   UNL     1       6.121   5.311  16.450  0.00  0.00    +0.000 C 
ATOM     18  C   UNL     1       7.058   6.417  16.933  0.00  0.00    +0.000 C 
ENDBRANCH   5  17
ENDBRANCH   1   7
BRANCH   3  19
ATOM     19  C   UNL     1       1.373   8.569  20.604  0.00  0.00    +0.000 A 
ATOM     20  C   UNL     1       1.120   8.717  21.972  0.00  0.00    +0.000 A 
ATOM     21  C   UNL     1       0.247   9.690  22.450  0.00  0.00    +0.000 A 
ATOM     22  C   UNL     1      -0.375  10.563  21.560  0.00  0.00    +0.000 A 
ATOM     23  C   UNL     1      -0.041  10.504  20.195  0.00  0.00    +0.000 A 
ATOM     24  C   UNL     1       0.843   9.513  19.722  0.00  0.00    +0.000 A 
BRANCH  22  25
ATOM     25  N   UNL     1      -1.353  11.467  22.035  0.00  0.00    +0.000 N 
ATOM     26  C   UNL     1      -1.919  11.548  23.286  0.00  0.00    +0.000 A 
ATOM     27  N   UNL     1      -2.819  12.502  23.296  0.00  0.00    +0.000 NA
ATOM     28  N   UNL     1      -2.819  13.025  22.029  0.00  0.00    +0.000 NA
ATOM     29  N   UNL     1      -1.935  12.406  21.258  0.00  0.00    +0.000 NA
ENDBRANCH  22  25
ENDBRANCH   3  19
TORSDOF 4
ENDMDL
MODEL 9
REMARK VINA RESULT:      -7.9      1.299      3.424
REMARK  Name = 
REMARK  6 active torsions:
REMARK  status: ('A' for Active; 'I' for Inactive)
REMARK    1  A    between atoms: C_1  and  C_2
REMARK    2  A    between atoms: C_2  and  C_3
REMARK    3  A    between atoms: C_2  and  N_4
REMARK    4  A    between atoms: C_6  and  C_7
REMARK    5  A    between atoms: N_9  and  C_10
REMARK    6  A    between atoms: C_13  and  N_14
REMARK                            x       y       z     vdW  Elec       q    Type
REMARK                         _______ _______ _______ _____ _____    ______ ____
ROOT
ATOM      1  C   UNL     1       2.014   7.411  19.027  0.00  0.00    +0.000 C 
ATOM      2  O   UNL     1       1.913   8.218  18.112  0.00  0.00    +0.000 OA
ATOM      3  N   UNL     1       1.687   7.642  20.360  0.00  0.00    +0.000 N 
ATOM      4  H   UNL     1       2.153   7.047  21.042  0.00  0.00    +0.000 HD
ENDROOT
BRANCH   1   7
ATOM      5  N   UNL     1       2.530   3.756  18.943  0.00  0.00    +0.000 N 
ATOM      6  N   UNL     1       1.987   5.009  19.147  0.00  0.00    +0.000 NA
ATOM      7  C   UNL     1       2.633   6.053  18.713  0.00  0.00    +0.000 A 
ATOM      8  C   UNL     1       3.936   5.980  18.011  0.00  0.00    +0.000 A 
ATOM      9  C   UNL     1       4.662   7.100  17.575  0.00  0.00    +0.000 A 
ATOM     10  C   UNL     1       5.934   6.951  17.011  0.00  0.00    +0.000 A 
ATOM     11  C   UNL     1       6.476   5.681  16.839  0.00  0.00    +0.000 A 
ATOM     12  C   UNL     1       5.745   4.563  17.233  0.00  0.00    +0.000 A 
ATOM     13  C   UNL     1       4.482   4.716  17.828  0.00  0.00    +0.000 A 
ATOM     14  C   UNL     1       3.756   3.531  18.311  0.00  0.00    +0.000 A 
ATOM     15  O   UNL     1       4.260   2.420  18.161  0.00  0.00    +0.000 OA
BRANCH   5  17
ATOM     16  C   UNL     1       1.628   3.006  21.110  0.00  0.00    +0.000 C 
ATOM     17  C   UNL     1       1.904   2.628  19.652  0.00  0.00    +0.000 C 
ATOM     18  C   UNL     1       0.631   2.127  18.972  0.00  0.00    +0.000 C 
ENDBRANCH   5  17
ENDBRANCH   1   7
BRANCH   3  19
ATOM     19  C   UNL     1       1.064   8.841  20.781  0.00  0.00    +0.000 A 
ATOM     20  C   UNL     1       1.263  10.031  20.075  0.00  0.00    +0.000 A 
ATOM     21  C   UNL     1       0.811  11.254  20.564  0.00  0.00    +0.000 A 
ATOM     22  C   UNL     1       0.116  11.304  21.770  0.00  0.00    +0.000 A 
ATOM     23  C   UNL     1      -0.195  10.103  22.433  0.00  0.00    +0.000 A 
ATOM     24  C   UNL     1       0.269   8.871  21.929  0.00  0.00    +0.000 A 
BRANCH  22  25
ATOM     25  N   UNL     1      -0.233  12.557  22.325  0.00  0.00    +0.000 N 
ATOM     26  C   UNL     1      -1.346  12.898  23.058  0.00  0.00    +0.000 A 
ATOM     27  N   UNL     1      -1.305  14.177  23.344  0.00  0.00    +0.000 NA
ATOM     28  N   UNL     1      -0.149  14.646  22.777  0.00  0.00    +0.000 NA
ATOM     29  N   UNL     1       0.508  13.674  22.158  0.00  0.00    +0.000 NA
ENDBRANCH  22  25
ENDBRANCH   3  19
TORSDOF 4
ENDMDL
