MODEL 1
REMARK VINA RESULT:      -8.0      0.000      0.000
REMARK  Name = 
REMARK  10 active torsions:
REMARK  status: ('A' for Active; 'I' for Inactive)
REMARK    1  A    between atoms: C_1  and  C_2
REMARK    2  A    between atoms: C_10  and  C_11
REMARK    3  A    between atoms: C_11  and  C_12
REMARK    4  A    between atoms: C_12  and  C_13
REMARK    5  A    between atoms: N_15  and  C_16
REMARK    6  A    between atoms: C_16  and  C_17
REMARK    7  A    between atoms: C_17  and  C_18
REMARK    8  A    between atoms: C_18  and  N_19
REMARK    9  A    between atoms: C_25  and  C_26
REMARK   10  A    between atoms: C_30  and  C_31
REMARK                            x       y       z     vdW  Elec       q    Type
REMARK                         _______ _______ _______ _____ _____    ______ ____
ROOT
ATOM      1  C   UNL     1      -0.510  11.640  20.931  0.00  0.00    +0.000 C 
ATOM      2  C   UNL     1       0.227  10.460  20.427  0.00  0.00    +0.000 A 
ATOM      3  O   UNL     1       0.701  10.549  19.155  0.00  0.00    +0.000 OA
ATOM      4  C   UNL     1       1.408   9.415  18.908  0.00  0.00    +0.000 A 
ATOM      5  C   UNL     1       2.094   9.137  17.734  0.00  0.00    +0.000 A 
ATOM      6  C   UNL     1       2.832   7.947  17.727  0.00  0.00    +0.000 A 
ATOM      7  O   UNL     1       3.594   7.722  16.567  0.00  0.00    +0.000 OA
ATOM      8  C   UNL     1       4.497   6.678  16.474  0.00  0.00    +0.000 A 
ATOM      9  O   UNL     1       5.203   6.544  15.480  0.00  0.00    +0.000 OA
ATOM     10  C   UNL     1       4.547   5.717  17.614  0.00  0.00    +0.000 A 
ATOM     11  C   UNL     1       3.743   5.859  18.690  0.00  0.00    +0.000 A 
ATOM     12  C   UNL     1       3.717   4.885  19.844  0.00  0.00    +0.000 C 
ATOM     13  C   UNL     1       2.861   7.048  18.793  0.00  0.00    +0.000 A 
ATOM     14  C   UNL     1       2.095   7.356  19.942  0.00  0.00    +0.000 A 
ATOM     15  C   UNL     1       1.375   8.572  20.013  0.00  0.00    +0.000 A 
ATOM     16  C   UNL     1       0.579   9.246  20.995  0.00  0.00    +0.000 A 
ATOM     17  C   UNL     1       0.225   8.791  22.363  0.00  0.00    +0.000 C 
ENDROOT
BRANCH  10  18
ATOM     18  C   UNL     1       5.626   4.654  17.475  0.00  0.00    +0.000 C 
BRANCH  18  19
ATOM     19  C   UNL     1       7.017   5.197  17.133  0.00  0.00    +0.000 C 
BRANCH  19  20
ATOM     20  C   UNL     1       7.575   6.026  18.281  0.00  0.00    +0.000 C 
ATOM     21  O   UNL     1       7.767   5.576  19.407  0.00  0.00    +0.000 OA
ATOM     22  N   UNL     1       7.868   7.329  17.939  0.00  0.00    +0.000 N 
ATOM     23  H   UNL     1       7.735   7.636  16.983  0.00  0.00    +0.000 HD
BRANCH  22  24
ATOM     24  C   UNL     1       8.414   8.274  18.900  0.00  0.00    +0.000 C 
BRANCH  24  25
ATOM     25  C   UNL     1       8.679   9.645  18.277  0.00  0.00    +0.000 C 
BRANCH  25  26
ATOM     26  C   UNL     1       9.318  10.591  19.295  0.00  0.00    +0.000 C 
BRANCH  26  27
ATOM     27  N   UNL     1       9.645  11.893  18.738  0.00  0.00    +0.000 N 
ATOM     28  C   UNL     1       8.820  13.056  18.944  0.00  0.00    +0.000 C 
ATOM     29  C   UNL     1       9.426  14.076  17.999  0.00  0.00    +0.000 C 
ATOM     30  C   UNL     1      10.908  13.718  17.987  0.00  0.00    +0.000 C 
ATOM     31  C   UNL     1      10.902  12.231  18.253  0.00  0.00    +0.000 C 
ATOM     32  O   UNL     1      11.856  11.484  18.118  0.00  0.00    +0.000 OA
ENDBRANCH  26  27
ENDBRANCH  25  26
ENDBRANCH  24  25
ENDBRANCH  22  24
ENDBRANCH  19  20
ENDBRANCH  18  19
ENDBRANCH  10  18
TORSDOF 7
ENDMDL
MODEL 2
REMARK VINA RESULT:      -7.8      5.326     10.268
REMARK  Name = 
REMARK  10 active torsions:
REMARK  status: ('A' for Active; 'I' for Inactive)
REMARK    1  A    between atoms: C_1  and  C_2
REMARK    2  A    between atoms: C_10  and  C_11
REMARK    3  A    between atoms: C_11  and  C_12
REMARK    4  A    between atoms: C_12  and  C_13
REMARK    5  A    between atoms: N_15  and  C_16
REMARK    6  A    between atoms: C_16  and  C_17
REMARK    7  A    between atoms: C_17  and  C_18
REMARK    8  A    between atoms: C_18  and  N_19
REMARK    9  A    between atoms: C_25  and  C_26
REMARK   10  A    between atoms: C_30  and  C_31
REMARK                            x       y       z     vdW  Elec       q    Type
REMARK                         _______ _______ _______ _____ _____    ______ ____
ROOT
ATOM      1  C   UNL     1       3.286   1.552  18.708  0.00  0.00    +0.000 C 
ATOM      2  C   UNL     1       3.003   2.964  19.048  0.00  0.00    +0.000 A 
ATOM      3  O   UNL     1       3.402   3.890  18.135  0.00  0.00    +0.000 OA
ATOM      4  C   UNL     1       2.986   5.104  18.585  0.00  0.00    +0.000 A 
ATOM      5  C   UNL     1       3.155   6.308  17.916  0.00  0.00    +0.000 A 
ATOM      6  C   UNL     1       2.569   7.427  18.519  0.00  0.00    +0.000 A 
ATOM      7  O   UNL     1       2.670   8.623  17.786  0.00  0.00    +0.000 OA
ATOM      8  C   UNL     1       2.005   9.774  18.168  0.00  0.00    +0.000 A 
ATOM      9  O   UNL     1       2.050  10.786  17.475  0.00  0.00    +0.000 OA
ATOM     10  C   UNL     1       1.266   9.737  19.463  0.00  0.00    +0.000 A 
ATOM     11  C   UNL     1       1.249   8.626  20.232  0.00  0.00    +0.000 A 
ATOM     12  C   UNL     1       0.562   8.554  21.575  0.00  0.00    +0.000 C 
ATOM     13  C   UNL     1       1.892   7.384  19.737  0.00  0.00    +0.000 A 
ATOM     14  C   UNL     1       1.800   6.139  20.402  0.00  0.00    +0.000 A 
ATOM     15  C   UNL     1       2.335   4.972  19.806  0.00  0.00    +0.000 A 
ATOM     16  C   UNL     1       2.371   3.574  20.119  0.00  0.00    +0.000 A 
ATOM     17  C   UNL     1       1.816   2.884  21.310  0.00  0.00    +0.000 C 
ENDROOT
BRANCH  10  18
ATOM     18  C   UNL     1       0.490  11.010  19.766  0.00  0.00    +0.000 C 
BRANCH  18  19
ATOM     19  C   UNL     1       1.298  12.095  20.485  0.00  0.00    +0.000 C 
BRANCH  19  20
ATOM     20  C   UNL     1       0.389  12.981  21.326  0.00  0.00    +0.000 C 
ATOM     21  O   UNL     1       0.800  13.711  22.224  0.00  0.00    +0.000 OA
ATOM     22  N   UNL     1      -0.943  12.909  20.975  0.00  0.00    +0.000 N 
ATOM     23  H   UNL     1      -1.222  12.327  20.194  0.00  0.00    +0.000 HD
BRANCH  22  24
ATOM     24  C   UNL     1      -1.963  13.686  21.659  0.00  0.00    +0.000 C 
BRANCH  24  25
ATOM     25  C   UNL     1      -2.756  12.846  22.660  0.00  0.00    +0.000 C 
BRANCH  25  26
ATOM     26  C   UNL     1      -3.461  13.738  23.683  0.00  0.00    +0.000 C 
BRANCH  26  27
ATOM     27  N   UNL     1      -4.906  13.756  23.526  0.00  0.00    +0.000 N 
ATOM     28  C   UNL     1      -5.569  14.551  22.524  0.00  0.00    +0.000 C 
ATOM     29  C   UNL     1      -7.033  14.427  22.903  0.00  0.00    +0.000 C 
ATOM     30  C   UNL     1      -7.131  13.025  23.495  0.00  0.00    +0.000 C 
ATOM     31  C   UNL     1      -5.753  12.798  24.069  0.00  0.00    +0.000 C 
ATOM     32  O   UNL     1      -5.441  11.895  24.827  0.00  0.00    +0.000 OA
ENDBRANCH  26  27
ENDBRANCH  25  26
ENDBRANCH  24  25
ENDBRANCH  22  24
ENDBRANCH  19  20
ENDBRANCH  18  19
ENDBRANCH  10  18
TORSDOF 7
ENDMDL
MODEL 3
REMARK VINA RESULT:      -7.8      4.459      6.348
REMARK  Name = 
REMARK  10 active torsions:
REMARK  status: ('A' for Active; 'I' for Inactive)
REMARK    1  A    between atoms: C_1  and  C_2
REMARK    2  A    between atoms: C_10  and  C_11
REMARK    3  A    between atoms: C_11  and  C_12
REMARK    4  A    between atoms: C_12  and  C_13
REMARK    5  A    between atoms: N_15  and  C_16
REMARK    6  A    between atoms: C_16  and  C_17
REMARK    7  A    between atoms: C_17  and  C_18
REMARK    8  A    between atoms: C_18  and  N_19
REMARK    9  A    between atoms: C_25  and  C_26
REMARK   10  A    between atoms: C_30  and  C_31
REMARK                            x       y       z     vdW  Elec       q    Type
REMARK                         _______ _______ _______ _____ _____    ______ ____
ROOT
ATOM      1  C   UNL     1       0.638  15.841  18.934  0.00  0.00    +0.000 C 
ATOM      2  C   UNL     1       0.605  14.385  19.199  0.00  0.00    +0.000 A 
ATOM      3  O   UNL     1       1.237  13.597  18.288  0.00  0.00    +0.000 OA
ATOM      4  C   UNL     1       1.166  12.319  18.744  0.00  0.00    +0.000 A 
ATOM      5  C   UNL     1       1.734  11.214  18.125  0.00  0.00    +0.000 A 
ATOM      6  C   UNL     1       1.615  10.002  18.815  0.00  0.00    +0.000 A 
ATOM      7  O   UNL     1       2.273   8.909  18.222  0.00  0.00    +0.000 OA
ATOM      8  C   UNL     1       2.384   7.687  18.860  0.00  0.00    +0.000 A 
ATOM      9  O   UNL     1       3.024   6.770  18.355  0.00  0.00    +0.000 OA
ATOM     10  C   UNL     1       1.673   7.529  20.162  0.00  0.00    +0.000 A 
ATOM     11  C   UNL     1       0.948   8.538  20.693  0.00  0.00    +0.000 A 
ATOM     12  C   UNL     1       0.167   8.413  21.979  0.00  0.00    +0.000 C 
ATOM     13  C   UNL     1       0.936   9.862  20.024  0.00  0.00    +0.000 A 
ATOM     14  C   UNL     1       0.328  11.013  20.580  0.00  0.00    +0.000 A 
ATOM     15  C   UNL     1       0.464  12.269  19.943  0.00  0.00    +0.000 A 
ATOM     16  C   UNL     1       0.075  13.618  20.224  0.00  0.00    +0.000 A 
ATOM     17  C   UNL     1      -0.694  14.131  21.386  0.00  0.00    +0.000 C 
ENDROOT
BRANCH  10  18
ATOM     18  C   UNL     1       1.921   6.191  20.840  0.00  0.00    +0.000 C 
BRANCH  18  19
ATOM     19  C   UNL     1       0.954   5.077  20.426  0.00  0.00    +0.000 C 
BRANCH  19  20
ATOM     20  C   UNL     1       1.670   3.735  20.353  0.00  0.00    +0.000 C 
ATOM     21  O   UNL     1       2.005   3.094  21.345  0.00  0.00    +0.000 OA
ATOM     22  N   UNL     1       1.892   3.289  19.067  0.00  0.00    +0.000 N 
ATOM     23  H   UNL     1       1.552   3.835  18.284  0.00  0.00    +0.000 HD
BRANCH  22  24
ATOM     24  C   UNL     1       2.559   2.026  18.794  0.00  0.00    +0.000 C 
BRANCH  24  25
ATOM     25  C   UNL     1       3.818   2.208  17.947  0.00  0.00    +0.000 C 
BRANCH  25  26
ATOM     26  C   UNL     1       4.420   3.599  18.156  0.00  0.00    +0.000 C 
BRANCH  26  27
ATOM     27  N   UNL     1       5.318   4.000  17.086  0.00  0.00    +0.000 N 
ATOM     28  C   UNL     1       4.854   4.320  15.760  0.00  0.00    +0.000 C 
ATOM     29  C   UNL     1       6.142   4.438  14.967  0.00  0.00    +0.000 C 
ATOM     30  C   UNL     1       7.141   4.975  15.985  0.00  0.00    +0.000 C 
ATOM     31  C   UNL     1       6.622   4.431  17.294  0.00  0.00    +0.000 C 
ATOM     32  O   UNL     1       7.230   4.430  18.351  0.00  0.00    +0.000 OA
ENDBRANCH  26  27
ENDBRANCH  25  26
ENDBRANCH  24  25
ENDBRANCH  22  24
ENDBRANCH  19  20
ENDBRANCH  18  19
ENDBRANCH  10  18
TORSDOF 7
ENDMDL
MODEL 4
REMARK VINA RESULT:      -7.8      1.662      2.361
REMARK  Name = 
REMARK  10 active torsions:
REMARK  status: ('A' for Active; 'I' for Inactive)
REMARK    1  A    between atoms: C_1  and  C_2
REMARK    2  A    between atoms: C_10  and  C_11
REMARK    3  A    between atoms: C_11  and  C_12
REMARK    4  A    between atoms: C_12  and  C_13
REMARK    5  A    between atoms: N_15  and  C_16
REMARK    6  A    between atoms: C_16  and  C_17
REMARK    7  A    between atoms: C_17  and  C_18
REMARK    8  A    between atoms: C_18  and  N_19
REMARK    9  A    between atoms: C_25  and  C_26
REMARK   10  A    between atoms: C_30  and  C_31
REMARK                            x       y       z     vdW  Elec       q    Type
REMARK                         _______ _______ _______ _____ _____    ______ ____
ROOT
ATOM      1  C   UNL     1      -0.616   9.607  21.776  0.00  0.00    +0.000 C 
ATOM      2  C   UNL     1       0.431   8.959  20.956  0.00  0.00    +0.000 A 
ATOM      3  O   UNL     1       0.854   7.738  21.382  0.00  0.00    +0.000 OA
ATOM      4  C   UNL     1       1.746   7.278  20.465  0.00  0.00    +0.000 A 
ATOM      5  C   UNL     1       2.375   6.042  20.507  0.00  0.00    +0.000 A 
ATOM      6  C   UNL     1       3.189   5.735  19.411  0.00  0.00    +0.000 A 
ATOM      7  O   UNL     1       3.748   4.445  19.423  0.00  0.00    +0.000 OA
ATOM      8  C   UNL     1       4.440   3.936  18.339  0.00  0.00    +0.000 A 
ATOM      9  O   UNL     1       4.857   2.782  18.344  0.00  0.00    +0.000 OA
ATOM     10  C   UNL     1       4.680   4.856  17.190  0.00  0.00    +0.000 A 
ATOM     11  C   UNL     1       4.242   6.134  17.209  0.00  0.00    +0.000 A 
ATOM     12  C   UNL     1       4.505   7.121  16.096  0.00  0.00    +0.000 C 
ATOM     13  C   UNL     1       3.418   6.609  18.348  0.00  0.00    +0.000 A 
ATOM     14  C   UNL     1       2.796   7.878  18.387  0.00  0.00    +0.000 A 
ATOM     15  C   UNL     1       1.924   8.212  19.451  0.00  0.00    +0.000 A 
ATOM     16  C   UNL     1       1.084   9.322  19.789  0.00  0.00    +0.000 A 
ATOM     17  C   UNL     1       0.890  10.591  19.044  0.00  0.00    +0.000 C 
ENDROOT
BRANCH  10  18
ATOM     18  C   UNL     1       5.367   4.195  16.005  0.00  0.00    +0.000 C 
BRANCH  18  19
ATOM     19  C   UNL     1       6.892   4.347  15.984  0.00  0.00    +0.000 C 
BRANCH  19  20
ATOM     20  C   UNL     1       7.383   5.071  17.230  0.00  0.00    +0.000 C 
ATOM     21  O   UNL     1       7.597   4.506  18.299  0.00  0.00    +0.000 OA
ATOM     22  N   UNL     1       7.589   6.422  17.047  0.00  0.00    +0.000 N 
ATOM     23  H   UNL     1       7.442   6.829  16.131  0.00  0.00    +0.000 HD
BRANCH  22  24
ATOM     24  C   UNL     1       8.062   7.282  18.120  0.00  0.00    +0.000 C 
BRANCH  24  25
ATOM     25  C   UNL     1       8.195   8.739  17.679  0.00  0.00    +0.000 C 
BRANCH  25  26
ATOM     26  C   UNL     1       8.904   9.570  18.749  0.00  0.00    +0.000 C 
BRANCH  26  27
ATOM     27  N   UNL     1       9.183  10.931  18.323  0.00  0.00    +0.000 N 
ATOM     28  C   UNL     1       8.142  11.882  18.027  0.00  0.00    +0.000 C 
ATOM     29  C   UNL     1       8.903  13.042  17.414  0.00  0.00    +0.000 C 
ATOM     30  C   UNL     1      10.245  13.011  18.136  0.00  0.00    +0.000 C 
ATOM     31  C   UNL     1      10.418  11.549  18.473  0.00  0.00    +0.000 C 
ATOM     32  O   UNL     1      11.450  11.030  18.864  0.00  0.00    +0.000 OA
ENDBRANCH  26  27
ENDBRANCH  25  26
ENDBRANCH  24  25
ENDBRANCH  22  24
ENDBRANCH  19  20
ENDBRANCH  18  19
ENDBRANCH  10  18
TORSDOF 7
ENDMDL
MODEL 5
REMARK VINA RESULT:      -7.7      5.001      8.724
REMARK  Name = 
REMARK  10 active torsions:
REMARK  status: ('A' for Active; 'I' for Inactive)
REMARK    1  A    between atoms: C_1  and  C_2
REMARK    2  A    between atoms: C_10  and  C_11
REMARK    3  A    between atoms: C_11  and  C_12
REMARK    4  A    between atoms: C_12  and  C_13
REMARK    5  A    between atoms: N_15  and  C_16
REMARK    6  A    between atoms: C_16  and  C_17
REMARK    7  A    between atoms: C_17  and  C_18
REMARK    8  A    between atoms: C_18  and  N_19
REMARK    9  A    between atoms: C_25  and  C_26
REMARK   10  A    between atoms: C_30  and  C_31
REMARK                            x       y       z     vdW  Elec       q    Type
REMARK                         _______ _______ _______ _____ _____    ______ ____
ROOT
ATOM      1  C   UNL     1      -7.042  13.592  23.748  0.00  0.00    +0.000 C 
ATOM      2  C   UNL     1      -5.778  13.370  23.012  0.00  0.00    +0.000 A 
ATOM      3  O   UNL     1      -4.751  12.842  23.732  0.00  0.00    +0.000 OA
ATOM      4  C   UNL     1      -3.719  12.641  22.871  0.00  0.00    +0.000 A 
ATOM      5  C   UNL     1      -2.497  12.071  23.204  0.00  0.00    +0.000 A 
ATOM      6  C   UNL     1      -1.607  11.875  22.142  0.00  0.00    +0.000 A 
ATOM      7  O   UNL     1      -0.411  11.215  22.477  0.00  0.00    +0.000 OA
ATOM      8  C   UNL     1       0.494  10.806  21.514  0.00  0.00    +0.000 A 
ATOM      9  O   UNL     1       1.495  10.168  21.824  0.00  0.00    +0.000 OA
ATOM     10  C   UNL     1       0.213  11.198  20.103  0.00  0.00    +0.000 A 
ATOM     11  C   UNL     1      -0.878  11.926  19.779  0.00  0.00    +0.000 A 
ATOM     12  C   UNL     1      -1.179  12.395  18.375  0.00  0.00    +0.000 C 
ATOM     13  C   UNL     1      -1.874  12.259  20.828  0.00  0.00    +0.000 A 
ATOM     14  C   UNL     1      -3.112  12.888  20.558  0.00  0.00    +0.000 A 
ATOM     15  C   UNL     1      -4.063  13.061  21.592  0.00  0.00    +0.000 A 
ATOM     16  C   UNL     1      -5.401  13.562  21.692  0.00  0.00    +0.000 A 
ATOM     17  C   UNL     1      -6.253  14.132  20.619  0.00  0.00    +0.000 C 
ENDROOT
BRANCH  10  18
ATOM     18  C   UNL     1       1.205  10.634  19.098  0.00  0.00    +0.000 C 
BRANCH  18  19
ATOM     19  C   UNL     1       0.812   9.275  18.507  0.00  0.00    +0.000 C 
BRANCH  19  20
ATOM     20  C   UNL     1       2.042   8.510  18.038  0.00  0.00    +0.000 C 
ATOM     21  O   UNL     1       3.002   9.045  17.491  0.00  0.00    +0.000 OA
ATOM     22  N   UNL     1       1.994   7.158  18.304  0.00  0.00    +0.000 N 
ATOM     23  H   UNL     1       1.199   6.775  18.801  0.00  0.00    +0.000 HD
BRANCH  22  24
ATOM     24  C   UNL     1       3.078   6.261  17.936  0.00  0.00    +0.000 C 
BRANCH  24  25
ATOM     25  C   UNL     1       3.989   5.939  19.120  0.00  0.00    +0.000 C 
BRANCH  25  26
ATOM     26  C   UNL     1       4.176   4.428  19.267  0.00  0.00    +0.000 C 
BRANCH  26  27
ATOM     27  N   UNL     1       2.981   3.747  19.738  0.00  0.00    +0.000 N 
ATOM     28  C   UNL     1       2.274   4.150  20.926  0.00  0.00    +0.000 C 
ATOM     29  C   UNL     1       1.275   3.027  21.128  0.00  0.00    +0.000 C 
ATOM     30  C   UNL     1       0.951   2.577  19.707  0.00  0.00    +0.000 C 
ATOM     31  C   UNL     1       2.221   2.890  18.952  0.00  0.00    +0.000 C 
ATOM     32  O   UNL     1       2.492   2.499  17.829  0.00  0.00    +0.000 OA
ENDBRANCH  26  27
ENDBRANCH  25  26
ENDBRANCH  24  25
ENDBRANCH  22  24
ENDBRANCH  19  20
ENDBRANCH  18  19
ENDBRANCH  10  18
TORSDOF 7
ENDMDL
MODEL 6
REMARK VINA RESULT:      -7.6      5.349      9.830
REMARK  Name = 
REMARK  10 active torsions:
REMARK  status: ('A' for Active; 'I' for Inactive)
REMARK    1  A    between atoms: C_1  and  C_2
REMARK    2  A    between atoms: C_10  and  C_11
REMARK    3  A    between atoms: C_11  and  C_12
REMARK    4  A    between atoms: C_12  and  C_13
REMARK    5  A    between atoms: N_15  and  C_16
REMARK    6  A    between atoms: C_16  and  C_17
REMARK    7  A    between atoms: C_17  and  C_18
REMARK    8  A    between atoms: C_18  and  N_19
REMARK    9  A    between atoms: C_25  and  C_26
REMARK   10  A    between atoms: C_30  and  C_31
REMARK                            x       y       z     vdW  Elec       q    Type
REMARK                         _______ _______ _______ _____ _____    ______ ____
ROOT
ATOM      1  C   UNL     1       3.692   1.274  18.931  0.00  0.00    +0.000 C 
ATOM      2  C   UNL     1       3.350   2.685  19.218  0.00  0.00    +0.000 A 
ATOM      3  O   UNL     1       3.680   3.588  18.256  0.00  0.00    +0.000 OA
ATOM      4  C   UNL     1       3.218   4.799  18.666  0.00  0.00    +0.000 A 
ATOM      5  C   UNL     1       3.311   5.980  17.941  0.00  0.00    +0.000 A 
ATOM      6  C   UNL     1       2.688   7.095  18.513  0.00  0.00    +0.000 A 
ATOM      7  O   UNL     1       2.711   8.262  17.728  0.00  0.00    +0.000 OA
ATOM      8  C   UNL     1       2.002   9.396  18.080  0.00  0.00    +0.000 A 
ATOM      9  O   UNL     1       1.979  10.377  17.344  0.00  0.00    +0.000 OA
ATOM     10  C   UNL     1       1.301   9.381  19.397  0.00  0.00    +0.000 A 
ATOM     11  C   UNL     1       1.359   8.306  20.212  0.00  0.00    +0.000 A 
ATOM     12  C   UNL     1       0.713   8.260  21.576  0.00  0.00    +0.000 C 
ATOM     13  C   UNL     1       2.047   7.074  19.752  0.00  0.00    +0.000 A 
ATOM     14  C   UNL     1       2.034   5.856  20.471  0.00  0.00    +0.000 A 
ATOM     15  C   UNL     1       2.608   4.690  19.910  0.00  0.00    +0.000 A 
ATOM     16  C   UNL     1       2.720   3.312  20.281  0.00  0.00    +0.000 A 
ATOM     17  C   UNL     1       2.231   2.649  21.516  0.00  0.00    +0.000 C 
ENDROOT
BRANCH  10  18
ATOM     18  C   UNL     1       0.473  10.628  19.667  0.00  0.00    +0.000 C 
BRANCH  18  19
ATOM     19  C   UNL     1      -0.907  10.635  19.002  0.00  0.00    +0.000 C 
BRANCH  19  20
ATOM     20  C   UNL     1      -1.796  11.712  19.607  0.00  0.00    +0.000 C 
ATOM     21  O   UNL     1      -2.915  11.982  19.180  0.00  0.00    +0.000 OA
ATOM     22  N   UNL     1      -1.241  12.349  20.697  0.00  0.00    +0.000 N 
ATOM     23  H   UNL     1      -0.333  12.054  21.037  0.00  0.00    +0.000 HD
BRANCH  22  24
ATOM     24  C   UNL     1      -1.940  13.404  21.412  0.00  0.00    +0.000 C 
BRANCH  24  25
ATOM     25  C   UNL     1      -1.521  13.484  22.880  0.00  0.00    +0.000 C 
BRANCH  25  26
ATOM     26  C   UNL     1      -2.732  13.335  23.802  0.00  0.00    +0.000 C 
BRANCH  26  27
ATOM     27  N   UNL     1      -3.483  14.569  23.963  0.00  0.00    +0.000 N 
ATOM     28  C   UNL     1      -4.783  14.770  23.378  0.00  0.00    +0.000 C 
ATOM     29  C   UNL     1      -5.041  16.246  23.615  0.00  0.00    +0.000 C 
ATOM     30  C   UNL     1      -4.330  16.526  24.934  0.00  0.00    +0.000 C 
ATOM     31  C   UNL     1      -3.201  15.522  24.934  0.00  0.00    +0.000 C 
ATOM     32  O   UNL     1      -2.249  15.528  25.695  0.00  0.00    +0.000 OA
ENDBRANCH  26  27
ENDBRANCH  25  26
ENDBRANCH  24  25
ENDBRANCH  22  24
ENDBRANCH  19  20
ENDBRANCH  18  19
ENDBRANCH  10  18
TORSDOF 7
ENDMDL
MODEL 7
REMARK VINA RESULT:      -7.6      3.608      4.923
REMARK  Name = 
REMARK  10 active torsions:
REMARK  status: ('A' for Active; 'I' for Inactive)
REMARK    1  A    between atoms: C_1  and  C_2
REMARK    2  A    between atoms: C_10  and  C_11
REMARK    3  A    between atoms: C_11  and  C_12
REMARK    4  A    between atoms: C_12  and  C_13
REMARK    5  A    between atoms: N_15  and  C_16
REMARK    6  A    between atoms: C_16  and  C_17
REMARK    7  A    between atoms: C_17  and  C_18
REMARK    8  A    between atoms: C_18  and  N_19
REMARK    9  A    between atoms: C_25  and  C_26
REMARK   10  A    between atoms: C_30  and  C_31
REMARK                            x       y       z     vdW  Elec       q    Type
REMARK                         _______ _______ _______ _____ _____    ______ ____
ROOT
ATOM      1  C   UNL     1      -0.944  14.716  21.261  0.00  0.00    +0.000 C 
ATOM      2  C   UNL     1      -0.546  13.323  20.961  0.00  0.00    +0.000 A 
ATOM      3  O   UNL     1       0.120  13.130  19.790  0.00  0.00    +0.000 OA
ATOM      4  C   UNL     1       0.465  11.816  19.735  0.00  0.00    +0.000 A 
ATOM      5  C   UNL     1       1.200  11.222  18.718  0.00  0.00    +0.000 A 
ATOM      6  C   UNL     1       1.520   9.873  18.907  0.00  0.00    +0.000 A 
ATOM      7  O   UNL     1       2.340   9.307  17.915  0.00  0.00    +0.000 OA
ATOM      8  C   UNL     1       2.874   8.038  18.041  0.00  0.00    +0.000 A 
ATOM      9  O   UNL     1       3.645   7.593  17.197  0.00  0.00    +0.000 OA
ATOM     10  C   UNL     1       2.448   7.233  19.222  0.00  0.00    +0.000 A 
ATOM     11  C   UNL     1       1.575   7.723  20.129  0.00  0.00    +0.000 A 
ATOM     12  C   UNL     1       1.070   6.931  21.312  0.00  0.00    +0.000 C 
ATOM     13  C   UNL     1       1.104   9.125  20.009  0.00  0.00    +0.000 A 
ATOM     14  C   UNL     1       0.309   9.769  20.985  0.00  0.00    +0.000 A 
ATOM     15  C   UNL     1       0.002  11.145  20.861  0.00  0.00    +0.000 A 
ATOM     16  C   UNL     1      -0.682  12.127  21.648  0.00  0.00    +0.000 A 
ATOM     17  C   UNL     1      -1.363  11.948  22.954  0.00  0.00    +0.000 C 
ENDROOT
BRANCH  10  18
ATOM     18  C   UNL     1       3.147   5.887  19.335  0.00  0.00    +0.000 C 
BRANCH  18  19
ATOM     19  C   UNL     1       2.648   4.823  18.351  0.00  0.00    +0.000 C 
BRANCH  19  20
ATOM     20  C   UNL     1       3.811   4.020  17.784  0.00  0.00    +0.000 C 
ATOM     21  O   UNL     1       4.363   3.109  18.393  0.00  0.00    +0.000 OA
ATOM     22  N   UNL     1       4.178   4.394  16.508  0.00  0.00    +0.000 N 
ATOM     23  H   UNL     1       3.657   5.120  16.032  0.00  0.00    +0.000 HD
BRANCH  22  24
ATOM     24  C   UNL     1       5.264   3.740  15.796  0.00  0.00    +0.000 C 
BRANCH  24  25
ATOM     25  C   UNL     1       5.867   4.634  14.713  0.00  0.00    +0.000 C 
BRANCH  25  26
ATOM     26  C   UNL     1       7.189   5.243  15.182  0.00  0.00    +0.000 C 
BRANCH  26  27
ATOM     27  N   UNL     1       7.266   5.397  16.626  0.00  0.00    +0.000 N 
ATOM     28  C   UNL     1       7.762   4.359  17.493  0.00  0.00    +0.000 C 
ATOM     29  C   UNL     1       7.430   4.883  18.877  0.00  0.00    +0.000 C 
ATOM     30  C   UNL     1       7.549   6.395  18.726  0.00  0.00    +0.000 C 
ATOM     31  C   UNL     1       7.196   6.623  17.276  0.00  0.00    +0.000 C 
ATOM     32  O   UNL     1       6.953   7.704  16.767  0.00  0.00    +0.000 OA
ENDBRANCH  26  27
ENDBRANCH  25  26
ENDBRANCH  24  25
ENDBRANCH  22  24
ENDBRANCH  19  20
ENDBRANCH  18  19
ENDBRANCH  10  18
TORSDOF 7
ENDMDL
MODEL 8
REMARK VINA RESULT:      -7.5      3.759      6.492
REMARK  Name = 
REMARK  10 active torsions:
REMARK  status: ('A' for Active; 'I' for Inactive)
REMARK    1  A    between atoms: C_1  and  C_2
REMARK    2  A    between atoms: C_10  and  C_11
REMARK    3  A    between atoms: C_11  and  C_12
REMARK    4  A    between atoms: C_12  and  C_13
REMARK    5  A    between atoms: N_15  and  C_16
REMARK    6  A    between atoms: C_16  and  C_17
REMARK    7  A    between atoms: C_17  and  C_18
REMARK    8  A    between atoms: C_18  and  N_19
REMARK    9  A    between atoms: C_25  and  C_26
REMARK   10  A    between atoms: C_30  and  C_31
REMARK                            x       y       z     vdW  Elec       q    Type
REMARK                         _______ _______ _______ _____ _____    ______ ____
ROOT
ATOM      1  C   UNL     1       2.873   1.393  19.150  0.00  0.00    +0.000 C 
ATOM      2  C   UNL     1       2.682   2.837  19.411  0.00  0.00    +0.000 A 
ATOM      3  O   UNL     1       3.067   3.681  18.415  0.00  0.00    +0.000 OA
ATOM      4  C   UNL     1       2.741   4.941  18.808  0.00  0.00    +0.000 A 
ATOM      5  C   UNL     1       2.926   6.089  18.050  0.00  0.00    +0.000 A 
ATOM      6  C   UNL     1       2.436   7.274  18.612  0.00  0.00    +0.000 A 
ATOM      7  O   UNL     1       2.548   8.414  17.796  0.00  0.00    +0.000 OA
ATOM      8  C   UNL     1       1.967   9.621  18.141  0.00  0.00    +0.000 A 
ATOM      9  O   UNL     1       2.016  10.583  17.380  0.00  0.00    +0.000 OA
ATOM     10  C   UNL     1       1.313   9.707  19.479  0.00  0.00    +0.000 A 
ATOM     11  C   UNL     1       1.292   8.650  20.319  0.00  0.00    +0.000 A 
ATOM     12  C   UNL     1       0.690   8.700  21.704  0.00  0.00    +0.000 C 
ATOM     13  C   UNL     1       1.839   7.345  19.870  0.00  0.00    +0.000 A 
ATOM     14  C   UNL     1       1.729   6.152  20.621  0.00  0.00    +0.000 A 
ATOM     15  C   UNL     1       2.165   4.922  20.072  0.00  0.00    +0.000 A 
ATOM     16  C   UNL     1       2.153   3.548  20.476  0.00  0.00    +0.000 A 
ATOM     17  C   UNL     1       1.643   2.965  21.742  0.00  0.00    +0.000 C 
ENDROOT
BRANCH  10  18
ATOM     18  C   UNL     1       0.622  11.035  19.743  0.00  0.00    +0.000 C 
BRANCH  18  19
ATOM     19  C   UNL     1       1.519  12.108  20.370  0.00  0.00    +0.000 C 
BRANCH  19  20
ATOM     20  C   UNL     1       1.339  13.447  19.667  0.00  0.00    +0.000 C 
ATOM     21  O   UNL     1       0.296  14.094  19.704  0.00  0.00    +0.000 OA
ATOM     22  N   UNL     1       2.463  13.883  18.998  0.00  0.00    +0.000 N 
ATOM     23  H   UNL     1       3.313  13.332  19.040  0.00  0.00    +0.000 HD
BRANCH  22  24
ATOM     24  C   UNL     1       2.488  15.141  18.270  0.00  0.00    +0.000 C 
BRANCH  24  25
ATOM     25  C   UNL     1       3.898  15.522  17.820  0.00  0.00    +0.000 C 
BRANCH  25  26
ATOM     26  C   UNL     1       4.931  15.133  18.878  0.00  0.00    +0.000 C 
BRANCH  26  27
ATOM     27  N   UNL     1       6.235  15.734  18.651  0.00  0.00    +0.000 N 
ATOM     28  C   UNL     1       7.224  15.141  17.788  0.00  0.00    +0.000 C 
ATOM     29  C   UNL     1       8.460  15.980  18.057  0.00  0.00    +0.000 C 
ATOM     30  C   UNL     1       7.894  17.363  18.360  0.00  0.00    +0.000 C 
ATOM     31  C   UNL     1       6.539  17.056  18.952  0.00  0.00    +0.000 C 
ATOM     32  O   UNL     1       5.825  17.853  19.537  0.00  0.00    +0.000 OA
ENDBRANCH  26  27
ENDBRANCH  25  26
ENDBRANCH  24  25
ENDBRANCH  22  24
ENDBRANCH  19  20
ENDBRANCH  18  19
ENDBRANCH  10  18
TORSDOF 7
ENDMDL
MODEL 9
REMARK VINA RESULT:      -7.5      4.343      6.348
REMARK  Name = 
REMARK  10 active torsions:
REMARK  status: ('A' for Active; 'I' for Inactive)
REMARK    1  A    between atoms: C_1  and  C_2
REMARK    2  A    between atoms: C_10  and  C_11
REMARK    3  A    between atoms: C_11  and  C_12
REMARK    4  A    between atoms: C_12  and  C_13
REMARK    5  A    between atoms: N_15  and  C_16
REMARK    6  A    between atoms: C_16  and  C_17
REMARK    7  A    between atoms: C_17  and  C_18
REMARK    8  A    between atoms: C_18  and  N_19
REMARK    9  A    between atoms: C_25  and  C_26
REMARK   10  A    between atoms: C_30  and  C_31
REMARK                            x       y       z     vdW  Elec       q    Type
REMARK                         _______ _______ _______ _____ _____    ______ ____
ROOT
ATOM      1  C   UNL     1      -1.074  16.388  20.377  0.00  0.00    +0.000 C 
ATOM      2  C   UNL     1      -0.790  14.936  20.395  0.00  0.00    +0.000 A 
ATOM      3  O   UNL     1      -0.356  14.397  19.224  0.00  0.00    +0.000 OA
ATOM      4  C   UNL     1      -0.077  13.088  19.463  0.00  0.00    +0.000 A 
ATOM      5  C   UNL     1       0.438  12.196  18.533  0.00  0.00    +0.000 A 
ATOM      6  C   UNL     1       0.735  10.916  19.017  0.00  0.00    +0.000 A 
ATOM      7  O   UNL     1       1.340  10.050  18.088  0.00  0.00    +0.000 OA
ATOM      8  C   UNL     1       1.838   8.814  18.457  0.00  0.00    +0.000 A 
ATOM      9  O   UNL     1       2.426   8.106  17.645  0.00  0.00    +0.000 OA
ATOM     10  C   UNL     1       1.603   8.374  19.862  0.00  0.00    +0.000 A 
ATOM     11  C   UNL     1       0.928   9.151  20.738  0.00  0.00    +0.000 A 
ATOM     12  C   UNL     1       0.617   8.730  22.155  0.00  0.00    +0.000 C 
ATOM     13  C   UNL     1       0.497  10.511  20.330  0.00  0.00    +0.000 A 
ATOM     14  C   UNL     1      -0.082  11.446  21.219  0.00  0.00    +0.000 A 
ATOM     15  C   UNL     1      -0.353  12.767  20.786  0.00  0.00    +0.000 A 
ATOM     16  C   UNL     1      -0.845  13.970  21.387  0.00  0.00    +0.000 A 
ATOM     17  C   UNL     1      -1.285  14.187  22.788  0.00  0.00    +0.000 C 
ENDROOT
BRANCH  10  18
ATOM     18  C   UNL     1       2.259   7.047  20.211  0.00  0.00    +0.000 C 
BRANCH  18  19
ATOM     19  C   UNL     1       1.328   6.031  20.880  0.00  0.00    +0.000 C 
BRANCH  19  20
ATOM     20  C   UNL     1       1.504   4.648  20.268  0.00  0.00    +0.000 C 
ATOM     21  O   UNL     1       1.498   3.612  20.927  0.00  0.00    +0.000 OA
ATOM     22  N   UNL     1       1.650   4.658  18.897  0.00  0.00    +0.000 N 
ATOM     23  H   UNL     1       1.599   5.537  18.396  0.00  0.00    +0.000 HD
BRANCH  22  24
ATOM     24  C   UNL     1       1.824   3.434  18.132  0.00  0.00    +0.000 C 
BRANCH  24  25
ATOM     25  C   UNL     1       3.176   3.384  17.420  0.00  0.00    +0.000 C 
BRANCH  25  26
ATOM     26  C   UNL     1       3.730   4.793  17.203  0.00  0.00    +0.000 C 
BRANCH  26  27
ATOM     27  N   UNL     1       5.131   4.919  17.571  0.00  0.00    +0.000 N 
ATOM     28  C   UNL     1       5.571   5.000  18.940  0.00  0.00    +0.000 C 
ATOM     29  C   UNL     1       7.040   5.354  18.807  0.00  0.00    +0.000 C 
ATOM     30  C   UNL     1       7.459   4.662  17.515  0.00  0.00    +0.000 C 
ATOM     31  C   UNL     1       6.183   4.646  16.707  0.00  0.00    +0.000 C 
ATOM     32  O   UNL     1       6.100   4.380  15.519  0.00  0.00    +0.000 OA
ENDBRANCH  26  27
ENDBRANCH  25  26
ENDBRANCH  24  25
ENDBRANCH  22  24
ENDBRANCH  19  20
ENDBRANCH  18  19
ENDBRANCH  10  18
TORSDOF 7
ENDMDL
