MODEL 1
REMARK VINA RESULT:      -8.3      0.000      0.000
REMARK  Name = 
REMARK  6 active torsions:
REMARK  status: ('A' for Active; 'I' for Inactive)
REMARK    1  A    between atoms: C_2  and  C_12
REMARK    2  A    between atoms: N_3  and  C_4
REMARK    3  A    between atoms: C_4  and  C_5
REMARK    4  A    between atoms: C_5  and  C_6
REMARK    5  A    between atoms: C_17  and  O_18
REMARK    6  A    between atoms: C_19  and  O_20
REMARK                            x       y       z     vdW  Elec       q    Type
REMARK                         _______ _______ _______ _____ _____    ______ ____
ROOT
ATOM      1  C   UNL     1       5.631   5.611  18.041  0.00  0.00    +0.000 A 
ATOM      2  C   UNL     1       5.559   4.934  16.821  0.00  0.00    +0.000 A 
ATOM      3  C   UNL     1       4.483   4.088  16.562  0.00  0.00    +0.000 A 
ATOM      4  C   UNL     1       3.488   3.908  17.506  0.00  0.00    +0.000 A 
ATOM      5  N   UNL     1       2.641   2.876  17.374  0.00  0.00    +0.000 NA
ATOM      6  C   UNL     1       1.714   2.765  18.343  0.00  0.00    +0.000 A 
ATOM      7  C   UNL     1       1.538   3.729  19.326  0.00  0.00    +0.000 A 
ATOM      8  N   UNL     1       2.422   4.718  19.523  0.00  0.00    +0.000 NA
ATOM      9  C   UNL     1       3.447   4.755  18.649  0.00  0.00    +0.000 A 
ATOM     10  C   UNL     1       4.543   5.558  18.920  0.00  0.00    +0.000 A 
ENDROOT
BRANCH   1  12
ATOM     11  O   UNL     1       7.701   5.672  19.152  0.00  0.00    +0.000 OA
ATOM     12  C   UNL     1       6.924   6.252  18.402  0.00  0.00    +0.000 C 
ATOM     13  N   UNL     1       7.168   7.498  17.879  0.00  0.00    +0.000 N 
ATOM     14  H   UNL     1       6.564   7.873  17.160  0.00  0.00    +0.000 HD
BRANCH  13  15
ATOM     15  C   UNL     1       8.395   8.209  18.190  0.00  0.00    +0.000 C 
BRANCH  15  16
ATOM     16  C   UNL     1       8.242   9.702  17.912  0.00  0.00    +0.000 C 
BRANCH  16  17
ATOM     17  C   UNL     1       9.304  10.528  18.579  0.00  0.00    +0.000 A 
ATOM     18  C   UNL     1       9.298  10.712  19.973  0.00  0.00    +0.000 A 
ATOM     19  C   UNL     1      10.292  11.468  20.596  0.00  0.00    +0.000 A 
ATOM     20  C   UNL     1      11.297  12.056  19.830  0.00  0.00    +0.000 A 
ATOM     21  C   UNL     1      11.301  11.899  18.445  0.00  0.00    +0.000 A 
ATOM     22  C   UNL     1      10.309  11.141  17.822  0.00  0.00    +0.000 A 
ENDBRANCH  16  17
ENDBRANCH  15  16
ENDBRANCH  13  15
ENDBRANCH   1  12
BRANCH   6  23
ATOM     23  O   UNL     1       1.249   1.507  18.615  0.00  0.00    +0.000 OA
ATOM     24  H   UNL     1       2.030   1.091  19.046  0.00  0.00    +0.000 HD
ENDBRANCH   6  23
BRANCH   7  25
ATOM     25  O   UNL     1       0.517   3.621  20.230  0.00  0.00    +0.000 OA
ATOM     26  H   UNL     1      -0.101   4.342  20.006  0.00  0.00    +0.000 HD
ENDBRANCH   7  25
TORSDOF 6
ENDMDL
MODEL 2
REMARK VINA RESULT:      -8.1      5.591      8.267
REMARK  Name = 
REMARK  6 active torsions:
REMARK  status: ('A' for Active; 'I' for Inactive)
REMARK    1  A    between atoms: C_2  and  C_12
REMARK    2  A    between atoms: N_3  and  C_4
REMARK    3  A    between atoms: C_4  and  C_5
REMARK    4  A    between atoms: C_5  and  C_6
REMARK    5  A    between atoms: C_17  and  O_18
REMARK    6  A    between atoms: C_19  and  O_20
REMARK                            x       y       z     vdW  Elec       q    Type
REMARK                         _______ _______ _______ _____ _____    ______ ____
ROOT
ATOM      1  C   UNL     1       2.549   7.742  18.592  0.00  0.00    +0.000 A 
ATOM      2  C   UNL     1       2.178   7.078  19.764  0.00  0.00    +0.000 A 
ATOM      3  C   UNL     1       2.578   5.760  19.968  0.00  0.00    +0.000 A 
ATOM      4  C   UNL     1       3.335   5.099  19.016  0.00  0.00    +0.000 A 
ATOM      5  N   UNL     1       3.445   3.764  19.082  0.00  0.00    +0.000 NA
ATOM      6  C   UNL     1       4.185   3.200  18.109  0.00  0.00    +0.000 A 
ATOM      7  C   UNL     1       4.913   3.946  17.193  0.00  0.00    +0.000 A 
ATOM      8  N   UNL     1       4.750   5.270  17.061  0.00  0.00    +0.000 NA
ATOM      9  C   UNL     1       3.891   5.834  17.933  0.00  0.00    +0.000 A 
ATOM     10  C   UNL     1       3.451   7.130  17.713  0.00  0.00    +0.000 A 
ENDROOT
BRANCH   1  12
ATOM     11  O   UNL     1       2.150   9.627  17.246  0.00  0.00    +0.000 OA
ATOM     12  C   UNL     1       1.860   9.020  18.270  0.00  0.00    +0.000 C 
ATOM     13  N   UNL     1       0.928   9.469  19.175  0.00  0.00    +0.000 N 
ATOM     14  H   UNL     1       0.625   8.869  19.929  0.00  0.00    +0.000 HD
BRANCH  13  15
ATOM     15  C   UNL     1       0.217  10.715  18.955  0.00  0.00    +0.000 C 
BRANCH  15  16
ATOM     16  C   UNL     1      -1.256  10.570  19.325  0.00  0.00    +0.000 C 
BRANCH  16  17
ATOM     17  C   UNL     1      -2.163  10.635  18.129  0.00  0.00    +0.000 A 
ATOM     18  C   UNL     1      -3.320  11.433  18.149  0.00  0.00    +0.000 A 
ATOM     19  C   UNL     1      -4.155  11.505  17.033  0.00  0.00    +0.000 A 
ATOM     20  C   UNL     1      -3.848  10.770  15.890  0.00  0.00    +0.000 A 
ATOM     21  C   UNL     1      -2.716   9.958  15.866  0.00  0.00    +0.000 A 
ATOM     22  C   UNL     1      -1.878   9.888  16.979  0.00  0.00    +0.000 A 
ENDBRANCH  16  17
ENDBRANCH  15  16
ENDBRANCH  13  15
ENDBRANCH   1  12
BRANCH   6  23
ATOM     23  O   UNL     1       3.869   1.917  17.755  0.00  0.00    +0.000 OA
ATOM     24  H   UNL     1       2.888   1.921  17.831  0.00  0.00    +0.000 HD
ENDBRANCH   6  23
BRANCH   7  25
ATOM     25  O   UNL     1       5.730   3.328  16.286  0.00  0.00    +0.000 OA
ATOM     26  H   UNL     1       6.451   2.938  16.815  0.00  0.00    +0.000 HD
ENDBRANCH   7  25
TORSDOF 6
ENDMDL
MODEL 3
REMARK VINA RESULT:      -8.0      0.966      1.398
REMARK  Name = 
REMARK  6 active torsions:
REMARK  status: ('A' for Active; 'I' for Inactive)
REMARK    1  A    between atoms: C_2  and  C_12
REMARK    2  A    between atoms: N_3  and  C_4
REMARK    3  A    between atoms: C_4  and  C_5
REMARK    4  A    between atoms: C_5  and  C_6
REMARK    5  A    between atoms: C_17  and  O_18
REMARK    6  A    between atoms: C_19  and  O_20
REMARK                            x       y       z     vdW  Elec       q    Type
REMARK                         _______ _______ _______ _____ _____    ______ ____
ROOT
ATOM      1  C   UNL     1       5.583   5.908  17.034  0.00  0.00    +0.000 A 
ATOM      2  C   UNL     1       5.358   4.865  16.133  0.00  0.00    +0.000 A 
ATOM      3  C   UNL     1       4.314   3.972  16.356  0.00  0.00    +0.000 A 
ATOM      4  C   UNL     1       3.501   4.104  17.468  0.00  0.00    +0.000 A 
ATOM      5  N   UNL     1       2.716   3.078  17.829  0.00  0.00    +0.000 NA
ATOM      6  C   UNL     1       1.969   3.285  18.931  0.00  0.00    +0.000 A 
ATOM      7  C   UNL     1       1.892   4.518  19.563  0.00  0.00    +0.000 A 
ATOM      8  N   UNL     1       2.727   5.525  19.269  0.00  0.00    +0.000 NA
ATOM      9  C   UNL     1       3.591   5.280  18.263  0.00  0.00    +0.000 A 
ATOM     10  C   UNL     1       4.660   6.139  18.061  0.00  0.00    +0.000 A 
ENDROOT
BRANCH   1  12
ATOM     11  O   UNL     1       7.706   6.301  16.105  0.00  0.00    +0.000 OA
ATOM     12  C   UNL     1       6.871   6.646  16.934  0.00  0.00    +0.000 C 
ATOM     13  N   UNL     1       7.065   7.683  17.814  0.00  0.00    +0.000 N 
ATOM     14  H   UNL     1       6.297   8.015  18.381  0.00  0.00    +0.000 HD
BRANCH  13  15
ATOM     15  C   UNL     1       8.298   8.449  17.802  0.00  0.00    +0.000 C 
BRANCH  15  16
ATOM     16  C   UNL     1       8.023   9.922  18.094  0.00  0.00    +0.000 C 
BRANCH  16  17
ATOM     17  C   UNL     1       9.221  10.634  18.654  0.00  0.00    +0.000 A 
ATOM     18  C   UNL     1      10.242  11.095  17.805  0.00  0.00    +0.000 A 
ATOM     19  C   UNL     1      11.349  11.770  18.322  0.00  0.00    +0.000 A 
ATOM     20  C   UNL     1      11.451  11.980  19.696  0.00  0.00    +0.000 A 
ATOM     21  C   UNL     1      10.456  11.508  20.550  0.00  0.00    +0.000 A 
ATOM     22  C   UNL     1       9.348  10.837  20.033  0.00  0.00    +0.000 A 
ENDBRANCH  16  17
ENDBRANCH  15  16
ENDBRANCH  13  15
ENDBRANCH   1  12
BRANCH   6  23
ATOM     23  O   UNL     1       1.642   2.184  19.673  0.00  0.00    +0.000 OA
ATOM     24  H   UNL     1       0.972   2.550  20.294  0.00  0.00    +0.000 HD
ENDBRANCH   6  23
BRANCH   7  25
ATOM     25  O   UNL     1       1.043   4.705  20.618  0.00  0.00    +0.000 OA
ATOM     26  H   UNL     1       1.188   3.938  21.203  0.00  0.00    +0.000 HD
ENDBRANCH   7  25
TORSDOF 6
ENDMDL
MODEL 4
REMARK VINA RESULT:      -8.0      5.567      8.250
REMARK  Name = 
REMARK  6 active torsions:
REMARK  status: ('A' for Active; 'I' for Inactive)
REMARK    1  A    between atoms: C_2  and  C_12
REMARK    2  A    between atoms: N_3  and  C_4
REMARK    3  A    between atoms: C_4  and  C_5
REMARK    4  A    between atoms: C_5  and  C_6
REMARK    5  A    between atoms: C_17  and  O_18
REMARK    6  A    between atoms: C_19  and  O_20
REMARK                            x       y       z     vdW  Elec       q    Type
REMARK                         _______ _______ _______ _____ _____    ______ ____
ROOT
ATOM      1  C   UNL     1       2.399   7.703  18.740  0.00  0.00    +0.000 A 
ATOM      2  C   UNL     1       2.002   7.048  19.909  0.00  0.00    +0.000 A 
ATOM      3  C   UNL     1       2.362   5.718  20.112  0.00  0.00    +0.000 A 
ATOM      4  C   UNL     1       3.104   5.038  19.162  0.00  0.00    +0.000 A 
ATOM      5  N   UNL     1       3.175   3.700  19.225  0.00  0.00    +0.000 NA
ATOM      6  C   UNL     1       3.904   3.116  18.255  0.00  0.00    +0.000 A 
ATOM      7  C   UNL     1       4.658   3.844  17.345  0.00  0.00    +0.000 A 
ATOM      8  N   UNL     1       4.535   5.172  17.215  0.00  0.00    +0.000 NA
ATOM      9  C   UNL     1       3.688   5.758  18.084  0.00  0.00    +0.000 A 
ATOM     10  C   UNL     1       3.287   7.067  17.865  0.00  0.00    +0.000 A 
ENDROOT
BRANCH   1  12
ATOM     11  O   UNL     1       1.999   9.560  17.356  0.00  0.00    +0.000 OA
ATOM     12  C   UNL     1       1.748   9.001  18.418  0.00  0.00    +0.000 C 
ATOM     13  N   UNL     1       0.900   9.524  19.364  0.00  0.00    +0.000 N 
ATOM     14  H   UNL     1       0.619   8.964  20.157  0.00  0.00    +0.000 HD
BRANCH  13  15
ATOM     15  C   UNL     1       0.233  10.794  19.145  0.00  0.00    +0.000 C 
BRANCH  15  16
ATOM     16  C   UNL     1      -1.256  10.687  19.464  0.00  0.00    +0.000 C 
BRANCH  16  17
ATOM     17  C   UNL     1      -2.114  10.697  18.232  0.00  0.00    +0.000 A 
ATOM     18  C   UNL     1      -1.750   9.949  17.099  0.00  0.00    +0.000 A 
ATOM     19  C   UNL     1      -2.554   9.946  15.958  0.00  0.00    +0.000 A 
ATOM     20  C   UNL     1      -3.725  10.701  15.935  0.00  0.00    +0.000 A 
ATOM     21  C   UNL     1      -4.085  11.464  17.043  0.00  0.00    +0.000 A 
ATOM     22  C   UNL     1      -3.284  11.465  18.185  0.00  0.00    +0.000 A 
ENDBRANCH  16  17
ENDBRANCH  15  16
ENDBRANCH  13  15
ENDBRANCH   1  12
BRANCH   6  23
ATOM     23  O   UNL     1       3.553   1.844  17.896  0.00  0.00    +0.000 OA
ATOM     24  H   UNL     1       3.567   1.899  16.914  0.00  0.00    +0.000 HD
ENDBRANCH   6  23
BRANCH   7  25
ATOM     25  O   UNL     1       5.462   3.204  16.441  0.00  0.00    +0.000 OA
ATOM     26  H   UNL     1       5.295   2.252  16.579  0.00  0.00    +0.000 HD
ENDBRANCH   7  25
TORSDOF 6
ENDMDL
MODEL 5
REMARK VINA RESULT:      -7.9      1.697      2.067
REMARK  Name = 
REMARK  6 active torsions:
REMARK  status: ('A' for Active; 'I' for Inactive)
REMARK    1  A    between atoms: C_2  and  C_12
REMARK    2  A    between atoms: N_3  and  C_4
REMARK    3  A    between atoms: C_4  and  C_5
REMARK    4  A    between atoms: C_5  and  C_6
REMARK    5  A    between atoms: C_17  and  O_18
REMARK    6  A    between atoms: C_19  and  O_20
REMARK                            x       y       z     vdW  Elec       q    Type
REMARK                         _______ _______ _______ _____ _____    ______ ____
ROOT
ATOM      1  C   UNL     1       6.066   6.670  17.805  0.00  0.00    +0.000 A 
ATOM      2  C   UNL     1       4.820   6.975  17.251  0.00  0.00    +0.000 A 
ATOM      3  C   UNL     1       3.782   6.050  17.334  0.00  0.00    +0.000 A 
ATOM      4  C   UNL     1       3.977   4.829  17.955  0.00  0.00    +0.000 A 
ATOM      5  N   UNL     1       3.085   3.846  17.757  0.00  0.00    +0.000 NA
ATOM      6  C   UNL     1       3.357   2.687  18.384  0.00  0.00    +0.000 A 
ATOM      7  C   UNL     1       4.397   2.554  19.295  0.00  0.00    +0.000 A 
ATOM      8  N   UNL     1       5.342   3.493  19.441  0.00  0.00    +0.000 NA
ATOM      9  C   UNL     1       5.166   4.606  18.701  0.00  0.00    +0.000 A 
ATOM     10  C   UNL     1       6.209   5.510  18.575  0.00  0.00    +0.000 A 
ENDROOT
BRANCH   1  12
ATOM     11  O   UNL     1       7.990   7.174  16.552  0.00  0.00    +0.000 OA
ATOM     12  C   UNL     1       7.219   7.534  17.435  0.00  0.00    +0.000 C 
ATOM     13  N   UNL     1       7.369   8.706  18.136  0.00  0.00    +0.000 N 
ATOM     14  H   UNL     1       6.634   9.024  18.753  0.00  0.00    +0.000 HD
BRANCH  13  15
ATOM     15  C   UNL     1       8.474   9.605  17.857  0.00  0.00    +0.000 C 
BRANCH  15  16
ATOM     16  C   UNL     1       9.224   9.955  19.139  0.00  0.00    +0.000 C 
BRANCH  16  17
ATOM     17  C   UNL     1      10.187  11.093  18.954  0.00  0.00    +0.000 A 
ATOM     18  C   UNL     1      10.771  11.725  20.065  0.00  0.00    +0.000 A 
ATOM     19  C   UNL     1      11.677  12.774  19.893  0.00  0.00    +0.000 A 
ATOM     20  C   UNL     1      11.998  13.208  18.609  0.00  0.00    +0.000 A 
ATOM     21  C   UNL     1      11.407  12.605  17.500  0.00  0.00    +0.000 A 
ATOM     22  C   UNL     1      10.505  11.554  17.670  0.00  0.00    +0.000 A 
ENDBRANCH  16  17
ENDBRANCH  15  16
ENDBRANCH  13  15
ENDBRANCH   1  12
BRANCH   6  23
ATOM     23  O   UNL     1       2.893   1.541  17.799  0.00  0.00    +0.000 OA
ATOM     24  H   UNL     1       1.943   1.755  17.659  0.00  0.00    +0.000 HD
ENDBRANCH   6  23
BRANCH   7  25
ATOM     25  O   UNL     1       4.572   1.385  19.982  0.00  0.00    +0.000 OA
ATOM     26  H   UNL     1       5.229   0.880  19.466  0.00  0.00    +0.000 HD
ENDBRANCH   7  25
TORSDOF 6
ENDMDL
MODEL 6
REMARK VINA RESULT:      -7.9      4.769      7.483
REMARK  Name = 
REMARK  6 active torsions:
REMARK  status: ('A' for Active; 'I' for Inactive)
REMARK    1  A    between atoms: C_2  and  C_12
REMARK    2  A    between atoms: N_3  and  C_4
REMARK    3  A    between atoms: C_4  and  C_5
REMARK    4  A    between atoms: C_5  and  C_6
REMARK    5  A    between atoms: C_17  and  O_18
REMARK    6  A    between atoms: C_19  and  O_20
REMARK                            x       y       z     vdW  Elec       q    Type
REMARK                         _______ _______ _______ _____ _____    ______ ____
ROOT
ATOM      1  C   UNL     1       2.948   5.196  19.203  0.00  0.00    +0.000 A 
ATOM      2  C   UNL     1       2.371   4.685  18.038  0.00  0.00    +0.000 A 
ATOM      3  C   UNL     1       3.187   4.230  17.005  0.00  0.00    +0.000 A 
ATOM      4  C   UNL     1       4.565   4.285  17.122  0.00  0.00    +0.000 A 
ATOM      5  N   UNL     1       5.320   4.138  16.023  0.00  0.00    +0.000 NA
ATOM      6  C   UNL     1       6.649   4.221  16.222  0.00  0.00    +0.000 A 
ATOM      7  C   UNL     1       7.213   4.296  17.488  0.00  0.00    +0.000 A 
ATOM      8  N   UNL     1       6.478   4.526  18.585  0.00  0.00    +0.000 NA
ATOM      9  C   UNL     1       5.148   4.599  18.381  0.00  0.00    +0.000 A 
ATOM     10  C   UNL     1       4.332   5.094  19.386  0.00  0.00    +0.000 A 
ENDROOT
BRANCH   1  12
ATOM     11  O   UNL     1       1.246   5.339  20.818  0.00  0.00    +0.000 OA
ATOM     12  C   UNL     1       2.069   5.945  20.141  0.00  0.00    +0.000 C 
ATOM     13  N   UNL     1       2.218   7.310  20.178  0.00  0.00    +0.000 N 
ATOM     14  H   UNL     1       2.999   7.746  19.707  0.00  0.00    +0.000 HD
BRANCH  13  15
ATOM     15  C   UNL     1       1.393   8.126  21.049  0.00  0.00    +0.000 C 
BRANCH  15  16
ATOM     16  C   UNL     1       0.738   9.261  20.268  0.00  0.00    +0.000 C 
BRANCH  16  17
ATOM     17  C   UNL     1      -0.118  10.142  21.133  0.00  0.00    +0.000 A 
ATOM     18  C   UNL     1      -0.379   9.797  22.470  0.00  0.00    +0.000 A 
ATOM     19  C   UNL     1      -1.162  10.621  23.279  0.00  0.00    +0.000 A 
ATOM     20  C   UNL     1      -1.704  11.793  22.754  0.00  0.00    +0.000 A 
ATOM     21  C   UNL     1      -1.472  12.134  21.423  0.00  0.00    +0.000 A 
ATOM     22  C   UNL     1      -0.685  11.313  20.615  0.00  0.00    +0.000 A 
ENDBRANCH  16  17
ENDBRANCH  15  16
ENDBRANCH  13  15
ENDBRANCH   1  12
BRANCH   6  23
ATOM     23  O   UNL     1       7.406   4.671  15.176  0.00  0.00    +0.000 OA
ATOM     24  H   UNL     1       7.074   5.592  15.067  0.00  0.00    +0.000 HD
ENDBRANCH   6  23
BRANCH   7  25
ATOM     25  O   UNL     1       8.572   4.276  17.644  0.00  0.00    +0.000 OA
ATOM     26  H   UNL     1       8.864   5.190  17.464  0.00  0.00    +0.000 HD
ENDBRANCH   7  25
TORSDOF 6
ENDMDL
MODEL 7
REMARK VINA RESULT:      -7.9      5.515      8.355
REMARK  Name = 
REMARK  6 active torsions:
REMARK  status: ('A' for Active; 'I' for Inactive)
REMARK    1  A    between atoms: C_2  and  C_12
REMARK    2  A    between atoms: N_3  and  C_4
REMARK    3  A    between atoms: C_4  and  C_5
REMARK    4  A    between atoms: C_5  and  C_6
REMARK    5  A    between atoms: C_17  and  O_18
REMARK    6  A    between atoms: C_19  and  O_20
REMARK                            x       y       z     vdW  Elec       q    Type
REMARK                         _______ _______ _______ _____ _____    ______ ____
ROOT
ATOM      1  C   UNL     1       2.324   7.755  18.788  0.00  0.00    +0.000 A 
ATOM      2  C   UNL     1       2.986   8.082  17.602  0.00  0.00    +0.000 A 
ATOM      3  C   UNL     1       3.999   7.254  17.126  0.00  0.00    +0.000 A 
ATOM      4  C   UNL     1       4.360   6.113  17.821  0.00  0.00    +0.000 A 
ATOM      5  N   UNL     1       5.519   5.507  17.524  0.00  0.00    +0.000 NA
ATOM      6  C   UNL     1       5.801   4.414  18.258  0.00  0.00    +0.000 A 
ATOM      7  C   UNL     1       4.895   3.856  19.149  0.00  0.00    +0.000 A 
ATOM      8  N   UNL     1       3.773   4.490  19.517  0.00  0.00    +0.000 NA
ATOM      9  C   UNL     1       3.549   5.667  18.901  0.00  0.00    +0.000 A 
ATOM     10  C   UNL     1       2.574   6.519  19.396  0.00  0.00    +0.000 A 
ENDROOT
BRANCH   1  12
ATOM     11  O   UNL     1       1.250   8.756  20.624  0.00  0.00    +0.000 OA
ATOM     12  C   UNL     1       1.477   8.802  19.420  0.00  0.00    +0.000 C 
ATOM     13  N   UNL     1       0.967   9.773  18.593  0.00  0.00    +0.000 N 
ATOM     14  H   UNL     1       1.292   9.848  17.639  0.00  0.00    +0.000 HD
BRANCH  13  15
ATOM     15  C   UNL     1       0.115  10.825  19.116  0.00  0.00    +0.000 C 
BRANCH  15  16
ATOM     16  C   UNL     1      -1.304  10.313  19.341  0.00  0.00    +0.000 C 
BRANCH  16  17
ATOM     17  C   UNL     1      -2.188  10.511  18.143  0.00  0.00    +0.000 A 
ATOM     18  C   UNL     1      -1.910   9.856  16.931  0.00  0.00    +0.000 A 
ATOM     19  C   UNL     1      -2.739  10.028  15.821  0.00  0.00    +0.000 A 
ATOM     20  C   UNL     1      -3.848  10.868  15.909  0.00  0.00    +0.000 A 
ATOM     21  C   UNL     1      -4.121  11.541  17.098  0.00  0.00    +0.000 A 
ATOM     22  C   UNL     1      -3.295  11.366  18.209  0.00  0.00    +0.000 A 
ENDBRANCH  16  17
ENDBRANCH  15  16
ENDBRANCH  13  15
ENDBRANCH   1  12
BRANCH   6  23
ATOM     23  O   UNL     1       7.123   4.119  18.449  0.00  0.00    +0.000 OA
ATOM     24  H   UNL     1       7.231   4.286  19.412  0.00  0.00    +0.000 HD
ENDBRANCH   6  23
BRANCH   7  25
ATOM     25  O   UNL     1       5.188   2.687  19.797  0.00  0.00    +0.000 OA
ATOM     26  H   UNL     1       4.541   2.628  20.525  0.00  0.00    +0.000 HD
ENDBRANCH   7  25
TORSDOF 6
ENDMDL
MODEL 8
REMARK VINA RESULT:      -7.8      5.263      8.377
REMARK  Name = 
REMARK  6 active torsions:
REMARK  status: ('A' for Active; 'I' for Inactive)
REMARK    1  A    between atoms: C_2  and  C_12
REMARK    2  A    between atoms: N_3  and  C_4
REMARK    3  A    between atoms: C_4  and  C_5
REMARK    4  A    between atoms: C_5  and  C_6
REMARK    5  A    between atoms: C_17  and  O_18
REMARK    6  A    between atoms: C_19  and  O_20
REMARK                            x       y       z     vdW  Elec       q    Type
REMARK                         _______ _______ _______ _____ _____    ______ ____
ROOT
ATOM      1  C   UNL     1       2.634   6.806  18.988  0.00  0.00    +0.000 A 
ATOM      2  C   UNL     1       2.008   6.623  20.223  0.00  0.00    +0.000 A 
ATOM      3  C   UNL     1       1.337   7.686  20.822  0.00  0.00    +0.000 A 
ATOM      4  C   UNL     1       1.291   8.924  20.206  0.00  0.00    +0.000 A 
ATOM      5  N   UNL     1       0.919   9.996  20.922  0.00  0.00    +0.000 NA
ATOM      6  C   UNL     1       0.917  11.163  20.252  0.00  0.00    +0.000 A 
ATOM      7  C   UNL     1       1.130  11.241  18.883  0.00  0.00    +0.000 A 
ATOM      8  N   UNL     1       1.581  10.199  18.170  0.00  0.00    +0.000 NA
ATOM      9  C   UNL     1       1.737   9.053  18.862  0.00  0.00    +0.000 A 
ATOM     10  C   UNL     1       2.443   8.005  18.293  0.00  0.00    +0.000 A 
ENDROOT
BRANCH   1  12
ATOM     11  O   UNL     1       4.726   5.734  18.981  0.00  0.00    +0.000 OA
ATOM     12  C   UNL     1       3.586   5.758  18.531  0.00  0.00    +0.000 C 
ATOM     13  N   UNL     1       3.126   4.867  17.591  0.00  0.00    +0.000 N 
ATOM     14  H   UNL     1       2.144   4.841  17.355  0.00  0.00    +0.000 HD
BRANCH  13  15
ATOM     15  C   UNL     1       3.989   3.820  17.073  0.00  0.00    +0.000 C 
BRANCH  15  16
ATOM     16  C   UNL     1       3.627   2.469  17.683  0.00  0.00    +0.000 C 
BRANCH  16  17
ATOM     17  C   UNL     1       2.826   2.600  18.947  0.00  0.00    +0.000 A 
ATOM     18  C   UNL     1       3.458   2.575  20.202  0.00  0.00    +0.000 A 
ATOM     19  C   UNL     1       2.716   2.710  21.376  0.00  0.00    +0.000 A 
ATOM     20  C   UNL     1       1.333   2.860  21.308  0.00  0.00    +0.000 A 
ATOM     21  C   UNL     1       0.692   2.864  20.070  0.00  0.00    +0.000 A 
ATOM     22  C   UNL     1       1.433   2.732  18.896  0.00  0.00    +0.000 A 
ENDBRANCH  16  17
ENDBRANCH  15  16
ENDBRANCH  13  15
ENDBRANCH   1  12
BRANCH   6  23
ATOM     23  O   UNL     1       1.142  12.298  20.982  0.00  0.00    +0.000 OA
ATOM     24  H   UNL     1       2.072  12.513  20.741  0.00  0.00    +0.000 HD
ENDBRANCH   6  23
BRANCH   7  25
ATOM     25  O   UNL     1       1.018  12.438  18.229  0.00  0.00    +0.000 OA
ATOM     26  H   UNL     1       1.719  12.426  17.551  0.00  0.00    +0.000 HD
ENDBRANCH   7  25
TORSDOF 6
ENDMDL
MODEL 9
REMARK VINA RESULT:      -7.8      5.498      8.193
REMARK  Name = 
REMARK  6 active torsions:
REMARK  status: ('A' for Active; 'I' for Inactive)
REMARK    1  A    between atoms: C_2  and  C_12
REMARK    2  A    between atoms: N_3  and  C_4
REMARK    3  A    between atoms: C_4  and  C_5
REMARK    4  A    between atoms: C_5  and  C_6
REMARK    5  A    between atoms: C_17  and  O_18
REMARK    6  A    between atoms: C_19  and  O_20
REMARK                            x       y       z     vdW  Elec       q    Type
REMARK                         _______ _______ _______ _____ _____    ______ ____
ROOT
ATOM      1  C   UNL     1       2.153   7.560  19.386  0.00  0.00    +0.000 A 
ATOM      2  C   UNL     1       2.672   7.994  18.164  0.00  0.00    +0.000 A 
ATOM      3  C   UNL     1       3.646   7.236  17.520  0.00  0.00    +0.000 A 
ATOM      4  C   UNL     1       4.109   6.060  18.083  0.00  0.00    +0.000 A 
ATOM      5  N   UNL     1       5.243   5.515  17.618  0.00  0.00    +0.000 NA
ATOM      6  C   UNL     1       5.630   4.381  18.232  0.00  0.00    +0.000 A 
ATOM      7  C   UNL     1       4.842   3.730  19.171  0.00  0.00    +0.000 A 
ATOM      8  N   UNL     1       3.752   4.299  19.705  0.00  0.00    +0.000 NA
ATOM      9  C   UNL     1       3.433   5.511  19.207  0.00  0.00    +0.000 A 
ATOM     10  C   UNL     1       2.498   6.292  19.868  0.00  0.00    +0.000 A 
ENDROOT
BRANCH   1  12
ATOM     11  O   UNL     1       1.036   8.255  21.335  0.00  0.00    +0.000 OA
ATOM     12  C   UNL     1       1.355   8.530  20.184  0.00  0.00    +0.000 C 
ATOM     13  N   UNL     1       0.994   9.700  19.560  0.00  0.00    +0.000 N 
ATOM     14  H   UNL     1       1.395   9.941  18.665  0.00  0.00    +0.000 HD
BRANCH  13  15
ATOM     15  C   UNL     1       0.200  10.699  20.253  0.00  0.00    +0.000 C 
BRANCH  15  16
ATOM     16  C   UNL     1      -0.342  11.735  19.273  0.00  0.00    +0.000 C 
BRANCH  16  17
ATOM     17  C   UNL     1      -1.644  11.319  18.651  0.00  0.00    +0.000 A 
ATOM     18  C   UNL     1      -2.846  11.952  19.014  0.00  0.00    +0.000 A 
ATOM     19  C   UNL     1      -4.055  11.576  18.426  0.00  0.00    +0.000 A 
ATOM     20  C   UNL     1      -4.075  10.554  17.479  0.00  0.00    +0.000 A 
ATOM     21  C   UNL     1      -2.894   9.903  17.128  0.00  0.00    +0.000 A 
ATOM     22  C   UNL     1      -1.685  10.282  17.712  0.00  0.00    +0.000 A 
ENDBRANCH  16  17
ENDBRANCH  15  16
ENDBRANCH  13  15
ENDBRANCH   1  12
BRANCH   6  23
ATOM     23  O   UNL     1       6.972   4.116  18.256  0.00  0.00    +0.000 OA
ATOM     24  H   UNL     1       7.237   4.489  19.127  0.00  0.00    +0.000 HD
ENDBRANCH   6  23
BRANCH   7  25
ATOM     25  O   UNL     1       5.233   2.528  19.692  0.00  0.00    +0.000 OA
ATOM     26  H   UNL     1       5.610   2.033  18.941  0.00  0.00    +0.000 HD
ENDBRANCH   7  25
TORSDOF 6
ENDMDL
