MODEL 1
REMARK VINA RESULT:      -8.8      0.000      0.000
REMARK  Name = 
REMARK  4 active torsions:
REMARK  status: ('A' for Active; 'I' for Inactive)
REMARK    1  A    between atoms: C_1  and  C_2
REMARK    2  A    between atoms: C_4  and  C_5
REMARK    3  A    between atoms: C_6  and  C_7
REMARK    4  A    between atoms: N_9  and  C_10
REMARK                            x       y       z     vdW  Elec       q    Type
REMARK                         _______ _______ _______ _____ _____    ______ ____
ROOT
ATOM      1  C   UNL     1       5.839   4.489  17.074  0.00  0.00    +0.000 A 
ATOM      2  C   UNL     1       6.452   4.819  18.227  0.00  0.00    +0.000 A 
ATOM      3  C   UNL     1       7.831   5.353  18.434  0.00  0.00    +0.000 C 
ATOM      4  N   UNL     1       5.623   4.627  19.336  0.00  0.00    +0.000 N 
ATOM      5  N   UNL     1       4.455   4.011  18.862  0.00  0.00    +0.000 N 
ATOM      6  C   UNL     1       4.494   3.973  17.469  0.00  0.00    +0.000 A 
ATOM      7  O   UNL     1       3.646   3.637  16.660  0.00  0.00    +0.000 OA
ATOM      8  H   UNL     1       6.087   4.108  20.083  0.00  0.00    +0.000 HD
ENDROOT
BRANCH   1  12
ATOM      9  C   UNL     1       7.078   4.163  12.187  0.00  0.00    +0.000 C 
ATOM     10  C   UNL     1       6.935   4.493  13.623  0.00  0.00    +0.000 A 
ATOM     11  C   UNL     1       6.089   3.879  14.575  0.00  0.00    +0.000 A 
ATOM     12  C   UNL     1       6.319   4.549  15.755  0.00  0.00    +0.000 A 
ATOM     13  N   UNL     1       7.234   5.524  15.442  0.00  0.00    +0.000 N 
ATOM     14  N   UNL     1       7.649   5.485  14.164  0.00  0.00    +0.000 NA
ATOM     15  H   UNL     1       7.603   6.249  16.054  0.00  0.00    +0.000 HD
ENDBRANCH   1  12
BRANCH   5  16
ATOM     16  C   UNL     1       3.376   3.693  19.708  0.00  0.00    +0.000 A 
ATOM     17  C   UNL     1       2.200   4.455  19.670  0.00  0.00    +0.000 A 
ATOM     18  C   UNL     1       1.141   4.194  20.544  0.00  0.00    +0.000 A 
ATOM     19  C   UNL     1       1.246   3.165  21.471  0.00  0.00    +0.000 A 
ATOM     20  C   UNL     1       2.395   2.378  21.503  0.00  0.00    +0.000 A 
ATOM     21  C   UNL     1       3.450   2.631  20.620  0.00  0.00    +0.000 A 
ENDBRANCH   5  16
TORSDOF 2
ENDMDL
MODEL 2
REMARK VINA RESULT:      -8.8      0.154      1.103
REMARK  Name = 
REMARK  4 active torsions:
REMARK  status: ('A' for Active; 'I' for Inactive)
REMARK    1  A    between atoms: C_1  and  C_2
REMARK    2  A    between atoms: C_4  and  C_5
REMARK    3  A    between atoms: C_6  and  C_7
REMARK    4  A    between atoms: N_9  and  C_10
REMARK                            x       y       z     vdW  Elec       q    Type
REMARK                         _______ _______ _______ _____ _____    ______ ____
ROOT
ATOM      1  C   UNL     1       5.825   4.466  17.052  0.00  0.00    +0.000 A 
ATOM      2  C   UNL     1       6.437   4.768  18.212  0.00  0.00    +0.000 A 
ATOM      3  C   UNL     1       7.830   5.260  18.435  0.00  0.00    +0.000 C 
ATOM      4  N   UNL     1       5.593   4.593  19.313  0.00  0.00    +0.000 N 
ATOM      5  N   UNL     1       4.413   4.016  18.824  0.00  0.00    +0.000 N 
ATOM      6  C   UNL     1       4.462   3.987  17.432  0.00  0.00    +0.000 A 
ATOM      7  O   UNL     1       3.611   3.683  16.613  0.00  0.00    +0.000 OA
ATOM      8  H   UNL     1       6.035   4.055  20.059  0.00  0.00    +0.000 HD
ENDROOT
BRANCH   1  12
ATOM      9  C   UNL     1       7.110   4.125  12.178  0.00  0.00    +0.000 C 
ATOM     10  C   UNL     1       6.954   4.459  13.612  0.00  0.00    +0.000 A 
ATOM     11  C   UNL     1       6.097   3.849  14.557  0.00  0.00    +0.000 A 
ATOM     12  C   UNL     1       6.318   4.522  15.738  0.00  0.00    +0.000 A 
ATOM     13  N   UNL     1       7.238   5.494  15.431  0.00  0.00    +0.000 N 
ATOM     14  N   UNL     1       7.666   5.451  14.157  0.00  0.00    +0.000 NA
ATOM     15  H   UNL     1       7.602   6.220  16.045  0.00  0.00    +0.000 HD
ENDBRANCH   1  12
BRANCH   5  16
ATOM     16  C   UNL     1       3.317   3.723  19.660  0.00  0.00    +0.000 A 
ATOM     17  C   UNL     1       3.461   2.819  20.722  0.00  0.00    +0.000 A 
ATOM     18  C   UNL     1       2.372   2.468  21.524  0.00  0.00    +0.000 A 
ATOM     19  C   UNL     1       1.121   3.019  21.273  0.00  0.00    +0.000 A 
ATOM     20  C   UNL     1       0.966   3.942  20.242  0.00  0.00    +0.000 A 
ATOM     21  C   UNL     1       2.060   4.303  19.446  0.00  0.00    +0.000 A 
ENDBRANCH   5  16
TORSDOF 2
ENDMDL
MODEL 3
REMARK VINA RESULT:      -8.0      1.101      1.578
REMARK  Name = 
REMARK  4 active torsions:
REMARK  status: ('A' for Active; 'I' for Inactive)
REMARK    1  A    between atoms: C_1  and  C_2
REMARK    2  A    between atoms: C_4  and  C_5
REMARK    3  A    between atoms: C_6  and  C_7
REMARK    4  A    between atoms: N_9  and  C_10
REMARK                            x       y       z     vdW  Elec       q    Type
REMARK                         _______ _______ _______ _____ _____    ______ ____
ROOT
ATOM      1  C   UNL     1       5.139   5.069  16.644  0.00  0.00    +0.000 A 
ATOM      2  C   UNL     1       5.026   6.177  17.400  0.00  0.00    +0.000 A 
ATOM      3  C   UNL     1       5.633   7.524  17.182  0.00  0.00    +0.000 C 
ATOM      4  N   UNL     1       4.203   5.974  18.512  0.00  0.00    +0.000 N 
ATOM      5  N   UNL     1       3.882   4.608  18.528  0.00  0.00    +0.000 N 
ATOM      6  C   UNL     1       4.361   4.014  17.361  0.00  0.00    +0.000 A 
ATOM      7  O   UNL     1       4.201   2.889  16.920  0.00  0.00    +0.000 OA
ATOM      8  H   UNL     1       4.630   6.305  19.378  0.00  0.00    +0.000 HD
ENDROOT
BRANCH   1  12
ATOM      9  C   UNL     1       7.084   4.041  12.097  0.00  0.00    +0.000 C 
ATOM     10  C   UNL     1       6.806   4.464  13.488  0.00  0.00    +0.000 A 
ATOM     11  C   UNL     1       5.609   4.300  14.222  0.00  0.00    +0.000 A 
ATOM     12  C   UNL     1       5.854   4.866  15.452  0.00  0.00    +0.000 A 
ATOM     13  N   UNL     1       7.134   5.358  15.373  0.00  0.00    +0.000 N 
ATOM     14  N   UNL     1       7.743   5.093  14.204  0.00  0.00    +0.000 NA
ATOM     15  H   UNL     1       7.640   5.890  16.078  0.00  0.00    +0.000 HD
ENDBRANCH   1  12
BRANCH   5  16
ATOM     16  C   UNL     1       3.036   4.046  19.503  0.00  0.00    +0.000 A 
ATOM     17  C   UNL     1       3.543   3.127  20.433  0.00  0.00    +0.000 A 
ATOM     18  C   UNL     1       2.709   2.512  21.369  0.00  0.00    +0.000 A 
ATOM     19  C   UNL     1       1.351   2.808  21.387  0.00  0.00    +0.000 A 
ATOM     20  C   UNL     1       0.835   3.741  20.491  0.00  0.00    +0.000 A 
ATOM     21  C   UNL     1       1.673   4.367  19.562  0.00  0.00    +0.000 A 
ENDBRANCH   5  16
TORSDOF 2
ENDMDL
MODEL 4
REMARK VINA RESULT:      -7.9      4.323      7.207
REMARK  Name = 
REMARK  4 active torsions:
REMARK  status: ('A' for Active; 'I' for Inactive)
REMARK    1  A    between atoms: C_1  and  C_2
REMARK    2  A    between atoms: C_4  and  C_5
REMARK    3  A    between atoms: C_6  and  C_7
REMARK    4  A    between atoms: N_9  and  C_10
REMARK                            x       y       z     vdW  Elec       q    Type
REMARK                         _______ _______ _______ _____ _____    ______ ____
ROOT
ATOM      1  C   UNL     1       1.769   7.655  19.929  0.00  0.00    +0.000 A 
ATOM      2  C   UNL     1       2.232   7.870  18.684  0.00  0.00    +0.000 A 
ATOM      3  C   UNL     1       2.275   9.146  17.909  0.00  0.00    +0.000 C 
ATOM      4  N   UNL     1       2.742   6.704  18.104  0.00  0.00    +0.000 N 
ATOM      5  N   UNL     1       2.460   5.658  18.994  0.00  0.00    +0.000 N 
ATOM      6  C   UNL     1       1.936   6.190  20.171  0.00  0.00    +0.000 A 
ATOM      7  O   UNL     1       1.669   5.656  21.235  0.00  0.00    +0.000 OA
ATOM      8  H   UNL     1       2.382   6.549  17.162  0.00  0.00    +0.000 HD
ENDROOT
BRANCH   1  12
ATOM      9  C   UNL     1      -0.808  11.006  22.695  0.00  0.00    +0.000 C 
ATOM     10  C   UNL     1       0.140  10.012  22.142  0.00  0.00    +0.000 A 
ATOM     11  C   UNL     1       0.114   9.406  20.865  0.00  0.00    +0.000 A 
ATOM     12  C   UNL     1       1.197   8.557  20.842  0.00  0.00    +0.000 A 
ATOM     13  N   UNL     1       1.770   8.672  22.085  0.00  0.00    +0.000 N 
ATOM     14  N   UNL     1       1.167   9.576  22.876  0.00  0.00    +0.000 NA
ATOM     15  H   UNL     1       2.564   8.152  22.453  0.00  0.00    +0.000 HD
ENDBRANCH   1  12
BRANCH   5  16
ATOM     16  C   UNL     1       2.859   4.330  18.745  0.00  0.00    +0.000 A 
ATOM     17  C   UNL     1       2.178   3.555  17.796  0.00  0.00    +0.000 A 
ATOM     18  C   UNL     1       2.518   2.217  17.578  0.00  0.00    +0.000 A 
ATOM     19  C   UNL     1       3.548   1.636  18.308  0.00  0.00    +0.000 A 
ATOM     20  C   UNL     1       4.255   2.400  19.233  0.00  0.00    +0.000 A 
ATOM     21  C   UNL     1       3.923   3.743  19.443  0.00  0.00    +0.000 A 
ENDBRANCH   5  16
TORSDOF 2
ENDMDL
MODEL 5
REMARK VINA RESULT:      -7.8      1.251      6.707
REMARK  Name = 
REMARK  4 active torsions:
REMARK  status: ('A' for Active; 'I' for Inactive)
REMARK    1  A    between atoms: C_1  and  C_2
REMARK    2  A    between atoms: C_4  and  C_5
REMARK    3  A    between atoms: C_6  and  C_7
REMARK    4  A    between atoms: N_9  and  C_10
REMARK                            x       y       z     vdW  Elec       q    Type
REMARK                         _______ _______ _______ _____ _____    ______ ____
ROOT
ATOM      1  C   UNL     1       5.589   4.302  17.991  0.00  0.00    +0.000 A 
ATOM      2  C   UNL     1       6.752   4.975  18.056  0.00  0.00    +0.000 A 
ATOM      3  C   UNL     1       7.449   5.525  19.258  0.00  0.00    +0.000 C 
ATOM      4  N   UNL     1       7.343   5.128  16.798  0.00  0.00    +0.000 N 
ATOM      5  N   UNL     1       6.423   4.634  15.862  0.00  0.00    +0.000 N 
ATOM      6  C   UNL     1       5.360   4.038  16.538  0.00  0.00    +0.000 A 
ATOM      7  O   UNL     1       4.416   3.389  16.120  0.00  0.00    +0.000 OA
ATOM      8  H   UNL     1       7.632   6.090  16.620  0.00  0.00    +0.000 HD
ENDROOT
BRANCH   1  12
ATOM      9  C   UNL     1       2.061   3.609  21.540  0.00  0.00    +0.000 C 
ATOM     10  C   UNL     1       3.204   3.528  20.603  0.00  0.00    +0.000 A 
ATOM     11  C   UNL     1       3.600   4.477  19.632  0.00  0.00    +0.000 A 
ATOM     12  C   UNL     1       4.707   3.933  19.021  0.00  0.00    +0.000 A 
ATOM     13  N   UNL     1       4.881   2.708  19.616  0.00  0.00    +0.000 N 
ATOM     14  N   UNL     1       4.004   2.458  20.604  0.00  0.00    +0.000 NA
ATOM     15  H   UNL     1       5.573   1.998  19.384  0.00  0.00    +0.000 HD
ENDBRANCH   1  12
BRANCH   5  16
ATOM     16  C   UNL     1       6.699   4.603  14.481  0.00  0.00    +0.000 A 
ATOM     17  C   UNL     1       6.033   3.693  13.648  0.00  0.00    +0.000 A 
ATOM     18  C   UNL     1       6.335   3.604  12.287  0.00  0.00    +0.000 A 
ATOM     19  C   UNL     1       7.312   4.427  11.740  0.00  0.00    +0.000 A 
ATOM     20  C   UNL     1       7.963   5.358  12.546  0.00  0.00    +0.000 A 
ATOM     21  C   UNL     1       7.650   5.456  13.907  0.00  0.00    +0.000 A 
ENDBRANCH   5  16
TORSDOF 2
ENDMDL
MODEL 6
REMARK VINA RESULT:      -7.8      4.691      7.736
REMARK  Name = 
REMARK  4 active torsions:
REMARK  status: ('A' for Active; 'I' for Inactive)
REMARK    1  A    between atoms: C_1  and  C_2
REMARK    2  A    between atoms: C_4  and  C_5
REMARK    3  A    between atoms: C_6  and  C_7
REMARK    4  A    between atoms: N_9  and  C_10
REMARK                            x       y       z     vdW  Elec       q    Type
REMARK                         _______ _______ _______ _____ _____    ______ ____
ROOT
ATOM      1  C   UNL     1       1.564   8.420  19.850  0.00  0.00    +0.000 A 
ATOM      2  C   UNL     1       1.940   8.894  18.647  0.00  0.00    +0.000 A 
ATOM      3  C   UNL     1       1.790  10.275  18.098  0.00  0.00    +0.000 C 
ATOM      4  N   UNL     1       2.561   7.914  17.866  0.00  0.00    +0.000 N 
ATOM      5  N   UNL     1       2.451   6.709  18.574  0.00  0.00    +0.000 N 
ATOM      6  C   UNL     1       1.921   6.969  19.837  0.00  0.00    +0.000 A 
ATOM      7  O   UNL     1       1.771   6.237  20.801  0.00  0.00    +0.000 OA
ATOM      8  H   UNL     1       2.179   7.871  16.921  0.00  0.00    +0.000 HD
ENDROOT
BRANCH   1  12
ATOM      9  C   UNL     1      -1.246  10.962  23.190  0.00  0.00    +0.000 C 
ATOM     10  C   UNL     1      -0.230  10.168  22.464  0.00  0.00    +0.000 A 
ATOM     11  C   UNL     1      -0.211   9.829  21.091  0.00  0.00    +0.000 A 
ATOM     12  C   UNL     1       0.930   9.079  20.915  0.00  0.00    +0.000 A 
ATOM     13  N   UNL     1       1.491   8.981  22.165  0.00  0.00    +0.000 N 
ATOM     14  N   UNL     1       0.825   9.664  23.112  0.00  0.00    +0.000 NA
ATOM     15  H   UNL     1       2.320   8.454  22.434  0.00  0.00    +0.000 HD
ENDBRANCH   1  12
BRANCH   5  16
ATOM     16  C   UNL     1       2.998   5.503  18.095  0.00  0.00    +0.000 A 
ATOM     17  C   UNL     1       2.158   4.432  17.757  0.00  0.00    +0.000 A 
ATOM     18  C   UNL     1       2.683   3.207  17.338  0.00  0.00    +0.000 A 
ATOM     19  C   UNL     1       4.060   3.036  17.251  0.00  0.00    +0.000 A 
ATOM     20  C   UNL     1       4.908   4.098  17.553  0.00  0.00    +0.000 A 
ATOM     21  C   UNL     1       4.382   5.329  17.961  0.00  0.00    +0.000 A 
ENDBRANCH   5  16
TORSDOF 2
ENDMDL
MODEL 7
REMARK VINA RESULT:      -7.8      4.661      7.749
REMARK  Name = 
REMARK  4 active torsions:
REMARK  status: ('A' for Active; 'I' for Inactive)
REMARK    1  A    between atoms: C_1  and  C_2
REMARK    2  A    between atoms: C_4  and  C_5
REMARK    3  A    between atoms: C_6  and  C_7
REMARK    4  A    between atoms: N_9  and  C_10
REMARK                            x       y       z     vdW  Elec       q    Type
REMARK                         _______ _______ _______ _____ _____    ______ ____
ROOT
ATOM      1  C   UNL     1       1.573   8.384  19.855  0.00  0.00    +0.000 A 
ATOM      2  C   UNL     1       1.955   8.858  18.654  0.00  0.00    +0.000 A 
ATOM      3  C   UNL     1       1.813  10.240  18.105  0.00  0.00    +0.000 C 
ATOM      4  N   UNL     1       2.576   7.876  17.875  0.00  0.00    +0.000 N 
ATOM      5  N   UNL     1       2.458   6.671  18.582  0.00  0.00    +0.000 N 
ATOM      6  C   UNL     1       1.924   6.932  19.843  0.00  0.00    +0.000 A 
ATOM      7  O   UNL     1       1.767   6.200  20.806  0.00  0.00    +0.000 OA
ATOM      8  H   UNL     1       2.197   7.836  16.928  0.00  0.00    +0.000 HD
ENDROOT
BRANCH   1  12
ATOM      9  C   UNL     1      -1.256  10.908  23.194  0.00  0.00    +0.000 C 
ATOM     10  C   UNL     1      -0.229  10.129  22.466  0.00  0.00    +0.000 A 
ATOM     11  C   UNL     1      -0.223   9.765  21.100  0.00  0.00    +0.000 A 
ATOM     12  C   UNL     1       0.937   9.045  20.919  0.00  0.00    +0.000 A 
ATOM     13  N   UNL     1       1.521   8.988  22.160  0.00  0.00    +0.000 N 
ATOM     14  N   UNL     1       0.851   9.670  23.105  0.00  0.00    +0.000 NA
ATOM     15  H   UNL     1       2.369   8.490  22.425  0.00  0.00    +0.000 HD
ENDBRANCH   1  12
BRANCH   5  16
ATOM     16  C   UNL     1       3.002   5.463  18.104  0.00  0.00    +0.000 A 
ATOM     17  C   UNL     1       4.375   5.363  17.838  0.00  0.00    +0.000 A 
ATOM     18  C   UNL     1       4.925   4.194  17.306  0.00  0.00    +0.000 A 
ATOM     19  C   UNL     1       4.105   3.106  17.030  0.00  0.00    +0.000 A 
ATOM     20  C   UNL     1       2.744   3.177  17.316  0.00  0.00    +0.000 A 
ATOM     21  C   UNL     1       2.195   4.343  17.861  0.00  0.00    +0.000 A 
ENDBRANCH   5  16
TORSDOF 2
ENDMDL
MODEL 8
REMARK VINA RESULT:      -7.8      1.249      6.694
REMARK  Name = 
REMARK  4 active torsions:
REMARK  status: ('A' for Active; 'I' for Inactive)
REMARK    1  A    between atoms: C_1  and  C_2
REMARK    2  A    between atoms: C_4  and  C_5
REMARK    3  A    between atoms: C_6  and  C_7
REMARK    4  A    between atoms: N_9  and  C_10
REMARK                            x       y       z     vdW  Elec       q    Type
REMARK                         _______ _______ _______ _____ _____    ______ ____
ROOT
ATOM      1  C   UNL     1       5.588   4.297  17.985  0.00  0.00    +0.000 A 
ATOM      2  C   UNL     1       6.746   4.981  18.052  0.00  0.00    +0.000 A 
ATOM      3  C   UNL     1       7.421   5.564  19.250  0.00  0.00    +0.000 C 
ATOM      4  N   UNL     1       7.353   5.109  16.799  0.00  0.00    +0.000 N 
ATOM      5  N   UNL     1       6.451   4.585  15.861  0.00  0.00    +0.000 N 
ATOM      6  C   UNL     1       5.383   3.997  16.536  0.00  0.00    +0.000 A 
ATOM      7  O   UNL     1       4.450   3.332  16.119  0.00  0.00    +0.000 OA
ATOM      8  H   UNL     1       7.639   6.069  16.602  0.00  0.00    +0.000 HD
ENDROOT
BRANCH   1  12
ATOM      9  C   UNL     1       2.008   3.655  21.491  0.00  0.00    +0.000 C 
ATOM     10  C   UNL     1       3.170   3.565  20.578  0.00  0.00    +0.000 A 
ATOM     11  C   UNL     1       3.566   4.488  19.584  0.00  0.00    +0.000 A 
ATOM     12  C   UNL     1       4.694   3.946  19.010  0.00  0.00    +0.000 A 
ATOM     13  N   UNL     1       4.880   2.745  19.649  0.00  0.00    +0.000 N 
ATOM     14  N   UNL     1       3.990   2.510  20.629  0.00  0.00    +0.000 NA
ATOM     15  H   UNL     1       5.588   2.041  19.453  0.00  0.00    +0.000 HD
ENDBRANCH   1  12
BRANCH   5  16
ATOM     16  C   UNL     1       6.747   4.525  14.486  0.00  0.00    +0.000 A 
ATOM     17  C   UNL     1       7.666   5.421  13.921  0.00  0.00    +0.000 A 
ATOM     18  C   UNL     1       7.928   5.418  12.549  0.00  0.00    +0.000 A 
ATOM     19  C   UNL     1       7.272   4.515  11.720  0.00  0.00    +0.000 A 
ATOM     20  C   UNL     1       6.379   3.598  12.268  0.00  0.00    +0.000 A 
ATOM     21  C   UNL     1       6.126   3.592  13.645  0.00  0.00    +0.000 A 
ENDBRANCH   5  16
TORSDOF 2
ENDMDL
MODEL 9
REMARK VINA RESULT:      -7.8      4.351      7.265
REMARK  Name = 
REMARK  4 active torsions:
REMARK  status: ('A' for Active; 'I' for Inactive)
REMARK    1  A    between atoms: C_1  and  C_2
REMARK    2  A    between atoms: C_4  and  C_5
REMARK    3  A    between atoms: C_6  and  C_7
REMARK    4  A    between atoms: N_9  and  C_10
REMARK                            x       y       z     vdW  Elec       q    Type
REMARK                         _______ _______ _______ _____ _____    ______ ____
ROOT
ATOM      1  C   UNL     1       1.745   7.671  19.934  0.00  0.00    +0.000 A 
ATOM      2  C   UNL     1       2.212   7.858  18.686  0.00  0.00    +0.000 A 
ATOM      3  C   UNL     1       2.283   9.122  17.892  0.00  0.00    +0.000 C 
ATOM      4  N   UNL     1       2.697   6.674  18.122  0.00  0.00    +0.000 N 
ATOM      5  N   UNL     1       2.393   5.647  19.027  0.00  0.00    +0.000 N 
ATOM      6  C   UNL     1       1.881   6.207  20.197  0.00  0.00    +0.000 A 
ATOM      7  O   UNL     1       1.603   5.693  21.268  0.00  0.00    +0.000 OA
ATOM      8  H   UNL     1       2.332   6.514  17.182  0.00  0.00    +0.000 HD
ENDROOT
BRANCH   1  12
ATOM      9  C   UNL     1      -0.741  11.137  22.641  0.00  0.00    +0.000 C 
ATOM     10  C   UNL     1       0.173  10.101  22.109  0.00  0.00    +0.000 A 
ATOM     11  C   UNL     1       0.151   9.497  20.831  0.00  0.00    +0.000 A 
ATOM     12  C   UNL     1       1.194   8.599  20.833  0.00  0.00    +0.000 A 
ATOM     13  N   UNL     1       1.740   8.686  22.091  0.00  0.00    +0.000 N 
ATOM     14  N   UNL     1       1.161   9.617  22.869  0.00  0.00    +0.000 NA
ATOM     15  H   UNL     1       2.501   8.130  22.477  0.00  0.00    +0.000 HD
ENDBRANCH   1  12
BRANCH   5  16
ATOM     16  C   UNL     1       2.763   4.308  18.797  0.00  0.00    +0.000 A 
ATOM     17  C   UNL     1       3.841   3.743  19.494  0.00  0.00    +0.000 A 
ATOM     18  C   UNL     1       4.263   2.436  19.235  0.00  0.00    +0.000 A 
ATOM     19  C   UNL     1       3.610   1.675  18.273  0.00  0.00    +0.000 A 
ATOM     20  C   UNL     1       2.518   2.209  17.594  0.00  0.00    +0.000 A 
ATOM     21  C   UNL     1       2.087   3.513  17.861  0.00  0.00    +0.000 A 
ENDBRANCH   5  16
TORSDOF 2
ENDMDL
