MODEL 1
REMARK VINA RESULT:      -9.4      0.000      0.000
REMARK  Name = 
REMARK  3 active torsions:
REMARK  status: ('A' for Active; 'I' for Inactive)
REMARK    1  A    between atoms: C_1  and  C_2
REMARK    2  A    between atoms: C_6  and  C_7
REMARK    3  A    between atoms: C_18  and  C_19
REMARK                            x       y       z     vdW  Elec       q    Type
REMARK                         _______ _______ _______ _____ _____    ______ ____
ROOT
ATOM      1  C   UNL     1       1.502   2.329  19.034  0.00  0.00    +0.000 C 
ATOM      2  C   UNL     1       2.924   2.829  19.096  0.00  0.00    +0.000 C 
ATOM      3  O   UNL     1       3.883   2.059  19.044  0.00  0.00    +0.000 OA
ATOM      4  N   UNL     1       3.055   4.193  19.199  0.00  0.00    +0.000 N 
ATOM      5  N   UNL     1       2.008   5.031  19.427  0.00  0.00    +0.000 NA
ATOM      6  C   UNL     1       2.569   6.179  19.636  0.00  0.00    +0.000 C 
ATOM      7  O   UNL     1       3.926   6.239  19.585  0.00  0.00    +0.000 OA
ATOM      8  C   UNL     1       4.316   4.896  19.277  0.00  0.00    +0.000 C 
ENDROOT
BRANCH   6   9
ATOM      9  C   UNL     1       1.865   7.435  19.933  0.00  0.00    +0.000 A 
ATOM     10  C   UNL     1       1.813   8.415  18.937  0.00  0.00    +0.000 A 
ATOM     11  C   UNL     1       1.165   9.626  19.175  0.00  0.00    +0.000 A 
ATOM     12  C   UNL     1       0.562   9.878  20.414  0.00  0.00    +0.000 A 
ATOM     13  C   UNL     1      -0.089  11.095  20.669  0.00  0.00    +0.000 A 
ATOM     14  C   UNL     1      -0.680  11.341  21.908  0.00  0.00    +0.000 A 
ATOM     15  C   UNL     1      -0.628  10.374  22.907  0.00  0.00    +0.000 A 
ATOM     16  C   UNL     1       0.012   9.157  22.669  0.00  0.00    +0.000 A 
ATOM     17  C   UNL     1       0.613   8.890  21.429  0.00  0.00    +0.000 A 
ATOM     18  C   UNL     1       1.266   7.670  21.174  0.00  0.00    +0.000 A 
ENDBRANCH   6   9
BRANCH   8  19
ATOM     19  C   UNL     1       5.104   4.879  17.982  0.00  0.00    +0.000 A 
ATOM     20  C   UNL     1       4.465   5.151  16.761  0.00  0.00    +0.000 A 
ATOM     21  C   UNL     1       5.183   5.143  15.562  0.00  0.00    +0.000 A 
ATOM     22  C   UNL     1       6.548   4.863  15.574  0.00  0.00    +0.000 A 
ATOM     23 CL   UNL     1       7.432   4.850  14.097  0.00  0.00    +0.000 Cl
ATOM     24  C   UNL     1       7.202   4.596  16.773  0.00  0.00    +0.000 A 
ATOM     25  C   UNL     1       6.483   4.601  17.971  0.00  0.00    +0.000 A 
ENDBRANCH   8  19
TORSDOF 2
ENDMDL
MODEL 2
REMARK VINA RESULT:      -9.1      0.684      1.163
REMARK  Name = 
REMARK  3 active torsions:
REMARK  status: ('A' for Active; 'I' for Inactive)
REMARK    1  A    between atoms: C_1  and  C_2
REMARK    2  A    between atoms: C_6  and  C_7
REMARK    3  A    between atoms: C_18  and  C_19
REMARK                            x       y       z     vdW  Elec       q    Type
REMARK                         _______ _______ _______ _____ _____    ______ ____
ROOT
ATOM      1  C   UNL     1       2.392   2.293  20.336  0.00  0.00    +0.000 C 
ATOM      2  C   UNL     1       3.696   2.939  19.937  0.00  0.00    +0.000 C 
ATOM      3  O   UNL     1       4.739   2.290  19.848  0.00  0.00    +0.000 OA
ATOM      4  N   UNL     1       3.620   4.285  19.673  0.00  0.00    +0.000 N 
ATOM      5  N   UNL     1       2.516   5.038  19.931  0.00  0.00    +0.000 NA
ATOM      6  C   UNL     1       2.912   6.252  19.717  0.00  0.00    +0.000 C 
ATOM      7  O   UNL     1       4.203   6.439  19.334  0.00  0.00    +0.000 OA
ATOM      8  C   UNL     1       4.738   5.112  19.278  0.00  0.00    +0.000 C 
ENDROOT
BRANCH   6   9
ATOM      9  C   UNL     1       2.086   7.460  19.860  0.00  0.00    +0.000 A 
ATOM     10  C   UNL     1       1.933   8.291  18.744  0.00  0.00    +0.000 A 
ATOM     11  C   UNL     1       1.167   9.452  18.833  0.00  0.00    +0.000 A 
ATOM     12  C   UNL     1       0.544   9.803  20.038  0.00  0.00    +0.000 A 
ATOM     13  C   UNL     1      -0.225  10.972  20.141  0.00  0.00    +0.000 A 
ATOM     14  C   UNL     1      -0.835  11.318  21.347  0.00  0.00    +0.000 A 
ATOM     15  C   UNL     1      -0.684  10.501  22.462  0.00  0.00    +0.000 A 
ATOM     16  C   UNL     1       0.075   9.332  22.376  0.00  0.00    +0.000 A 
ATOM     17  C   UNL     1       0.697   8.967  21.172  0.00  0.00    +0.000 A 
ATOM     18  C   UNL     1       1.469   7.795  21.068  0.00  0.00    +0.000 A 
ENDBRANCH   6   9
BRANCH   8  19
ATOM     19  C   UNL     1       5.243   4.826  17.877  0.00  0.00    +0.000 A 
ATOM     20  C   UNL     1       6.623   4.734  17.627  0.00  0.00    +0.000 A 
ATOM     21  C   UNL     1       7.098   4.465  16.340  0.00  0.00    +0.000 A 
ATOM     22  C   UNL     1       6.197   4.286  15.292  0.00  0.00    +0.000 A 
ATOM     23 CL   UNL     1       6.783   3.959  13.707  0.00  0.00    +0.000 Cl
ATOM     24  C   UNL     1       4.827   4.369  15.519  0.00  0.00    +0.000 A 
ATOM     25  C   UNL     1       4.352   4.640  16.806  0.00  0.00    +0.000 A 
ENDBRANCH   8  19
TORSDOF 2
ENDMDL
MODEL 3
REMARK VINA RESULT:      -8.8      0.602      1.665
REMARK  Name = 
REMARK  3 active torsions:
REMARK  status: ('A' for Active; 'I' for Inactive)
REMARK    1  A    between atoms: C_1  and  C_2
REMARK    2  A    between atoms: C_6  and  C_7
REMARK    3  A    between atoms: C_18  and  C_19
REMARK                            x       y       z     vdW  Elec       q    Type
REMARK                         _______ _______ _______ _____ _____    ______ ____
ROOT
ATOM      1  C   UNL     1       1.597   2.150  19.062  0.00  0.00    +0.000 C 
ATOM      2  C   UNL     1       3.014   2.665  19.100  0.00  0.00    +0.000 C 
ATOM      3  O   UNL     1       3.981   1.905  19.035  0.00  0.00    +0.000 OA
ATOM      4  N   UNL     1       3.133   4.030  19.196  0.00  0.00    +0.000 N 
ATOM      5  N   UNL     1       2.081   4.858  19.438  0.00  0.00    +0.000 NA
ATOM      6  C   UNL     1       2.633   6.012  19.634  0.00  0.00    +0.000 C 
ATOM      7  O   UNL     1       3.989   6.087  19.562  0.00  0.00    +0.000 OA
ATOM      8  C   UNL     1       4.388   4.747  19.252  0.00  0.00    +0.000 C 
ENDROOT
BRANCH   6   9
ATOM      9  C   UNL     1       1.921   7.262  19.939  0.00  0.00    +0.000 A 
ATOM     10  C   UNL     1       1.248   7.357  21.162  0.00  0.00    +0.000 A 
ATOM     11  C   UNL     1       0.551   8.519  21.492  0.00  0.00    +0.000 A 
ATOM     12  C   UNL     1       0.513   9.601  20.604  0.00  0.00    +0.000 A 
ATOM     13  C   UNL     1      -0.190  10.774  20.923  0.00  0.00    +0.000 A 
ATOM     14  C   UNL     1      -0.230  11.844  20.029  0.00  0.00    +0.000 A 
ATOM     15  C   UNL     1       0.431  11.756  18.808  0.00  0.00    +0.000 A 
ATOM     16  C   UNL     1       1.137  10.598  18.477  0.00  0.00    +0.000 A 
ATOM     17  C   UNL     1       1.189   9.510  19.363  0.00  0.00    +0.000 A 
ATOM     18  C   UNL     1       1.894   8.335  19.044  0.00  0.00    +0.000 A 
ENDBRANCH   6   9
BRANCH   8  19
ATOM     19  C   UNL     1       5.156   4.734  17.945  0.00  0.00    +0.000 A 
ATOM     20  C   UNL     1       4.474   4.860  16.723  0.00  0.00    +0.000 A 
ATOM     21  C   UNL     1       5.173   4.855  15.512  0.00  0.00    +0.000 A 
ATOM     22  C   UNL     1       6.560   4.723  15.513  0.00  0.00    +0.000 A 
ATOM     23 CL   UNL     1       7.419   4.712  14.023  0.00  0.00    +0.000 Cl
ATOM     24  C   UNL     1       7.254   4.601  16.713  0.00  0.00    +0.000 A 
ATOM     25  C   UNL     1       6.555   4.604  17.923  0.00  0.00    +0.000 A 
ENDBRANCH   8  19
TORSDOF 2
ENDMDL
MODEL 4
REMARK VINA RESULT:      -8.4      4.353      8.459
REMARK  Name = 
REMARK  3 active torsions:
REMARK  status: ('A' for Active; 'I' for Inactive)
REMARK    1  A    between atoms: C_1  and  C_2
REMARK    2  A    between atoms: C_6  and  C_7
REMARK    3  A    between atoms: C_18  and  C_19
REMARK                            x       y       z     vdW  Elec       q    Type
REMARK                         _______ _______ _______ _____ _____    ______ ____
ROOT
ATOM      1  C   UNL     1       2.908  12.841  17.803  0.00  0.00    +0.000 C 
ATOM      2  C   UNL     1       1.714  12.395  18.611  0.00  0.00    +0.000 C 
ATOM      3  O   UNL     1       1.002  13.200  19.211  0.00  0.00    +0.000 OA
ATOM      4  N   UNL     1       1.485  11.040  18.609  0.00  0.00    +0.000 N 
ATOM      5  N   UNL     1       2.359  10.134  18.092  0.00  0.00    +0.000 NA
ATOM      6  C   UNL     1       1.866   8.991  18.448  0.00  0.00    +0.000 C 
ATOM      7  O   UNL     1       0.719   8.995  19.179  0.00  0.00    +0.000 OA
ATOM      8  C   UNL     1       0.405  10.386  19.313  0.00  0.00    +0.000 C 
ENDROOT
BRANCH   6   9
ATOM      9  C   UNL     1       2.443   7.675  18.136  0.00  0.00    +0.000 A 
ATOM     10  C   UNL     1       3.734   7.631  17.599  0.00  0.00    +0.000 A 
ATOM     11  C   UNL     1       4.320   6.407  17.279  0.00  0.00    +0.000 A 
ATOM     12  C   UNL     1       3.624   5.209  17.486  0.00  0.00    +0.000 A 
ATOM     13  C   UNL     1       4.201   3.971  17.163  0.00  0.00    +0.000 A 
ATOM     14  C   UNL     1       3.498   2.784  17.365  0.00  0.00    +0.000 A 
ATOM     15  C   UNL     1       2.210   2.819  17.893  0.00  0.00    +0.000 A 
ATOM     16  C   UNL     1       1.623   4.042  18.223  0.00  0.00    +0.000 A 
ATOM     17  C   UNL     1       2.315   5.248  18.027  0.00  0.00    +0.000 A 
ATOM     18  C   UNL     1       1.736   6.489  18.351  0.00  0.00    +0.000 A 
ENDBRANCH   6   9
BRANCH   8  19
ATOM     19  C   UNL     1      -0.963  10.658  18.719  0.00  0.00    +0.000 A 
ATOM     20  C   UNL     1      -1.849  11.542  19.357  0.00  0.00    +0.000 A 
ATOM     21  C   UNL     1      -3.110  11.803  18.814  0.00  0.00    +0.000 A 
ATOM     22  C   UNL     1      -3.497  11.183  17.628  0.00  0.00    +0.000 A 
ATOM     23 CL   UNL     1      -5.051  11.502  16.963  0.00  0.00    +0.000 Cl
ATOM     24  C   UNL     1      -2.633  10.307  16.978  0.00  0.00    +0.000 A 
ATOM     25  C   UNL     1      -1.372  10.044  17.522  0.00  0.00    +0.000 A 
ENDBRANCH   8  19
TORSDOF 2
ENDMDL
MODEL 5
REMARK VINA RESULT:      -8.3      1.095      1.123
REMARK  Name = 
REMARK  3 active torsions:
REMARK  status: ('A' for Active; 'I' for Inactive)
REMARK    1  A    between atoms: C_1  and  C_2
REMARK    2  A    between atoms: C_6  and  C_7
REMARK    3  A    between atoms: C_18  and  C_19
REMARK                            x       y       z     vdW  Elec       q    Type
REMARK                         _______ _______ _______ _____ _____    ______ ____
ROOT
ATOM      1  C   UNL     1       1.412   2.773  20.616  0.00  0.00    +0.000 C 
ATOM      2  C   UNL     1       2.758   3.321  20.210  0.00  0.00    +0.000 C 
ATOM      3  O   UNL     1       3.743   2.592  20.086  0.00  0.00    +0.000 OA
ATOM      4  N   UNL     1       2.788   4.675  19.981  0.00  0.00    +0.000 N 
ATOM      5  N   UNL     1       1.754   5.507  20.278  0.00  0.00    +0.000 NA
ATOM      6  C   UNL     1       2.244   6.690  20.087  0.00  0.00    +0.000 C 
ATOM      7  O   UNL     1       3.540   6.783  19.685  0.00  0.00    +0.000 OA
ATOM      8  C   UNL     1       3.964   5.419  19.587  0.00  0.00    +0.000 C 
ENDROOT
BRANCH   6   9
ATOM      9  C   UNL     1       1.521   7.957  20.274  0.00  0.00    +0.000 A 
ATOM     10  C   UNL     1       1.500   8.869  19.212  0.00  0.00    +0.000 A 
ATOM     11  C   UNL     1       0.836  10.087  19.346  0.00  0.00    +0.000 A 
ATOM     12  C   UNL     1       0.185  10.415  20.542  0.00  0.00    +0.000 A 
ATOM     13  C   UNL     1      -0.483  11.641  20.690  0.00  0.00    +0.000 A 
ATOM     14  C   UNL     1      -1.121  11.963  21.887  0.00  0.00    +0.000 A 
ATOM     15  C   UNL     1      -1.101  11.065  22.950  0.00  0.00    +0.000 A 
ATOM     16  C   UNL     1      -0.445   9.840  22.818  0.00  0.00    +0.000 A 
ATOM     17  C   UNL     1       0.204   9.498  21.621  0.00  0.00    +0.000 A 
ATOM     18  C   UNL     1       0.874   8.269  21.473  0.00  0.00    +0.000 A 
ENDBRANCH   6   9
BRANCH   8  19
ATOM     19  C   UNL     1       4.421   5.129  18.170  0.00  0.00    +0.000 A 
ATOM     20  C   UNL     1       4.640   6.184  17.268  0.00  0.00    +0.000 A 
ATOM     21  C   UNL     1       5.067   5.928  15.962  0.00  0.00    +0.000 A 
ATOM     22  C   UNL     1       5.279   4.615  15.546  0.00  0.00    +0.000 A 
ATOM     23 CL   UNL     1       5.800   4.300  13.937  0.00  0.00    +0.000 Cl
ATOM     24  C   UNL     1       5.072   3.556  16.426  0.00  0.00    +0.000 A 
ATOM     25  C   UNL     1       4.643   3.812  17.731  0.00  0.00    +0.000 A 
ENDBRANCH   8  19
TORSDOF 2
ENDMDL
MODEL 6
REMARK VINA RESULT:      -8.2      4.359      8.687
REMARK  Name = 
REMARK  3 active torsions:
REMARK  status: ('A' for Active; 'I' for Inactive)
REMARK    1  A    between atoms: C_1  and  C_2
REMARK    2  A    between atoms: C_6  and  C_7
REMARK    3  A    between atoms: C_18  and  C_19
REMARK                            x       y       z     vdW  Elec       q    Type
REMARK                         _______ _______ _______ _____ _____    ______ ____
ROOT
ATOM      1  C   UNL     1       2.800  13.049  17.952  0.00  0.00    +0.000 C 
ATOM      2  C   UNL     1       1.615  12.544  18.739  0.00  0.00    +0.000 C 
ATOM      3  O   UNL     1       0.873  13.310  19.354  0.00  0.00    +0.000 OA
ATOM      4  N   UNL     1       1.429  11.183  18.698  0.00  0.00    +0.000 N 
ATOM      5  N   UNL     1       2.335  10.320  18.165  0.00  0.00    +0.000 NA
ATOM      6  C   UNL     1       1.875   9.152  18.486  0.00  0.00    +0.000 C 
ATOM      7  O   UNL     1       0.724   9.101  19.208  0.00  0.00    +0.000 OA
ATOM      8  C   UNL     1       0.365  10.476  19.376  0.00  0.00    +0.000 C 
ENDROOT
BRANCH   6   9
ATOM      9  C   UNL     1       2.496   7.864  18.144  0.00  0.00    +0.000 A 
ATOM     10  C   UNL     1       1.974   6.704  18.727  0.00  0.00    +0.000 A 
ATOM     11  C   UNL     1       2.535   5.460  18.441  0.00  0.00    +0.000 A 
ATOM     12  C   UNL     1       3.627   5.356  17.571  0.00  0.00    +0.000 A 
ATOM     13  C   UNL     1       4.204   4.110  17.278  0.00  0.00    +0.000 A 
ATOM     14  C   UNL     1       5.298   4.016  16.417  0.00  0.00    +0.000 A 
ATOM     15  C   UNL     1       5.827   5.166  15.838  0.00  0.00    +0.000 A 
ATOM     16  C   UNL     1       5.263   6.412  16.115  0.00  0.00    +0.000 A 
ATOM     17  C   UNL     1       4.163   6.527  16.979  0.00  0.00    +0.000 A 
ATOM     18  C   UNL     1       3.584   7.776  17.272  0.00  0.00    +0.000 A 
ENDBRANCH   6   9
BRANCH   8  19
ATOM     19  C   UNL     1      -1.007  10.721  18.778  0.00  0.00    +0.000 A 
ATOM     20  C   UNL     1      -1.385  10.076  17.588  0.00  0.00    +0.000 A 
ATOM     21  C   UNL     1      -2.649  10.291  17.032  0.00  0.00    +0.000 A 
ATOM     22  C   UNL     1      -3.546  11.152  17.660  0.00  0.00    +0.000 A 
ATOM     23 CL   UNL     1      -5.101  11.419  16.973  0.00  0.00    +0.000 Cl
ATOM     24  C   UNL     1      -3.193  11.797  18.842  0.00  0.00    +0.000 A 
ATOM     25  C   UNL     1      -1.928  11.584  19.397  0.00  0.00    +0.000 A 
ENDBRANCH   8  19
TORSDOF 2
ENDMDL
MODEL 7
REMARK VINA RESULT:      -8.2      3.704      7.963
REMARK  Name = 
REMARK  3 active torsions:
REMARK  status: ('A' for Active; 'I' for Inactive)
REMARK    1  A    between atoms: C_1  and  C_2
REMARK    2  A    between atoms: C_6  and  C_7
REMARK    3  A    between atoms: C_18  and  C_19
REMARK                            x       y       z     vdW  Elec       q    Type
REMARK                         _______ _______ _______ _____ _____    ______ ____
ROOT
ATOM      1  C   UNL     1       0.466   9.406  22.823  0.00  0.00    +0.000 C 
ATOM      2  C   UNL     1       0.042  10.074  21.539  0.00  0.00    +0.000 C 
ATOM      3  O   UNL     1      -0.794  10.979  21.525  0.00  0.00    +0.000 OA
ATOM      4  N   UNL     1       0.667   9.606  20.408  0.00  0.00    +0.000 N 
ATOM      5  N   UNL     1       1.459   8.501  20.394  0.00  0.00    +0.000 NA
ATOM      6  C   UNL     1       1.692   8.302  19.136  0.00  0.00    +0.000 C 
ATOM      7  O   UNL     1       1.132   9.163  18.244  0.00  0.00    +0.000 OA
ATOM      8  C   UNL     1       0.419  10.092  19.069  0.00  0.00    +0.000 C 
ENDROOT
BRANCH   6   9
ATOM      9  C   UNL     1       2.509   7.215  18.577  0.00  0.00    +0.000 A 
ATOM     10  C   UNL     1       2.346   5.929  19.103  0.00  0.00    +0.000 A 
ATOM     11  C   UNL     1       3.105   4.868  18.611  0.00  0.00    +0.000 A 
ATOM     12  C   UNL     1       4.041   5.076  17.590  0.00  0.00    +0.000 A 
ATOM     13  C   UNL     1       4.814   4.016  17.090  0.00  0.00    +0.000 A 
ATOM     14  C   UNL     1       5.750   4.233  16.079  0.00  0.00    +0.000 A 
ATOM     15  C   UNL     1       5.922   5.511  15.554  0.00  0.00    +0.000 A 
ATOM     16  C   UNL     1       5.159   6.574  16.037  0.00  0.00    +0.000 A 
ATOM     17  C   UNL     1       4.213   6.376  17.055  0.00  0.00    +0.000 A 
ATOM     18  C   UNL     1       3.437   7.438  17.555  0.00  0.00    +0.000 A 
ENDBRANCH   6   9
BRANCH   8  19
ATOM     19  C   UNL     1       0.940  11.494  18.823  0.00  0.00    +0.000 A 
ATOM     20  C   UNL     1       0.084  12.600  18.957  0.00  0.00    +0.000 A 
ATOM     21  C   UNL     1       0.556  13.898  18.738  0.00  0.00    +0.000 A 
ATOM     22  C   UNL     1       1.888  14.101  18.383  0.00  0.00    +0.000 A 
ATOM     23 CL   UNL     1       2.467  15.698  18.110  0.00  0.00    +0.000 Cl
ATOM     24  C   UNL     1       2.753  13.019  18.249  0.00  0.00    +0.000 A 
ATOM     25  C   UNL     1       2.281  11.721  18.466  0.00  0.00    +0.000 A 
ENDBRANCH   8  19
TORSDOF 2
ENDMDL
MODEL 8
REMARK VINA RESULT:      -8.1      4.387      8.332
REMARK  Name = 
REMARK  3 active torsions:
REMARK  status: ('A' for Active; 'I' for Inactive)
REMARK    1  A    between atoms: C_1  and  C_2
REMARK    2  A    between atoms: C_6  and  C_7
REMARK    3  A    between atoms: C_18  and  C_19
REMARK                            x       y       z     vdW  Elec       q    Type
REMARK                         _______ _______ _______ _____ _____    ______ ____
ROOT
ATOM      1  C   UNL     1       2.767  12.764  17.833  0.00  0.00    +0.000 C 
ATOM      2  C   UNL     1       1.548  12.521  18.688  0.00  0.00    +0.000 C 
ATOM      3  O   UNL     1       0.860  13.450  19.113  0.00  0.00    +0.000 OA
ATOM      4  N   UNL     1       1.266  11.199  18.936  0.00  0.00    +0.000 N 
ATOM      5  N   UNL     1       2.111  10.182  18.615  0.00  0.00    +0.000 NA
ATOM      6  C   UNL     1       1.570   9.144  19.169  0.00  0.00    +0.000 C 
ATOM      7  O   UNL     1       0.416   9.327  19.865  0.00  0.00    +0.000 OA
ATOM      8  C   UNL     1       0.154  10.728  19.730  0.00  0.00    +0.000 C 
ENDROOT
BRANCH   6   9
ATOM      9  C   UNL     1       2.099   7.773  19.120  0.00  0.00    +0.000 A 
ATOM     10  C   UNL     1       2.886   7.407  18.022  0.00  0.00    +0.000 A 
ATOM     11  C   UNL     1       3.402   6.116  17.927  0.00  0.00    +0.000 A 
ATOM     12  C   UNL     1       3.139   5.170  18.926  0.00  0.00    +0.000 A 
ATOM     13  C   UNL     1       3.649   3.865  18.839  0.00  0.00    +0.000 A 
ATOM     14  C   UNL     1       3.375   2.926  19.833  0.00  0.00    +0.000 A 
ATOM     15  C   UNL     1       2.589   3.280  20.926  0.00  0.00    +0.000 A 
ATOM     16  C   UNL     1       2.077   4.574  21.030  0.00  0.00    +0.000 A 
ATOM     17  C   UNL     1       2.341   5.533  20.039  0.00  0.00    +0.000 A 
ATOM     18  C   UNL     1       1.830   6.841  20.126  0.00  0.00    +0.000 A 
ENDBRANCH   6   9
BRANCH   8  19
ATOM     19  C   UNL     1      -1.196  10.932  19.070  0.00  0.00    +0.000 A 
ATOM     20  C   UNL     1      -1.535  10.206  17.916  0.00  0.00    +0.000 A 
ATOM     21  C   UNL     1      -2.779  10.383  17.303  0.00  0.00    +0.000 A 
ATOM     22  C   UNL     1      -3.694  11.286  17.839  0.00  0.00    +0.000 A 
ATOM     23 CL   UNL     1      -5.223  11.506  17.081  0.00  0.00    +0.000 Cl
ATOM     24  C   UNL     1      -3.379  12.012  18.984  0.00  0.00    +0.000 A 
ATOM     25  C   UNL     1      -2.134  11.837  19.595  0.00  0.00    +0.000 A 
ENDBRANCH   8  19
TORSDOF 2
ENDMDL
MODEL 9
REMARK VINA RESULT:      -8.1      3.831      8.100
REMARK  Name = 
REMARK  3 active torsions:
REMARK  status: ('A' for Active; 'I' for Inactive)
REMARK    1  A    between atoms: C_1  and  C_2
REMARK    2  A    between atoms: C_6  and  C_7
REMARK    3  A    between atoms: C_18  and  C_19
REMARK                            x       y       z     vdW  Elec       q    Type
REMARK                         _______ _______ _______ _____ _____    ______ ____
ROOT
ATOM      1  C   UNL     1       0.064   9.648  23.042  0.00  0.00    +0.000 C 
ATOM      2  C   UNL     1      -0.315  10.287  21.729  0.00  0.00    +0.000 C 
ATOM      3  O   UNL     1      -1.179  11.161  21.661  0.00  0.00    +0.000 OA
ATOM      4  N   UNL     1       0.383   9.829  20.638  0.00  0.00    +0.000 N 
ATOM      5  N   UNL     1       1.213   8.752  20.679  0.00  0.00    +0.000 NA
ATOM      6  C   UNL     1       1.518   8.548  19.437  0.00  0.00    +0.000 C 
ATOM      7  O   UNL     1       0.976   9.379  18.507  0.00  0.00    +0.000 OA
ATOM      8  C   UNL     1       0.189  10.291  19.282  0.00  0.00    +0.000 C 
ENDROOT
BRANCH   6   9
ATOM      9  C   UNL     1       2.400   7.484  18.934  0.00  0.00    +0.000 A 
ATOM     10  C   UNL     1       2.447   6.277  19.641  0.00  0.00    +0.000 A 
ATOM     11  C   UNL     1       3.276   5.242  19.208  0.00  0.00    +0.000 A 
ATOM     12  C   UNL     1       4.071   5.399  18.066  0.00  0.00    +0.000 A 
ATOM     13  C   UNL     1       4.913   4.366  17.624  0.00  0.00    +0.000 A 
ATOM     14  C   UNL     1       5.708   4.533  16.490  0.00  0.00    +0.000 A 
ATOM     15  C   UNL     1       5.671   5.732  15.785  0.00  0.00    +0.000 A 
ATOM     16  C   UNL     1       4.837   6.767  16.209  0.00  0.00    +0.000 A 
ATOM     17  C   UNL     1       4.030   6.619  17.348  0.00  0.00    +0.000 A 
ATOM     18  C   UNL     1       3.186   7.654  17.791  0.00  0.00    +0.000 A 
ENDBRANCH   6   9
BRANCH   8  19
ATOM     19  C   UNL     1       0.673  11.708  19.045  0.00  0.00    +0.000 A 
ATOM     20  C   UNL     1       2.049  11.979  18.951  0.00  0.00    +0.000 A 
ATOM     21  C   UNL     1       2.505  13.282  18.728  0.00  0.00    +0.000 A 
ATOM     22  C   UNL     1       1.590  14.324  18.597  0.00  0.00    +0.000 A 
ATOM     23 CL   UNL     1       2.152  15.927  18.327  0.00  0.00    +0.000 Cl
ATOM     24  C   UNL     1       0.223  14.076  18.683  0.00  0.00    +0.000 A 
ATOM     25  C   UNL     1      -0.233  12.774  18.908  0.00  0.00    +0.000 A 
ENDBRANCH   8  19
TORSDOF 2
ENDMDL
