MODEL 1
REMARK VINA RESULT:      -7.7      0.000      0.000
REMARK  Name = 
REMARK  10 active torsions:
REMARK  status: ('A' for Active; 'I' for Inactive)
REMARK    1  A    between atoms: C_1  and  O_2
REMARK    2  A    between atoms: O_2  and  C_3
REMARK    3  A    between atoms: C_6  and  C_7
REMARK    4  A    between atoms: C_8  and  C_9
REMARK    5  A    between atoms: C_11  and  O_12
REMARK    6  A    between atoms: O_12  and  C_13
REMARK    7  A    between atoms: C_14  and  O_15
REMARK    8  A    between atoms: O_15  and  C_16
REMARK    9  A    between atoms: C_17  and  O_18
REMARK   10  A    between atoms: O_18  and  C_19
REMARK                            x       y       z     vdW  Elec       q    Type
REMARK                         _______ _______ _______ _____ _____    ______ ____
ROOT
ATOM      1  C   UNL     1       3.756   5.404  19.276  0.00  0.00    +0.000 C 
ATOM      2  C   UNL     1       2.640   5.950  19.887  0.00  0.00    +0.000 C 
ATOM      3  C   UNL     1       1.730   5.041  20.765  0.00  0.00    +0.000 C 
ATOM      4  C   UNL     1       2.211   3.668  20.556  0.00  0.00    +0.000 C 
ATOM      5  C   UNL     1       3.401   3.972  19.752  0.00  0.00    +0.000 C 
ENDROOT
BRANCH   1   9
ATOM      6  C   UNL     1       6.878   5.105  16.375  0.00  0.00    +0.000 A 
ATOM      7  C   UNL     1       5.805   4.208  16.277  0.00  0.00    +0.000 A 
ATOM      8  C   UNL     1       4.884   4.010  17.349  0.00  0.00    +0.000 A 
ATOM      9  C   UNL     1       5.059   4.704  18.569  0.00  0.00    +0.000 A 
ATOM     10  C   UNL     1       6.346   5.328  18.726  0.00  0.00    +0.000 A 
ATOM     11  C   UNL     1       7.119   5.697  17.600  0.00  0.00    +0.000 A 
BRANCH   6  13
ATOM     12  C   UNL     1       7.065   4.799  14.039  0.00  0.00    +0.000 C 
ATOM     13  O   UNL     1       7.576   5.409  15.232  0.00  0.00    +0.000 OA
ENDBRANCH   6  13
ENDBRANCH   1   9
BRANCH   2  14
ATOM     14  C   UNL     1       2.055   7.340  19.959  0.00  0.00    +0.000 A 
ATOM     15  C   UNL     1       2.106   8.273  18.921  0.00  0.00    +0.000 A 
ATOM     16  C   UNL     1       1.342   9.467  18.952  0.00  0.00    +0.000 A 
ATOM     17  C   UNL     1       0.418   9.713  20.007  0.00  0.00    +0.000 A 
ATOM     18  C   UNL     1       0.349   8.777  21.058  0.00  0.00    +0.000 A 
ATOM     19  C   UNL     1       1.165   7.628  21.014  0.00  0.00    +0.000 A 
BRANCH  16  20
ATOM     20  O   UNL     1       1.557  10.313  17.879  0.00  0.00    +0.000 OA
ATOM     21  C   UNL     1       2.352  11.485  18.125  0.00  0.00    +0.000 C 
ENDBRANCH  16  20
BRANCH  17  22
ATOM     22  O   UNL     1      -0.358  10.839  19.893  0.00  0.00    +0.000 OA
ATOM     23  C   UNL     1      -1.527  10.851  19.083  0.00  0.00    +0.000 C 
ENDBRANCH  17  22
BRANCH  18  24
ATOM     24  O   UNL     1      -0.531   9.012  22.081  0.00  0.00    +0.000 OA
ATOM     25  C   UNL     1      -0.059   9.610  23.278  0.00  0.00    +0.000 C 
ENDBRANCH  18  24
ENDBRANCH   2  14
TORSDOF 6
ENDMDL
MODEL 2
REMARK VINA RESULT:      -7.5      2.595      8.444
REMARK  Name = 
REMARK  10 active torsions:
REMARK  status: ('A' for Active; 'I' for Inactive)
REMARK    1  A    between atoms: C_1  and  O_2
REMARK    2  A    between atoms: O_2  and  C_3
REMARK    3  A    between atoms: C_6  and  C_7
REMARK    4  A    between atoms: C_8  and  C_9
REMARK    5  A    between atoms: C_11  and  O_12
REMARK    6  A    between atoms: O_12  and  C_13
REMARK    7  A    between atoms: C_14  and  O_15
REMARK    8  A    between atoms: O_15  and  C_16
REMARK    9  A    between atoms: C_17  and  O_18
REMARK   10  A    between atoms: O_18  and  C_19
REMARK                            x       y       z     vdW  Elec       q    Type
REMARK                         _______ _______ _______ _____ _____    ______ ____
ROOT
ATOM      1  C   UNL     1       1.603   8.671  20.308  0.00  0.00    +0.000 C 
ATOM      2  C   UNL     1       1.913   7.818  19.262  0.00  0.00    +0.000 C 
ATOM      3  C   UNL     1       2.020   8.391  17.818  0.00  0.00    +0.000 C 
ATOM      4  C   UNL     1       1.536   9.775  17.897  0.00  0.00    +0.000 C 
ATOM      5  C   UNL     1       1.384   9.873  19.354  0.00  0.00    +0.000 C 
ENDROOT
BRANCH   1   9
ATOM      6  C   UNL     1      -1.070  10.892  22.794  0.00  0.00    +0.000 A 
ATOM      7  C   UNL     1      -0.343  11.594  21.821  0.00  0.00    +0.000 A 
ATOM      8  C   UNL     1       0.786  11.023  21.162  0.00  0.00    +0.000 A 
ATOM      9  C   UNL     1       1.224   9.724  21.506  0.00  0.00    +0.000 A 
ATOM     10  C   UNL     1       0.665   9.205  22.727  0.00  0.00    +0.000 A 
ATOM     11  C   UNL     1      -0.579   9.671  23.214  0.00  0.00    +0.000 A 
BRANCH   6  13
ATOM     12  C   UNL     1      -2.313  12.847  23.258  0.00  0.00    +0.000 C 
ATOM     13  O   UNL     1      -2.269  11.415  23.210  0.00  0.00    +0.000 OA
ENDBRANCH   6  13
ENDBRANCH   1   9
BRANCH   2  14
ATOM     14  C   UNL     1       2.248   6.349  19.168  0.00  0.00    +0.000 A 
ATOM     15  C   UNL     1       1.628   5.348  19.920  0.00  0.00    +0.000 A 
ATOM     16  C   UNL     1       1.810   3.973  19.625  0.00  0.00    +0.000 A 
ATOM     17  C   UNL     1       2.560   3.565  18.486  0.00  0.00    +0.000 A 
ATOM     18  C   UNL     1       3.185   4.564  17.714  0.00  0.00    +0.000 A 
ATOM     19  C   UNL     1       3.022   5.918  18.072  0.00  0.00    +0.000 A 
BRANCH  16  20
ATOM     20  O   UNL     1       1.181   3.111  20.505  0.00  0.00    +0.000 OA
ATOM     21  C   UNL     1       1.867   2.821  21.734  0.00  0.00    +0.000 C 
ENDBRANCH  16  20
BRANCH  17  22
ATOM     22  O   UNL     1       2.586   2.219  18.218  0.00  0.00    +0.000 OA
ATOM     23  C   UNL     1       3.669   1.402  18.648  0.00  0.00    +0.000 C 
ENDBRANCH  17  22
BRANCH  18  24
ATOM     24  O   UNL     1       3.917   4.177  16.621  0.00  0.00    +0.000 OA
ATOM     25  C   UNL     1       5.331   4.121  16.719  0.00  0.00    +0.000 C 
ENDBRANCH  18  24
ENDBRANCH   2  14
TORSDOF 6
ENDMDL
MODEL 3
REMARK VINA RESULT:      -7.5      2.491      8.437
REMARK  Name = 
REMARK  10 active torsions:
REMARK  status: ('A' for Active; 'I' for Inactive)
REMARK    1  A    between atoms: C_1  and  O_2
REMARK    2  A    between atoms: O_2  and  C_3
REMARK    3  A    between atoms: C_6  and  C_7
REMARK    4  A    between atoms: C_8  and  C_9
REMARK    5  A    between atoms: C_11  and  O_12
REMARK    6  A    between atoms: O_12  and  C_13
REMARK    7  A    between atoms: C_14  and  O_15
REMARK    8  A    between atoms: O_15  and  C_16
REMARK    9  A    between atoms: C_17  and  O_18
REMARK   10  A    between atoms: O_18  and  C_19
REMARK                            x       y       z     vdW  Elec       q    Type
REMARK                         _______ _______ _______ _____ _____    ______ ____
ROOT
ATOM      1  C   UNL     1       1.041   8.410  19.944  0.00  0.00    +0.000 C 
ATOM      2  C   UNL     1       2.054   7.762  19.258  0.00  0.00    +0.000 C 
ATOM      3  C   UNL     1       2.712   8.461  18.031  0.00  0.00    +0.000 C 
ATOM      4  C   UNL     1       1.896   9.653  17.762  0.00  0.00    +0.000 C 
ATOM      5  C   UNL     1       1.012   9.583  18.932  0.00  0.00    +0.000 C 
ENDROOT
BRANCH   1   9
ATOM      6  C   UNL     1      -0.574  11.549  22.351  0.00  0.00    +0.000 A 
ATOM      7  C   UNL     1      -0.491  10.266  22.915  0.00  0.00    +0.000 A 
ATOM      8  C   UNL     1      -0.269   9.103  22.119  0.00  0.00    +0.000 A 
ATOM      9  C   UNL     1      -0.160   9.217  20.714  0.00  0.00    +0.000 A 
ATOM     10  C   UNL     1      -0.593  10.481  20.179  0.00  0.00    +0.000 A 
ATOM     11  C   UNL     1      -0.583  11.651  20.973  0.00  0.00    +0.000 A 
BRANCH   6  13
ATOM     12  C   UNL     1      -1.825  13.277  23.367  0.00  0.00    +0.000 C 
ATOM     13  O   UNL     1      -0.557  12.631  23.196  0.00  0.00    +0.000 OA
ENDBRANCH   6  13
ENDBRANCH   1   9
BRANCH   2  14
ATOM     14  C   UNL     1       2.778   6.450  19.443  0.00  0.00    +0.000 A 
ATOM     15  C   UNL     1       2.410   5.468  20.366  0.00  0.00    +0.000 A 
ATOM     16  C   UNL     1       2.972   4.168  20.337  0.00  0.00    +0.000 A 
ATOM     17  C   UNL     1       3.870   3.785  19.299  0.00  0.00    +0.000 A 
ATOM     18  C   UNL     1       4.245   4.762  18.356  0.00  0.00    +0.000 A 
ATOM     19  C   UNL     1       3.702   6.060  18.452  0.00  0.00    +0.000 A 
BRANCH  16  20
ATOM     20  O   UNL     1       2.550   3.337  21.359  0.00  0.00    +0.000 OA
ATOM     21  C   UNL     1       1.206   2.835  21.276  0.00  0.00    +0.000 C 
ENDBRANCH  16  20
BRANCH  17  22
ATOM     22  O   UNL     1       4.273   2.474  19.289  0.00  0.00    +0.000 OA
ATOM     23  C   UNL     1       3.581   1.494  18.525  0.00  0.00    +0.000 C 
ENDBRANCH  17  22
BRANCH  18  24
ATOM     24  O   UNL     1       5.116   4.404  17.361  0.00  0.00    +0.000 OA
ATOM     25  C   UNL     1       6.419   4.965  17.344  0.00  0.00    +0.000 C 
ENDBRANCH  18  24
ENDBRANCH   2  14
TORSDOF 6
ENDMDL
MODEL 4
REMARK VINA RESULT:      -7.4      2.448      8.133
REMARK  Name = 
REMARK  10 active torsions:
REMARK  status: ('A' for Active; 'I' for Inactive)
REMARK    1  A    between atoms: C_1  and  O_2
REMARK    2  A    between atoms: O_2  and  C_3
REMARK    3  A    between atoms: C_6  and  C_7
REMARK    4  A    between atoms: C_8  and  C_9
REMARK    5  A    between atoms: C_11  and  O_12
REMARK    6  A    between atoms: O_12  and  C_13
REMARK    7  A    between atoms: C_14  and  O_15
REMARK    8  A    between atoms: O_15  and  C_16
REMARK    9  A    between atoms: C_17  and  O_18
REMARK   10  A    between atoms: O_18  and  C_19
REMARK                            x       y       z     vdW  Elec       q    Type
REMARK                         _______ _______ _______ _____ _____    ______ ____
ROOT
ATOM      1  C   UNL     1       1.521   8.883  20.408  0.00  0.00    +0.000 C 
ATOM      2  C   UNL     1       1.852   8.035  19.364  0.00  0.00    +0.000 C 
ATOM      3  C   UNL     1       1.701   8.538  17.898  0.00  0.00    +0.000 C 
ATOM      4  C   UNL     1       1.004   9.828  17.983  0.00  0.00    +0.000 C 
ATOM      5  C   UNL     1       0.999   9.979  19.444  0.00  0.00    +0.000 C 
ENDROOT
BRANCH   1   9
ATOM      6  C   UNL     1      -1.226  11.078  22.835  0.00  0.00    +0.000 A 
ATOM      7  C   UNL     1      -0.471  11.790  21.891  0.00  0.00    +0.000 A 
ATOM      8  C   UNL     1       0.677  11.226  21.259  0.00  0.00    +0.000 A 
ATOM      9  C   UNL     1       1.107   9.924  21.604  0.00  0.00    +0.000 A 
ATOM     10  C   UNL     1       0.513   9.394  22.803  0.00  0.00    +0.000 A 
ATOM     11  C   UNL     1      -0.745   9.854  23.259  0.00  0.00    +0.000 A 
BRANCH   6  13
ATOM     12  C   UNL     1      -2.990  12.563  22.318  0.00  0.00    +0.000 C 
ATOM     13  O   UNL     1      -2.437  11.597  23.221  0.00  0.00    +0.000 OA
ENDBRANCH   6  13
ENDBRANCH   1   9
BRANCH   2  14
ATOM     14  C   UNL     1       2.416   6.637  19.283  0.00  0.00    +0.000 A 
ATOM     15  C   UNL     1       3.467   6.257  18.446  0.00  0.00    +0.000 A 
ATOM     16  C   UNL     1       4.110   5.001  18.579  0.00  0.00    +0.000 A 
ATOM     17  C   UNL     1       3.766   4.114  19.640  0.00  0.00    +0.000 A 
ATOM     18  C   UNL     1       2.712   4.488  20.497  0.00  0.00    +0.000 A 
ATOM     19  C   UNL     1       2.064   5.724  20.298  0.00  0.00    +0.000 A 
BRANCH  16  20
ATOM     20  O   UNL     1       5.086   4.753  17.630  0.00  0.00    +0.000 OA
ATOM     21  C   UNL     1       4.656   4.159  16.395  0.00  0.00    +0.000 C 
ENDBRANCH  16  20
BRANCH  17  22
ATOM     22  O   UNL     1       4.519   2.974  19.755  0.00  0.00    +0.000 OA
ATOM     23  C   UNL     1       4.081   1.740  19.198  0.00  0.00    +0.000 C 
ENDBRANCH  17  22
BRANCH  18  24
ATOM     24  O   UNL     1       2.370   3.636  21.514  0.00  0.00    +0.000 OA
ATOM     25  C   UNL     1       1.263   2.765  21.345  0.00  0.00    +0.000 C 
ENDBRANCH  18  24
ENDBRANCH   2  14
TORSDOF 6
ENDMDL
MODEL 5
REMARK VINA RESULT:      -7.3      0.901      1.116
REMARK  Name = 
REMARK  10 active torsions:
REMARK  status: ('A' for Active; 'I' for Inactive)
REMARK    1  A    between atoms: C_1  and  O_2
REMARK    2  A    between atoms: O_2  and  C_3
REMARK    3  A    between atoms: C_6  and  C_7
REMARK    4  A    between atoms: C_8  and  C_9
REMARK    5  A    between atoms: C_11  and  O_12
REMARK    6  A    between atoms: O_12  and  C_13
REMARK    7  A    between atoms: C_14  and  O_15
REMARK    8  A    between atoms: O_15  and  C_16
REMARK    9  A    between atoms: C_17  and  O_18
REMARK   10  A    between atoms: O_18  and  C_19
REMARK                            x       y       z     vdW  Elec       q    Type
REMARK                         _______ _______ _______ _____ _____    ______ ____
ROOT
ATOM      1  C   UNL     1       3.581   5.577  19.262  0.00  0.00    +0.000 C 
ATOM      2  C   UNL     1       2.490   6.170  19.874  0.00  0.00    +0.000 C 
ATOM      3  C   UNL     1       1.493   5.283  20.678  0.00  0.00    +0.000 C 
ATOM      4  C   UNL     1       1.881   3.893  20.406  0.00  0.00    +0.000 C 
ATOM      5  C   UNL     1       3.112   4.152  19.649  0.00  0.00    +0.000 C 
ENDROOT
BRANCH   1   9
ATOM      6  C   UNL     1       6.713   5.177  16.384  0.00  0.00    +0.000 A 
ATOM      7  C   UNL     1       5.592   4.343  16.253  0.00  0.00    +0.000 A 
ATOM      8  C   UNL     1       4.651   4.171  17.311  0.00  0.00    +0.000 A 
ATOM      9  C   UNL     1       4.850   4.823  18.549  0.00  0.00    +0.000 A 
ATOM     10  C   UNL     1       6.169   5.370  18.734  0.00  0.00    +0.000 A 
ATOM     11  C   UNL     1       6.973   5.724  17.626  0.00  0.00    +0.000 A 
BRANCH   6  13
ATOM     12  C   UNL     1       7.003   4.790  14.070  0.00  0.00    +0.000 C 
ATOM     13  O   UNL     1       7.439   5.470  15.255  0.00  0.00    +0.000 OA
ENDBRANCH   6  13
ENDBRANCH   1   9
BRANCH   2  14
ATOM     14  C   UNL     1       2.003   7.593  20.009  0.00  0.00    +0.000 A 
ATOM     15  C   UNL     1       1.498   8.357  18.955  0.00  0.00    +0.000 A 
ATOM     16  C   UNL     1       0.840   9.593  19.178  0.00  0.00    +0.000 A 
ATOM     17  C   UNL     1       0.586  10.055  20.501  0.00  0.00    +0.000 A 
ATOM     18  C   UNL     1       1.084   9.290  21.574  0.00  0.00    +0.000 A 
ATOM     19  C   UNL     1       1.779   8.093  21.307  0.00  0.00    +0.000 A 
BRANCH  16  20
ATOM     20  O   UNL     1       0.458  10.256  18.025  0.00  0.00    +0.000 OA
ATOM     21  C   UNL     1      -0.904  10.088  17.599  0.00  0.00    +0.000 C 
ENDBRANCH  16  20
BRANCH  17  22
ATOM     22  O   UNL     1      -0.155  11.204  20.618  0.00  0.00    +0.000 OA
ATOM     23  C   UNL     1       0.469  12.476  20.745  0.00  0.00    +0.000 C 
ENDBRANCH  17  22
BRANCH  18  24
ATOM     24  O   UNL     1       0.852   9.735  22.850  0.00  0.00    +0.000 OA
ATOM     25  C   UNL     1      -0.456   9.636  23.392  0.00  0.00    +0.000 C 
ENDBRANCH  18  24
ENDBRANCH   2  14
TORSDOF 6
ENDMDL
MODEL 6
REMARK VINA RESULT:      -7.2      2.103      7.966
REMARK  Name = 
REMARK  10 active torsions:
REMARK  status: ('A' for Active; 'I' for Inactive)
REMARK    1  A    between atoms: C_1  and  O_2
REMARK    2  A    between atoms: O_2  and  C_3
REMARK    3  A    between atoms: C_6  and  C_7
REMARK    4  A    between atoms: C_8  and  C_9
REMARK    5  A    between atoms: C_11  and  O_12
REMARK    6  A    between atoms: O_12  and  C_13
REMARK    7  A    between atoms: C_14  and  O_15
REMARK    8  A    between atoms: O_15  and  C_16
REMARK    9  A    between atoms: C_17  and  O_18
REMARK   10  A    between atoms: O_18  and  C_19
REMARK                            x       y       z     vdW  Elec       q    Type
REMARK                         _______ _______ _______ _____ _____    ______ ____
ROOT
ATOM      1  C   UNL     1       1.538   8.843  18.609  0.00  0.00    +0.000 C 
ATOM      2  C   UNL     1       2.225   7.660  18.826  0.00  0.00    +0.000 C 
ATOM      3  C   UNL     1       2.084   6.938  20.199  0.00  0.00    +0.000 C 
ATOM      4  C   UNL     1       1.348   7.867  21.068  0.00  0.00    +0.000 C 
ATOM      5  C   UNL     1       1.021   8.892  20.069  0.00  0.00    +0.000 C 
ENDROOT
BRANCH   1   9
ATOM      6  C   UNL     1      -1.075  11.992  19.837  0.00  0.00    +0.000 A 
ATOM      7  C   UNL     1      -1.554  11.074  18.890  0.00  0.00    +0.000 A 
ATOM      8  C   UNL     1      -0.684  10.189  18.187  0.00  0.00    +0.000 A 
ATOM      9  C   UNL     1       0.712  10.244  18.409  0.00  0.00    +0.000 A 
ATOM     10  C   UNL     1       1.162  11.416  19.112  0.00  0.00    +0.000 A 
ATOM     11  C   UNL     1       0.293  12.129  19.972  0.00  0.00    +0.000 A 
BRANCH   6  13
ATOM     12  C   UNL     1      -3.330  12.636  20.128  0.00  0.00    +0.000 C 
ATOM     13  O   UNL     1      -1.988  12.640  20.632  0.00  0.00    +0.000 OA
ENDBRANCH   6  13
ENDBRANCH   1   9
BRANCH   2  14
ATOM     14  C   UNL     1       3.120   6.792  17.974  0.00  0.00    +0.000 A 
ATOM     15  C   UNL     1       4.374   7.181  17.497  0.00  0.00    +0.000 A 
ATOM     16  C   UNL     1       5.268   6.253  16.908  0.00  0.00    +0.000 A 
ATOM     17  C   UNL     1       4.955   4.864  16.868  0.00  0.00    +0.000 A 
ATOM     18  C   UNL     1       3.698   4.456  17.354  0.00  0.00    +0.000 A 
ATOM     19  C   UNL     1       2.815   5.419  17.884  0.00  0.00    +0.000 A 
BRANCH  16  20
ATOM     20  O   UNL     1       6.439   6.811  16.426  0.00  0.00    +0.000 OA
ATOM     21  C   UNL     1       7.400   7.248  17.401  0.00  0.00    +0.000 C 
ENDBRANCH  16  20
BRANCH  17  22
ATOM     22  O   UNL     1       5.930   4.029  16.382  0.00  0.00    +0.000 OA
ATOM     23  C   UNL     1       6.108   3.838  14.984  0.00  0.00    +0.000 C 
ENDBRANCH  17  22
BRANCH  18  24
ATOM     24  O   UNL     1       3.386   3.121  17.310  0.00  0.00    +0.000 OA
ATOM     25  C   UNL     1       3.527   2.338  18.484  0.00  0.00    +0.000 C 
ENDBRANCH  18  24
ENDBRANCH   2  14
TORSDOF 6
ENDMDL
MODEL 7
REMARK VINA RESULT:      -7.1      1.104      1.219
REMARK  Name = 
REMARK  10 active torsions:
REMARK  status: ('A' for Active; 'I' for Inactive)
REMARK    1  A    between atoms: C_1  and  O_2
REMARK    2  A    between atoms: O_2  and  C_3
REMARK    3  A    between atoms: C_6  and  C_7
REMARK    4  A    between atoms: C_8  and  C_9
REMARK    5  A    between atoms: C_11  and  O_12
REMARK    6  A    between atoms: O_12  and  C_13
REMARK    7  A    between atoms: C_14  and  O_15
REMARK    8  A    between atoms: O_15  and  C_16
REMARK    9  A    between atoms: C_17  and  O_18
REMARK   10  A    between atoms: O_18  and  C_19
REMARK                            x       y       z     vdW  Elec       q    Type
REMARK                         _______ _______ _______ _____ _____    ______ ____
ROOT
ATOM      1  C   UNL     1       3.588   6.025  18.941  0.00  0.00    +0.000 C 
ATOM      2  C   UNL     1       2.536   6.464  19.727  0.00  0.00    +0.000 C 
ATOM      3  C   UNL     1       1.817   5.454  20.670  0.00  0.00    +0.000 C 
ATOM      4  C   UNL     1       2.349   4.130  20.323  0.00  0.00    +0.000 C 
ATOM      5  C   UNL     1       3.394   4.552  19.382  0.00  0.00    +0.000 C 
ENDROOT
BRANCH   1   9
ATOM      6  C   UNL     1       5.383   4.616  15.329  0.00  0.00    +0.000 A 
ATOM      7  C   UNL     1       5.132   3.681  16.345  0.00  0.00    +0.000 A 
ATOM      8  C   UNL     1       4.835   4.079  17.682  0.00  0.00    +0.000 A 
ATOM      9  C   UNL     1       4.821   5.450  18.026  0.00  0.00    +0.000 A 
ATOM     10  C   UNL     1       5.416   6.321  17.047  0.00  0.00    +0.000 A 
ATOM     11  C   UNL     1       5.483   5.948  15.684  0.00  0.00    +0.000 A 
BRANCH   6  13
ATOM     12  C   UNL     1       6.718   4.275  13.409  0.00  0.00    +0.000 C 
ATOM     13  O   UNL     1       5.431   4.168  14.032  0.00  0.00    +0.000 OA
ENDBRANCH   6  13
ENDBRANCH   1   9
BRANCH   2  14
ATOM     14  C   UNL     1       1.881   7.805  19.955  0.00  0.00    +0.000 A 
ATOM     15  C   UNL     1       1.811   8.821  19.000  0.00  0.00    +0.000 A 
ATOM     16  C   UNL     1       0.986   9.960  19.180  0.00  0.00    +0.000 A 
ATOM     17  C   UNL     1       0.122  10.062  20.308  0.00  0.00    +0.000 A 
ATOM     18  C   UNL     1       0.177   9.040  21.277  0.00  0.00    +0.000 A 
ATOM     19  C   UNL     1       1.050   7.950  21.084  0.00  0.00    +0.000 A 
BRANCH  16  20
ATOM     20  O   UNL     1       1.081  10.903  18.173  0.00  0.00    +0.000 OA
ATOM     21  C   UNL     1       2.088  11.916  18.325  0.00  0.00    +0.000 C 
ENDBRANCH  16  20
BRANCH  17  22
ATOM     22  O   UNL     1      -0.721  11.144  20.340  0.00  0.00    +0.000 OA
ATOM     23  C   UNL     1      -0.366  12.335  21.032  0.00  0.00    +0.000 C 
ENDBRANCH  17  22
BRANCH  18  24
ATOM     24  O   UNL     1      -0.645   9.137  22.370  0.00  0.00    +0.000 OA
ATOM     25  C   UNL     1      -0.099   9.547  23.613  0.00  0.00    +0.000 C 
ENDBRANCH  18  24
ENDBRANCH   2  14
TORSDOF 6
ENDMDL
MODEL 8
REMARK VINA RESULT:      -7.1      1.387      2.839
REMARK  Name = 
REMARK  10 active torsions:
REMARK  status: ('A' for Active; 'I' for Inactive)
REMARK    1  A    between atoms: C_1  and  O_2
REMARK    2  A    between atoms: O_2  and  C_3
REMARK    3  A    between atoms: C_6  and  C_7
REMARK    4  A    between atoms: C_8  and  C_9
REMARK    5  A    between atoms: C_11  and  O_12
REMARK    6  A    between atoms: O_12  and  C_13
REMARK    7  A    between atoms: C_14  and  O_15
REMARK    8  A    between atoms: O_15  and  C_16
REMARK    9  A    between atoms: C_17  and  O_18
REMARK   10  A    between atoms: O_18  and  C_19
REMARK                            x       y       z     vdW  Elec       q    Type
REMARK                         _______ _______ _______ _____ _____    ______ ____
ROOT
ATOM      1  C   UNL     1       3.348   6.412  19.151  0.00  0.00    +0.000 C 
ATOM      2  C   UNL     1       2.266   6.798  19.924  0.00  0.00    +0.000 C 
ATOM      3  C   UNL     1       1.526   5.730  20.784  0.00  0.00    +0.000 C 
ATOM      4  C   UNL     1       2.084   4.432  20.382  0.00  0.00    +0.000 C 
ATOM      5  C   UNL     1       3.155   4.916  19.503  0.00  0.00    +0.000 C 
ENDROOT
BRANCH   1   9
ATOM      6  C   UNL     1       5.225   4.985  15.588  0.00  0.00    +0.000 A 
ATOM      7  C   UNL     1       5.065   4.084  16.651  0.00  0.00    +0.000 A 
ATOM      8  C   UNL     1       4.747   4.520  17.972  0.00  0.00    +0.000 A 
ATOM      9  C   UNL     1       4.617   5.901  18.249  0.00  0.00    +0.000 A 
ATOM     10  C   UNL     1       5.126   6.769  17.220  0.00  0.00    +0.000 A 
ATOM     11  C   UNL     1       5.213   6.336  15.877  0.00  0.00    +0.000 A 
BRANCH   6  13
ATOM     12  C   UNL     1       6.633   4.261  13.834  0.00  0.00    +0.000 C 
ATOM     13  O   UNL     1       5.300   4.478  14.314  0.00  0.00    +0.000 OA
ENDBRANCH   6  13
ENDBRANCH   1   9
BRANCH   2  14
ATOM     14  C   UNL     1       1.589   8.118  20.203  0.00  0.00    +0.000 A 
ATOM     15  C   UNL     1       1.222   8.564  21.474  0.00  0.00    +0.000 A 
ATOM     16  C   UNL     1       0.810   9.900  21.706  0.00  0.00    +0.000 A 
ATOM     17  C   UNL     1       0.846  10.866  20.660  0.00  0.00    +0.000 A 
ATOM     18  C   UNL     1       1.221  10.432  19.373  0.00  0.00    +0.000 A 
ATOM     19  C   UNL     1       1.574   9.082  19.174  0.00  0.00    +0.000 A 
BRANCH  16  20
ATOM     20  O   UNL     1       0.418  10.162  23.007  0.00  0.00    +0.000 OA
ATOM     21  C   UNL     1      -0.996  10.207  23.263  0.00  0.00    +0.000 C 
ENDBRANCH  16  20
BRANCH  17  22
ATOM     22  O   UNL     1       0.537  12.157  21.006  0.00  0.00    +0.000 OA
ATOM     23  C   UNL     1      -0.674  12.767  20.575  0.00  0.00    +0.000 C 
ENDBRANCH  17  22
BRANCH  18  24
ATOM     24  O   UNL     1       1.249  11.355  18.359  0.00  0.00    +0.000 OA
ATOM     25  C   UNL     1       2.500  11.839  17.898  0.00  0.00    +0.000 C 
ENDBRANCH  18  24
ENDBRANCH   2  14
TORSDOF 6
ENDMDL
MODEL 9
REMARK VINA RESULT:      -7.0      2.022      7.923
REMARK  Name = 
REMARK  10 active torsions:
REMARK  status: ('A' for Active; 'I' for Inactive)
REMARK    1  A    between atoms: C_1  and  O_2
REMARK    2  A    between atoms: O_2  and  C_3
REMARK    3  A    between atoms: C_6  and  C_7
REMARK    4  A    between atoms: C_8  and  C_9
REMARK    5  A    between atoms: C_11  and  O_12
REMARK    6  A    between atoms: O_12  and  C_13
REMARK    7  A    between atoms: C_14  and  O_15
REMARK    8  A    between atoms: O_15  and  C_16
REMARK    9  A    between atoms: C_17  and  O_18
REMARK   10  A    between atoms: O_18  and  C_19
REMARK                            x       y       z     vdW  Elec       q    Type
REMARK                         _______ _______ _______ _____ _____    ______ ____
ROOT
ATOM      1  C   UNL     1       2.006   8.423  18.458  0.00  0.00    +0.000 C 
ATOM      2  C   UNL     1       2.561   7.241  18.917  0.00  0.00    +0.000 C 
ATOM      3  C   UNL     1       2.125   6.683  20.305  0.00  0.00    +0.000 C 
ATOM      4  C   UNL     1       1.308   7.736  20.923  0.00  0.00    +0.000 C 
ATOM      5  C   UNL     1       1.236   8.657  19.782  0.00  0.00    +0.000 C 
ENDROOT
BRANCH   1   9
ATOM      6  C   UNL     1       0.327  12.309  19.039  0.00  0.00    +0.000 A 
ATOM      7  C   UNL     1      -0.541  11.265  18.683  0.00  0.00    +0.000 A 
ATOM      8  C   UNL     1      -0.063  10.025  18.167  0.00  0.00    +0.000 A 
ATOM      9  C   UNL     1       1.324   9.830  17.966  0.00  0.00    +0.000 A 
ATOM     10  C   UNL     1       2.113  11.033  18.018  0.00  0.00    +0.000 A 
ATOM     11  C   UNL     1       1.668  12.166  18.737  0.00  0.00    +0.000 A 
BRANCH   6  13
ATOM     12  C   UNL     1      -0.072  14.638  19.075  0.00  0.00    +0.000 C 
ATOM     13  O   UNL     1      -0.188  13.372  19.738  0.00  0.00    +0.000 OA
ENDBRANCH   6  13
ENDBRANCH   1   9
BRANCH   2  14
ATOM     14  C   UNL     1       3.537   6.242  18.341  0.00  0.00    +0.000 A 
ATOM     15  C   UNL     1       3.216   4.922  18.018  0.00  0.00    +0.000 A 
ATOM     16  C   UNL     1       4.095   4.104  17.266  0.00  0.00    +0.000 A 
ATOM     17  C   UNL     1       5.303   4.633  16.729  0.00  0.00    +0.000 A 
ATOM     18  C   UNL     1       5.636   5.966  17.039  0.00  0.00    +0.000 A 
ATOM     19  C   UNL     1       4.758   6.731  17.835  0.00  0.00    +0.000 A 
BRANCH  16  20
ATOM     20  O   UNL     1       3.659   2.803  17.090  0.00  0.00    +0.000 OA
ATOM     21  C   UNL     1       3.153   2.124  18.252  0.00  0.00    +0.000 C 
ENDBRANCH  16  20
BRANCH  17  22
ATOM     22  O   UNL     1       6.033   3.799  15.920  0.00  0.00    +0.000 OA
ATOM     23  C   UNL     1       6.021   3.945  14.505  0.00  0.00    +0.000 C 
ENDBRANCH  17  22
BRANCH  18  24
ATOM     24  O   UNL     1       6.802   6.480  16.533  0.00  0.00    +0.000 OA
ATOM     25  C   UNL     1       7.589   7.339  17.342  0.00  0.00    +0.000 C 
ENDBRANCH  18  24
ENDBRANCH   2  14
TORSDOF 6
ENDMDL
