MODEL 1
REMARK VINA RESULT:      -6.6      0.000      0.000
REMARK  Name = 
REMARK  5 active torsions:
REMARK  status: ('A' for Active; 'I' for Inactive)
REMARK    1  A    between atoms: C_2  and  O_3
REMARK    2  A    between atoms: C_2  and  C_4
REMARK    3  A    between atoms: C_9  and  C_10
REMARK    4  A    between atoms: C_14  and  O_15
REMARK    5  A    between atoms: C_21  and  O_22
REMARK                            x       y       z     vdW  Elec       q    Type
REMARK                         _______ _______ _______ _____ _____    ______ ____
ROOT
ATOM      1  C   UNL     1      -6.120  11.379  17.797  0.00  0.00    +0.000 C 
ATOM      2  C   UNL     1      -6.759  10.460  18.825  0.00  0.00    +0.000 A 
ATOM      3  C   UNL     1      -6.443   9.090  18.844  0.00  0.00    +0.000 A 
ATOM      4  C   UNL     1      -6.834   8.294  19.917  0.00  0.00    +0.000 A 
ATOM      5  C   UNL     1      -7.567   8.867  20.955  0.00  0.00    +0.000 A 
ATOM      6  C   UNL     1      -7.916  10.215  20.940  0.00  0.00    +0.000 A 
ATOM      7  C   UNL     1      -7.500  11.018  19.882  0.00  0.00    +0.000 A 
ATOM      8  O   UNL     1      -7.684  12.389  20.010  0.00  0.00    +0.000 OA
ATOM      9  C   UNL     1      -7.327  13.199  18.953  0.00  0.00    +0.000 A 
ATOM     10  C   UNL     1      -7.265  14.570  19.151  0.00  0.00    +0.000 A 
ATOM     11  C   UNL     1      -6.889  15.386  18.083  0.00  0.00    +0.000 A 
ATOM     12  C   UNL     1      -6.769  14.886  16.792  0.00  0.00    +0.000 A 
ATOM     13  C   UNL     1      -6.770  13.512  16.607  0.00  0.00    +0.000 A 
ATOM     14  C   UNL     1      -6.879  12.686  17.732  0.00  0.00    +0.000 A 
ENDROOT
BRANCH   1  20
ATOM     15  C   UNL     1      -3.514  11.300  17.448  0.00  0.00    +0.000 A 
ATOM     16  C   UNL     1      -2.227  11.416  18.019  0.00  0.00    +0.000 A 
ATOM     17  C   UNL     1      -2.034  12.015  19.263  0.00  0.00    +0.000 A 
ATOM     18  C   UNL     1      -3.112  12.540  19.945  0.00  0.00    +0.000 A 
ATOM     19  C   UNL     1      -4.396  12.369  19.417  0.00  0.00    +0.000 A 
ATOM     20  C   UNL     1      -4.642  11.666  18.206  0.00  0.00    +0.000 A 
BRANCH  15  22
ATOM     21  O   UNL     1      -3.743  11.542  15.067  0.00  0.00    +0.000 OA
ATOM     22  C   UNL     1      -3.611  10.819  16.040  0.00  0.00    +0.000 C 
BRANCH  22  23
ATOM     23  O   UNL     1      -3.485   9.476  15.928  0.00  0.00    +0.000 OA
ATOM     24  H   UNL     1      -4.216   9.015  15.485  0.00  0.00    +0.000 HD
ENDBRANCH  22  23
ENDBRANCH  15  22
ENDBRANCH   1  20
BRANCH   5  25
ATOM     25  O   UNL     1      -7.904   8.137  22.059  0.00  0.00    +0.000 OA
ATOM     26  H   UNL     1      -7.831   8.707  22.843  0.00  0.00    +0.000 HD
ENDBRANCH   5  25
BRANCH  11  27
ATOM     27  O   UNL     1      -6.528  16.683  18.298  0.00  0.00    +0.000 OA
ATOM     28  H   UNL     1      -7.295  17.222  18.031  0.00  0.00    +0.000 HD
ENDBRANCH  11  27
TORSDOF 5
ENDMDL
MODEL 2
REMARK VINA RESULT:      -6.5      4.303      6.670
REMARK  Name = 
REMARK  5 active torsions:
REMARK  status: ('A' for Active; 'I' for Inactive)
REMARK    1  A    between atoms: C_2  and  O_3
REMARK    2  A    between atoms: C_2  and  C_4
REMARK    3  A    between atoms: C_9  and  C_10
REMARK    4  A    between atoms: C_14  and  O_15
REMARK    5  A    between atoms: C_21  and  O_22
REMARK                            x       y       z     vdW  Elec       q    Type
REMARK                         _______ _______ _______ _____ _____    ______ ____
ROOT
ATOM      1  C   UNL     1       0.303  11.194  18.579  0.00  0.00    +0.000 C 
ATOM      2  C   UNL     1      -1.184  11.137  18.268  0.00  0.00    +0.000 A 
ATOM      3  C   UNL     1      -1.707  10.079  17.505  0.00  0.00    +0.000 A 
ATOM      4  C   UNL     1      -3.084   9.890  17.417  0.00  0.00    +0.000 A 
ATOM      5  C   UNL     1      -3.933  10.782  18.070  0.00  0.00    +0.000 A 
ATOM      6  C   UNL     1      -3.434  11.854  18.805  0.00  0.00    +0.000 A 
ATOM      7  C   UNL     1      -2.057  12.026  18.919  0.00  0.00    +0.000 A 
ATOM      8  O   UNL     1      -1.604  12.972  19.829  0.00  0.00    +0.000 OA
ATOM      9  C   UNL     1      -0.247  13.195  19.920  0.00  0.00    +0.000 A 
ATOM     10  C   UNL     1       0.238  13.940  20.984  0.00  0.00    +0.000 A 
ATOM     11  C   UNL     1       1.614  14.152  21.081  0.00  0.00    +0.000 A 
ATOM     12  C   UNL     1       2.479  13.809  20.049  0.00  0.00    +0.000 A 
ATOM     13  C   UNL     1       2.003  13.012  19.018  0.00  0.00    +0.000 A 
ATOM     14  C   UNL     1       0.674  12.576  19.071  0.00  0.00    +0.000 A 
ENDROOT
BRANCH   1  20
ATOM     15  C   UNL     1       1.338   8.947  19.471  0.00  0.00    +0.000 A 
ATOM     16  C   UNL     1       1.395   7.983  20.502  0.00  0.00    +0.000 A 
ATOM     17  C   UNL     1       0.898   8.250  21.777  0.00  0.00    +0.000 A 
ATOM     18  C   UNL     1       0.369   9.493  22.059  0.00  0.00    +0.000 A 
ATOM     19  C   UNL     1       0.248  10.427  21.025  0.00  0.00    +0.000 A 
ATOM     20  C   UNL     1       0.643  10.151  19.688  0.00  0.00    +0.000 A 
BRANCH  15  22
ATOM     21  O   UNL     1       2.350   9.481  17.356  0.00  0.00    +0.000 OA
ATOM     22  C   UNL     1       2.056   8.649  18.198  0.00  0.00    +0.000 C 
BRANCH  22  23
ATOM     23  O   UNL     1       2.411   7.348  18.080  0.00  0.00    +0.000 OA
ATOM     24  H   UNL     1       2.521   6.860  18.911  0.00  0.00    +0.000 HD
ENDBRANCH  22  23
ENDBRANCH  15  22
ENDBRANCH   1  20
BRANCH   5  25
ATOM     25  O   UNL     1      -5.284  10.587  18.069  0.00  0.00    +0.000 OA
ATOM     26  H   UNL     1      -5.669  11.072  18.818  0.00  0.00    +0.000 HD
ENDBRANCH   5  25
BRANCH  11  27
ATOM     27  O   UNL     1       2.163  14.611  22.242  0.00  0.00    +0.000 OA
ATOM     28  H   UNL     1       2.359  13.820  22.777  0.00  0.00    +0.000 HD
ENDBRANCH  11  27
TORSDOF 5
ENDMDL
MODEL 3
REMARK VINA RESULT:      -6.5      3.729      7.479
REMARK  Name = 
REMARK  5 active torsions:
REMARK  status: ('A' for Active; 'I' for Inactive)
REMARK    1  A    between atoms: C_2  and  O_3
REMARK    2  A    between atoms: C_2  and  C_4
REMARK    3  A    between atoms: C_9  and  C_10
REMARK    4  A    between atoms: C_14  and  O_15
REMARK    5  A    between atoms: C_21  and  O_22
REMARK                            x       y       z     vdW  Elec       q    Type
REMARK                         _______ _______ _______ _____ _____    ______ ____
ROOT
ATOM      1  C   UNL     1      -0.540  12.222  19.221  0.00  0.00    +0.000 C 
ATOM      2  C   UNL     1      -0.106  13.637  19.567  0.00  0.00    +0.000 A 
ATOM      3  C   UNL     1      -0.246  14.671  18.625  0.00  0.00    +0.000 A 
ATOM      4  C   UNL     1      -0.076  15.998  19.008  0.00  0.00    +0.000 A 
ATOM      5  C   UNL     1       0.264  16.284  20.330  0.00  0.00    +0.000 A 
ATOM      6  C   UNL     1       0.439  15.272  21.270  0.00  0.00    +0.000 A 
ATOM      7  C   UNL     1       0.239  13.946  20.894  0.00  0.00    +0.000 A 
ATOM      8  O   UNL     1       0.213  12.993  21.904  0.00  0.00    +0.000 OA
ATOM      9  C   UNL     1       0.069  11.669  21.551  0.00  0.00    +0.000 A 
ATOM     10  C   UNL     1      -0.211  10.738  22.541  0.00  0.00    +0.000 A 
ATOM     11  C   UNL     1      -0.371   9.400  22.177  0.00  0.00    +0.000 A 
ATOM     12  C   UNL     1      -0.065   8.951  20.898  0.00  0.00    +0.000 A 
ATOM     13  C   UNL     1       0.153   9.887  19.898  0.00  0.00    +0.000 A 
ATOM     14  C   UNL     1       0.043  11.246  20.219  0.00  0.00    +0.000 A 
ENDROOT
BRANCH   1  20
ATOM     15  C   UNL     1      -2.901  11.599  18.243  0.00  0.00    +0.000 A 
ATOM     16  C   UNL     1      -4.302  11.768  18.301  0.00  0.00    +0.000 A 
ATOM     17  C   UNL     1      -4.921  12.327  19.418  0.00  0.00    +0.000 A 
ATOM     18  C   UNL     1      -4.163  12.696  20.509  0.00  0.00    +0.000 A 
ATOM     19  C   UNL     1      -2.770  12.593  20.432  0.00  0.00    +0.000 A 
ATOM     20  C   UNL     1      -2.096  12.131  19.268  0.00  0.00    +0.000 A 
BRANCH  15  22
ATOM     21  O   UNL     1      -1.973   9.664  17.158  0.00  0.00    +0.000 OA
ATOM     22  C   UNL     1      -2.339  10.825  17.098  0.00  0.00    +0.000 C 
BRANCH  22  23
ATOM     23  O   UNL     1      -2.319  11.528  15.941  0.00  0.00    +0.000 OA
ATOM     24  H   UNL     1      -1.445  11.820  15.636  0.00  0.00    +0.000 HD
ENDBRANCH  22  23
ENDBRANCH  15  22
ENDBRANCH   1  20
BRANCH   5  25
ATOM     25  O   UNL     1       0.367  17.575  20.761  0.00  0.00    +0.000 OA
ATOM     26  H   UNL     1       1.191  17.670  21.267  0.00  0.00    +0.000 HD
ENDBRANCH   5  25
BRANCH  11  27
ATOM     27  O   UNL     1      -0.931   8.510  23.045  0.00  0.00    +0.000 OA
ATOM     28  H   UNL     1      -0.568   8.727  23.923  0.00  0.00    +0.000 HD
ENDBRANCH  11  27
TORSDOF 5
ENDMDL
MODEL 4
REMARK VINA RESULT:      -6.5      4.563      7.681
REMARK  Name = 
REMARK  5 active torsions:
REMARK  status: ('A' for Active; 'I' for Inactive)
REMARK    1  A    between atoms: C_2  and  O_3
REMARK    2  A    between atoms: C_2  and  C_4
REMARK    3  A    between atoms: C_9  and  C_10
REMARK    4  A    between atoms: C_14  and  O_15
REMARK    5  A    between atoms: C_21  and  O_22
REMARK                            x       y       z     vdW  Elec       q    Type
REMARK                         _______ _______ _______ _____ _____    ______ ____
ROOT
ATOM      1  C   UNL     1       0.439  11.933  20.457  0.00  0.00    +0.000 C 
ATOM      2  C   UNL     1       1.066  13.203  19.904  0.00  0.00    +0.000 A 
ATOM      3  C   UNL     1       2.078  13.127  18.932  0.00  0.00    +0.000 A 
ATOM      4  C   UNL     1       2.487  14.272  18.252  0.00  0.00    +0.000 A 
ATOM      5  C   UNL     1       1.900  15.495  18.571  0.00  0.00    +0.000 A 
ATOM      6  C   UNL     1       0.917  15.596  19.553  0.00  0.00    +0.000 A 
ATOM      7  C   UNL     1       0.487  14.447  20.211  0.00  0.00    +0.000 A 
ATOM      8  O   UNL     1      -0.635  14.558  21.022  0.00  0.00    +0.000 OA
ATOM      9  C   UNL     1      -1.047  13.446  21.725  0.00  0.00    +0.000 A 
ATOM     10  C   UNL     1      -2.293  13.463  22.334  0.00  0.00    +0.000 A 
ATOM     11  C   UNL     1      -2.714  12.330  23.031  0.00  0.00    +0.000 A 
ATOM     12  C   UNL     1      -1.850  11.275  23.296  0.00  0.00    +0.000 A 
ATOM     13  C   UNL     1      -0.630  11.231  22.637  0.00  0.00    +0.000 A 
ATOM     14  C   UNL     1      -0.329  12.247  21.722  0.00  0.00    +0.000 A 
ENDROOT
BRANCH   1  20
ATOM     15  C   UNL     1      -0.194  10.358  18.449  0.00  0.00    +0.000 A 
ATOM     16  C   UNL     1      -1.099  10.053  17.408  0.00  0.00    +0.000 A 
ATOM     17  C   UNL     1      -2.383  10.594  17.378  0.00  0.00    +0.000 A 
ATOM     18  C   UNL     1      -2.803  11.419  18.401  0.00  0.00    +0.000 A 
ATOM     19  C   UNL     1      -1.891  11.778  19.398  0.00  0.00    +0.000 A 
ATOM     20  C   UNL     1      -0.540  11.335  19.401  0.00  0.00    +0.000 A 
BRANCH  15  22
ATOM     21  O   UNL     1       1.388   8.810  19.388  0.00  0.00    +0.000 OA
ATOM     22  C   UNL     1       1.086   9.595  18.505  0.00  0.00    +0.000 C 
BRANCH  22  23
ATOM     23  O   UNL     1       1.884   9.817  17.435  0.00  0.00    +0.000 OA
ATOM     24  H   UNL     1       2.754   9.386  17.456  0.00  0.00    +0.000 HD
ENDBRANCH  22  23
ENDBRANCH  15  22
ENDBRANCH   1  20
BRANCH   5  25
ATOM     25  O   UNL     1       2.220  16.626  17.876  0.00  0.00    +0.000 OA
ATOM     26  H   UNL     1       1.399  17.046  17.571  0.00  0.00    +0.000 HD
ENDBRANCH   5  25
BRANCH  11  27
ATOM     27  O   UNL     1      -4.022  12.184  23.387  0.00  0.00    +0.000 OA
ATOM     28  H   UNL     1      -4.018  11.936  24.329  0.00  0.00    +0.000 HD
ENDBRANCH  11  27
TORSDOF 5
ENDMDL
MODEL 5
REMARK VINA RESULT:      -6.4      3.200      4.204
REMARK  Name = 
REMARK  5 active torsions:
REMARK  status: ('A' for Active; 'I' for Inactive)
REMARK    1  A    between atoms: C_2  and  O_3
REMARK    2  A    between atoms: C_2  and  C_4
REMARK    3  A    between atoms: C_9  and  C_10
REMARK    4  A    between atoms: C_14  and  O_15
REMARK    5  A    between atoms: C_21  and  O_22
REMARK                            x       y       z     vdW  Elec       q    Type
REMARK                         _______ _______ _______ _____ _____    ______ ____
ROOT
ATOM      1  C   UNL     1      -3.959  13.479  20.304  0.00  0.00    +0.000 C 
ATOM      2  C   UNL     1      -5.020  12.488  19.853  0.00  0.00    +0.000 A 
ATOM      3  C   UNL     1      -4.816  11.706  18.703  0.00  0.00    +0.000 A 
ATOM      4  C   UNL     1      -5.664  10.639  18.419  0.00  0.00    +0.000 A 
ATOM      5  C   UNL     1      -6.733  10.378  19.274  0.00  0.00    +0.000 A 
ATOM      6  C   UNL     1      -6.970  11.160  20.402  0.00  0.00    +0.000 A 
ATOM      7  C   UNL     1      -6.105  12.208  20.702  0.00  0.00    +0.000 A 
ATOM      8  O   UNL     1      -6.251  12.822  21.939  0.00  0.00    +0.000 OA
ATOM      9  C   UNL     1      -5.440  13.896  22.237  0.00  0.00    +0.000 A 
ATOM     10  C   UNL     1      -5.393  14.358  23.544  0.00  0.00    +0.000 A 
ATOM     11  C   UNL     1      -4.559  15.436  23.844  0.00  0.00    +0.000 A 
ATOM     12  C   UNL     1      -3.935  16.175  22.847  0.00  0.00    +0.000 A 
ATOM     13  C   UNL     1      -3.932  15.677  21.552  0.00  0.00    +0.000 A 
ATOM     14  C   UNL     1      -4.548  14.443  21.310  0.00  0.00    +0.000 A 
ENDROOT
BRANCH   1  20
ATOM     15  C   UNL     1      -1.620  12.277  20.292  0.00  0.00    +0.000 A 
ATOM     16  C   UNL     1      -0.722  11.401  20.943  0.00  0.00    +0.000 A 
ATOM     17  C   UNL     1      -0.881  11.062  22.286  0.00  0.00    +0.000 A 
ATOM     18  C   UNL     1      -1.913  11.616  23.015  0.00  0.00    +0.000 A 
ATOM     19  C   UNL     1      -2.843  12.430  22.360  0.00  0.00    +0.000 A 
ATOM     20  C   UNL     1      -2.777  12.708  20.967  0.00  0.00    +0.000 A 
BRANCH  15  22
ATOM     21  O   UNL     1      -1.379  12.049  17.911  0.00  0.00    +0.000 OA
ATOM     22  C   UNL     1      -1.274  12.732  18.915  0.00  0.00    +0.000 C 
BRANCH  22  23
ATOM     23  O   UNL     1      -0.870  14.024  18.869  0.00  0.00    +0.000 OA
ATOM     24  H   UNL     1      -1.562  14.680  18.689  0.00  0.00    +0.000 HD
ENDBRANCH  22  23
ENDBRANCH  15  22
ENDBRANCH   1  20
BRANCH   5  25
ATOM     25  O   UNL     1      -7.542   9.297  19.071  0.00  0.00    +0.000 OA
ATOM     26  H   UNL     1      -7.370   8.942  18.182  0.00  0.00    +0.000 HD
ENDBRANCH   5  25
BRANCH  11  27
ATOM     27  O   UNL     1      -4.253  15.732  25.139  0.00  0.00    +0.000 OA
ATOM     28  H   UNL     1      -4.162  14.876  25.596  0.00  0.00    +0.000 HD
ENDBRANCH  11  27
TORSDOF 5
ENDMDL
MODEL 6
REMARK VINA RESULT:      -6.4      8.969     12.220
REMARK  Name = 
REMARK  5 active torsions:
REMARK  status: ('A' for Active; 'I' for Inactive)
REMARK    1  A    between atoms: C_2  and  O_3
REMARK    2  A    between atoms: C_2  and  C_4
REMARK    3  A    between atoms: C_9  and  C_10
REMARK    4  A    between atoms: C_14  and  O_15
REMARK    5  A    between atoms: C_21  and  O_22
REMARK                            x       y       z     vdW  Elec       q    Type
REMARK                         _______ _______ _______ _____ _____    ______ ____
ROOT
ATOM      1  C   UNL     1       3.894   5.289  19.587  0.00  0.00    +0.000 C 
ATOM      2  C   UNL     1       2.966   4.110  19.341  0.00  0.00    +0.000 A 
ATOM      3  C   UNL     1       1.783   3.972  20.089  0.00  0.00    +0.000 A 
ATOM      4  C   UNL     1       0.819   3.040  19.714  0.00  0.00    +0.000 A 
ATOM      5  C   UNL     1       1.057   2.228  18.606  0.00  0.00    +0.000 A 
ATOM      6  C   UNL     1       2.236   2.328  17.871  0.00  0.00    +0.000 A 
ATOM      7  C   UNL     1       3.187   3.280  18.229  0.00  0.00    +0.000 A 
ATOM      8  O   UNL     1       4.241   3.491  17.349  0.00  0.00    +0.000 OA
ATOM      9  C   UNL     1       5.222   4.391  17.707  0.00  0.00    +0.000 A 
ATOM     10  C   UNL     1       6.137   4.800  16.748  0.00  0.00    +0.000 A 
ATOM     11  C   UNL     1       7.119   5.723  17.110  0.00  0.00    +0.000 A 
ATOM     12  C   UNL     1       7.325   6.087  18.435  0.00  0.00    +0.000 A 
ATOM     13  C   UNL     1       6.374   5.727  19.379  0.00  0.00    +0.000 A 
ATOM     14  C   UNL     1       5.242   5.024  18.953  0.00  0.00    +0.000 A 
ENDROOT
BRANCH   1  20
ATOM     15  C   UNL     1       2.269   7.357  19.551  0.00  0.00    +0.000 A 
ATOM     16  C   UNL     1       1.638   8.368  18.794  0.00  0.00    +0.000 A 
ATOM     17  C   UNL     1       2.082   8.706  17.517  0.00  0.00    +0.000 A 
ATOM     18  C   UNL     1       3.184   8.068  16.984  0.00  0.00    +0.000 A 
ATOM     19  C   UNL     1       3.771   7.020  17.700  0.00  0.00    +0.000 A 
ATOM     20  C   UNL     1       3.277   6.575  18.957  0.00  0.00    +0.000 A 
BRANCH  15  22
ATOM     21  O   UNL     1       1.461   6.142  21.463  0.00  0.00    +0.000 OA
ATOM     22  C   UNL     1       1.853   7.188  20.973  0.00  0.00    +0.000 C 
BRANCH  22  23
ATOM     23  O   UNL     1       2.001   8.315  21.708  0.00  0.00    +0.000 OA
ATOM     24  H   UNL     1       1.848   9.152  21.240  0.00  0.00    +0.000 HD
ENDBRANCH  22  23
ENDBRANCH  15  22
ENDBRANCH   1  20
BRANCH   5  25
ATOM     25  O   UNL     1       0.106   1.355  18.163  0.00  0.00    +0.000 OA
ATOM     26  H   UNL     1      -0.769   1.688  18.427  0.00  0.00    +0.000 HD
ENDBRANCH   5  25
BRANCH  11  27
ATOM     27  O   UNL     1       7.842   6.373  16.154  0.00  0.00    +0.000 OA
ATOM     28  H   UNL     1       8.440   6.975  16.633  0.00  0.00    +0.000 HD
ENDBRANCH  11  27
TORSDOF 5
ENDMDL
MODEL 7
REMARK VINA RESULT:      -6.4      8.496     11.796
REMARK  Name = 
REMARK  5 active torsions:
REMARK  status: ('A' for Active; 'I' for Inactive)
REMARK    1  A    between atoms: C_2  and  O_3
REMARK    2  A    between atoms: C_2  and  C_4
REMARK    3  A    between atoms: C_9  and  C_10
REMARK    4  A    between atoms: C_14  and  O_15
REMARK    5  A    between atoms: C_21  and  O_22
REMARK                            x       y       z     vdW  Elec       q    Type
REMARK                         _______ _______ _______ _____ _____    ______ ____
ROOT
ATOM      1  C   UNL     1       3.511   5.960  19.536  0.00  0.00    +0.000 C 
ATOM      2  C   UNL     1       4.747   5.762  18.672  0.00  0.00    +0.000 A 
ATOM      3  C   UNL     1       5.619   4.688  18.920  0.00  0.00    +0.000 A 
ATOM      4  C   UNL     1       6.611   4.361  18.000  0.00  0.00    +0.000 A 
ATOM      5  C   UNL     1       6.745   5.132  16.846  0.00  0.00    +0.000 A 
ATOM      6  C   UNL     1       5.911   6.219  16.597  0.00  0.00    +0.000 A 
ATOM      7  C   UNL     1       4.899   6.527  17.503  0.00  0.00    +0.000 A 
ATOM      8  O   UNL     1       3.963   7.477  17.116  0.00  0.00    +0.000 OA
ATOM      9  C   UNL     1       2.983   7.836  18.017  0.00  0.00    +0.000 A 
ATOM     10  C   UNL     1       1.903   8.582  17.570  0.00  0.00    +0.000 A 
ATOM     11  C   UNL     1       0.906   8.931  18.482  0.00  0.00    +0.000 A 
ATOM     12  C   UNL     1       1.062   8.723  19.847  0.00  0.00    +0.000 A 
ATOM     13  C   UNL     1       2.108   7.924  20.284  0.00  0.00    +0.000 A 
ATOM     14  C   UNL     1       2.955   7.351  19.328  0.00  0.00    +0.000 A 
ENDROOT
BRANCH   1  20
ATOM     15  C   UNL     1       1.932   3.906  19.989  0.00  0.00    +0.000 A 
ATOM     16  C   UNL     1       1.117   2.883  19.454  0.00  0.00    +0.000 A 
ATOM     17  C   UNL     1       0.675   2.921  18.133  0.00  0.00    +0.000 A 
ATOM     18  C   UNL     1       1.007   3.993  17.330  0.00  0.00    +0.000 A 
ATOM     19  C   UNL     1       1.868   4.974  17.832  0.00  0.00    +0.000 A 
ATOM     20  C   UNL     1       2.427   4.912  19.138  0.00  0.00    +0.000 A 
BRANCH  15  22
ATOM     21  O   UNL     1       2.242   2.878  22.140  0.00  0.00    +0.000 OA
ATOM     22  C   UNL     1       2.204   3.885  21.455  0.00  0.00    +0.000 C 
BRANCH  22  23
ATOM     23  O   UNL     1       2.465   5.113  21.964  0.00  0.00    +0.000 OA
ATOM     24  H   UNL     1       2.955   5.130  22.802  0.00  0.00    +0.000 HD
ENDBRANCH  22  23
ENDBRANCH  15  22
ENDBRANCH   1  20
BRANCH   5  25
ATOM     25  O   UNL     1       7.656   4.799  15.885  0.00  0.00    +0.000 OA
ATOM     26  H   UNL     1       7.880   5.598  15.378  0.00  0.00    +0.000 HD
ENDBRANCH   5  25
BRANCH  11  27
ATOM     27  O   UNL     1      -0.299   9.396  18.044  0.00  0.00    +0.000 OA
ATOM     28  H   UNL     1      -0.222   9.468  17.075  0.00  0.00    +0.000 HD
ENDBRANCH  11  27
TORSDOF 5
ENDMDL
MODEL 8
REMARK VINA RESULT:      -6.3      3.846      5.866
REMARK  Name = 
REMARK  5 active torsions:
REMARK  status: ('A' for Active; 'I' for Inactive)
REMARK    1  A    between atoms: C_2  and  O_3
REMARK    2  A    between atoms: C_2  and  C_4
REMARK    3  A    between atoms: C_9  and  C_10
REMARK    4  A    between atoms: C_14  and  O_15
REMARK    5  A    between atoms: C_21  and  O_22
REMARK                            x       y       z     vdW  Elec       q    Type
REMARK                         _______ _______ _______ _____ _____    ______ ____
ROOT
ATOM      1  C   UNL     1      -0.996  11.182  19.995  0.00  0.00    +0.000 C 
ATOM      2  C   UNL     1      -1.659  11.901  21.159  0.00  0.00    +0.000 A 
ATOM      3  C   UNL     1      -0.963  12.083  22.367  0.00  0.00    +0.000 A 
ATOM      4  C   UNL     1      -1.465  12.938  23.345  0.00  0.00    +0.000 A 
ATOM      5  C   UNL     1      -2.678  13.586  23.120  0.00  0.00    +0.000 A 
ATOM      6  C   UNL     1      -3.398  13.395  21.943  0.00  0.00    +0.000 A 
ATOM      7  C   UNL     1      -2.881  12.563  20.953  0.00  0.00    +0.000 A 
ATOM      8  O   UNL     1      -3.518  12.569  19.719  0.00  0.00    +0.000 OA
ATOM      9  C   UNL     1      -3.057  11.715  18.740  0.00  0.00    +0.000 A 
ATOM     10  C   UNL     1      -3.507  11.882  17.439  0.00  0.00    +0.000 A 
ATOM     11  C   UNL     1      -3.026  11.025  16.448  0.00  0.00    +0.000 A 
ATOM     12  C   UNL     1      -2.272   9.901  16.760  0.00  0.00    +0.000 A 
ATOM     13  C   UNL     1      -1.772   9.770  18.047  0.00  0.00    +0.000 A 
ATOM     14  C   UNL     1      -2.039  10.785  18.974  0.00  0.00    +0.000 A 
ENDROOT
BRANCH   1  20
ATOM     15  C   UNL     1       1.271  11.717  18.774  0.00  0.00    +0.000 A 
ATOM     16  C   UNL     1       2.222  12.689  18.390  0.00  0.00    +0.000 A 
ATOM     17  C   UNL     1       1.921  14.050  18.411  0.00  0.00    +0.000 A 
ATOM     18  C   UNL     1       0.659  14.467  18.780  0.00  0.00    +0.000 A 
ATOM     19  C   UNL     1      -0.265  13.516  19.225  0.00  0.00    +0.000 A 
ATOM     20  C   UNL     1       0.042  12.131  19.322  0.00  0.00    +0.000 A 
BRANCH  15  22
ATOM     21  O   UNL     1       1.510   9.404  19.384  0.00  0.00    +0.000 OA
ATOM     22  C   UNL     1       1.608  10.283  18.544  0.00  0.00    +0.000 C 
BRANCH  22  23
ATOM     23  O   UNL     1       1.994  10.024  17.273  0.00  0.00    +0.000 OA
ATOM     24  H   UNL     1       1.298   9.712  16.672  0.00  0.00    +0.000 HD
ENDBRANCH  22  23
ENDBRANCH  15  22
ENDBRANCH   1  20
BRANCH   5  25
ATOM     25  O   UNL     1      -3.166  14.488  24.022  0.00  0.00    +0.000 OA
ATOM     26  H   UNL     1      -3.425  14.012  24.829  0.00  0.00    +0.000 HD
ENDBRANCH   5  25
BRANCH  11  27
ATOM     27  O   UNL     1      -3.200  11.327  15.130  0.00  0.00    +0.000 OA
ATOM     28  H   UNL     1      -3.108  10.485  14.648  0.00  0.00    +0.000 HD
ENDBRANCH  11  27
TORSDOF 5
ENDMDL
MODEL 9
REMARK VINA RESULT:      -6.3     13.264     16.089
REMARK  Name = 
REMARK  5 active torsions:
REMARK  status: ('A' for Active; 'I' for Inactive)
REMARK    1  A    between atoms: C_2  and  O_3
REMARK    2  A    between atoms: C_2  and  C_4
REMARK    3  A    between atoms: C_9  and  C_10
REMARK    4  A    between atoms: C_14  and  O_15
REMARK    5  A    between atoms: C_21  and  O_22
REMARK                            x       y       z     vdW  Elec       q    Type
REMARK                         _______ _______ _______ _____ _____    ______ ____
ROOT
ATOM      1  C   UNL     1       9.843  14.887  20.043  0.00  0.00    +0.000 C 
ATOM      2  C   UNL     1       9.556  13.929  21.188  0.00  0.00    +0.000 A 
ATOM      3  C   UNL     1       8.739  14.331  22.259  0.00  0.00    +0.000 A 
ATOM      4  C   UNL     1       8.280  13.395  23.182  0.00  0.00    +0.000 A 
ATOM      5  C   UNL     1       8.666  12.063  23.045  0.00  0.00    +0.000 A 
ATOM      6  C   UNL     1       9.500  11.650  22.009  0.00  0.00    +0.000 A 
ATOM      7  C   UNL     1       9.935  12.580  21.068  0.00  0.00    +0.000 A 
ATOM      8  O   UNL     1      10.582  12.093  19.940  0.00  0.00    +0.000 OA
ATOM      9  C   UNL     1      11.067  12.999  19.022  0.00  0.00    +0.000 A 
ATOM     10  C   UNL     1      11.486  12.537  17.783  0.00  0.00    +0.000 A 
ATOM     11  C   UNL     1      11.963  13.458  16.850  0.00  0.00    +0.000 A 
ATOM     12  C   UNL     1      12.211  14.782  17.194  0.00  0.00    +0.000 A 
ATOM     13  C   UNL     1      11.735  15.255  18.408  0.00  0.00    +0.000 A 
ATOM     14  C   UNL     1      11.014  14.380  19.229  0.00  0.00    +0.000 A 
ENDROOT
BRANCH   1  20
ATOM     15  C   UNL     1       7.746  16.112  19.034  0.00  0.00    +0.000 A 
ATOM     16  C   UNL     1       6.522  16.010  18.336  0.00  0.00    +0.000 A 
ATOM     17  C   UNL     1       6.189  14.864  17.615  0.00  0.00    +0.000 A 
ATOM     18  C   UNL     1       7.082  13.815  17.546  0.00  0.00    +0.000 A 
ATOM     19  C   UNL     1       8.265  13.883  18.288  0.00  0.00    +0.000 A 
ATOM     20  C   UNL     1       8.588  14.988  19.123  0.00  0.00    +0.000 A 
BRANCH  15  22
ATOM     21  O   UNL     1       8.103  17.689  20.814  0.00  0.00    +0.000 OA
ATOM     22  C   UNL     1       8.105  17.435  19.621  0.00  0.00    +0.000 C 
BRANCH  22  23
ATOM     23  O   UNL     1       8.494  18.341  18.693  0.00  0.00    +0.000 OA
ATOM     24  H   UNL     1       7.825  18.990  18.425  0.00  0.00    +0.000 HD
ENDBRANCH  22  23
ENDBRANCH  15  22
ENDBRANCH   1  20
BRANCH   5  25
ATOM     25  O   UNL     1       8.178  11.104  23.886  0.00  0.00    +0.000 OA
ATOM     26  H   UNL     1       8.005  11.509  24.752  0.00  0.00    +0.000 HD
ENDBRANCH   5  25
BRANCH  11  27
ATOM     27  O   UNL     1      12.103  13.106  15.540  0.00  0.00    +0.000 OA
ATOM     28  H   UNL     1      12.824  12.451  15.514  0.00  0.00    +0.000 HD
ENDBRANCH  11  27
TORSDOF 5
ENDMDL
