MODEL 1
REMARK VINA RESULT:      -7.6      0.000      0.000
REMARK  Name = 
REMARK  3 active torsions:
REMARK  status: ('A' for Active; 'I' for Inactive)
REMARK    1  A    between atoms: C_1  and  C_2
REMARK    2  A    between atoms: C_2  and  O_4
REMARK    3  A    between atoms: O_4  and  C_5
REMARK                            x       y       z     vdW  Elec       q    Type
REMARK                         _______ _______ _______ _____ _____    ______ ____
ROOT
ATOM      1  C   UNL     1       3.335   2.906  19.540  0.00  0.00    +0.000 C 
ATOM      2  C   UNL     1       2.447   2.833  20.782  0.00  0.00    +0.000 C 
ATOM      3  C   UNL     1       1.878   3.898  21.373  0.00  0.00    +0.000 C 
ATOM      4  C   UNL     1       1.931   5.177  20.629  0.00  0.00    +0.000 C 
ATOM      5  C   UNL     1       1.654   6.557  21.238  0.00  0.00    +0.000 C 
ATOM      6  C   UNL     1       1.928   7.414  19.986  0.00  0.00    +0.000 C 
ATOM      7  N   UNL     1       2.992   6.682  19.292  0.00  0.00    +0.000 N 
ATOM      8  C   UNL     1       3.231   6.860  17.955  0.00  0.00    +0.000 C 
ATOM      9  O   UNL     1       2.709   7.758  17.300  0.00  0.00    +0.000 OA
ATOM     10  C   UNL     1       4.184   5.910  17.325  0.00  0.00    +0.000 A 
ATOM     11  C   UNL     1       4.771   6.337  16.123  0.00  0.00    +0.000 A 
ATOM     12  C   UNL     1       5.798   5.588  15.611  0.00  0.00    +0.000 A 
ATOM     13  C   UNL     1       6.223   4.434  16.223  0.00  0.00    +0.000 A 
ATOM     14  C   UNL     1       5.623   3.948  17.373  0.00  0.00    +0.000 A 
ATOM     15  C   UNL     1       4.577   4.698  17.954  0.00  0.00    +0.000 A 
ATOM     16  C   UNL     1       4.014   4.306  19.315  0.00  0.00    +0.000 C 
ATOM     17  C   UNL     1       3.301   5.460  20.011  0.00  0.00    +0.000 C 
ATOM     18  O   UNL     1       7.303   3.895  15.591  0.00  0.00    +0.000 OA
ATOM     19  C   UNL     1       7.526   4.866  14.542  0.00  0.00    +0.000 C 
ATOM     20  O   UNL     1       6.538   5.913  14.519  0.00  0.00    +0.000 OA
ENDROOT
BRANCH   1  21
ATOM     21  O   UNL     1       2.601   2.475  18.379  0.00  0.00    +0.000 OA
BRANCH  21  23
ATOM     22  C   UNL     1       1.049   4.066  17.546  0.00  0.00    +0.000 C 
ATOM     23  C   UNL     1       1.284   2.837  18.370  0.00  0.00    +0.000 C 
ATOM     24  O   UNL     1       0.375   2.216  18.910  0.00  0.00    +0.000 OA
ENDBRANCH  21  23
ENDBRANCH   1  21
TORSDOF 2
ENDMDL
MODEL 2
REMARK VINA RESULT:      -7.5      5.200      8.393
REMARK  Name = 
REMARK  3 active torsions:
REMARK  status: ('A' for Active; 'I' for Inactive)
REMARK    1  A    between atoms: C_1  and  C_2
REMARK    2  A    between atoms: C_2  and  O_4
REMARK    3  A    between atoms: O_4  and  C_5
REMARK                            x       y       z     vdW  Elec       q    Type
REMARK                         _______ _______ _______ _____ _____    ______ ____
ROOT
ATOM      1  C   UNL     1       0.236  12.921  19.102  0.00  0.00    +0.000 C 
ATOM      2  C   UNL     1      -0.577  14.181  19.401  0.00  0.00    +0.000 C 
ATOM      3  C   UNL     1      -1.411  14.316  20.447  0.00  0.00    +0.000 C 
ATOM      4  C   UNL     1      -1.348  13.265  21.487  0.00  0.00    +0.000 C 
ATOM      5  C   UNL     1      -2.410  13.038  22.569  0.00  0.00    +0.000 C 
ATOM      6  C   UNL     1      -1.779  11.805  23.248  0.00  0.00    +0.000 C 
ATOM      7  N   UNL     1      -1.129  11.097  22.142  0.00  0.00    +0.000 N 
ATOM      8  C   UNL     1      -0.116  10.201  22.362  0.00  0.00    +0.000 C 
ATOM      9  O   UNL     1       0.184   9.797  23.482  0.00  0.00    +0.000 OA
ATOM     10  C   UNL     1       0.604   9.713  21.157  0.00  0.00    +0.000 A 
ATOM     11  C   UNL     1       1.303   8.504  21.307  0.00  0.00    +0.000 A 
ATOM     12  C   UNL     1       1.814   7.916  20.179  0.00  0.00    +0.000 A 
ATOM     13  C   UNL     1       1.687   8.500  18.942  0.00  0.00    +0.000 A 
ATOM     14  C   UNL     1       1.064   9.724  18.767  0.00  0.00    +0.000 A 
ATOM     15  C   UNL     1       0.498  10.358  19.895  0.00  0.00    +0.000 A 
ATOM     16  C   UNL     1      -0.359  11.607  19.726  0.00  0.00    +0.000 C 
ATOM     17  C   UNL     1      -1.287  11.849  20.912  0.00  0.00    +0.000 C 
ATOM     18  O   UNL     1       2.196   7.710  17.955  0.00  0.00    +0.000 OA
ATOM     19  C   UNL     1       2.615   6.552  18.714  0.00  0.00    +0.000 C 
ATOM     20  O   UNL     1       2.424   6.703  20.133  0.00  0.00    +0.000 OA
ENDROOT
BRANCH   1  21
ATOM     21  O   UNL     1       1.611  13.116  19.479  0.00  0.00    +0.000 OA
BRANCH  21  23
ATOM     22  C   UNL     1       2.963  14.618  18.233  0.00  0.00    +0.000 C 
ATOM     23  C   UNL     1       2.482  13.212  18.430  0.00  0.00    +0.000 C 
ATOM     24  O   UNL     1       2.884  12.272  17.755  0.00  0.00    +0.000 OA
ENDBRANCH  21  23
ENDBRANCH   1  21
TORSDOF 2
ENDMDL
MODEL 3
REMARK VINA RESULT:      -7.3      9.904     12.454
REMARK  Name = 
REMARK  3 active torsions:
REMARK  status: ('A' for Active; 'I' for Inactive)
REMARK    1  A    between atoms: C_1  and  C_2
REMARK    2  A    between atoms: C_2  and  O_4
REMARK    3  A    between atoms: O_4  and  C_5
REMARK                            x       y       z     vdW  Elec       q    Type
REMARK                         _______ _______ _______ _____ _____    ______ ____
ROOT
ATOM      1  C   UNL     1       9.644  15.936  19.490  0.00  0.00    +0.000 C 
ATOM      2  C   UNL     1      10.304  16.490  18.227  0.00  0.00    +0.000 C 
ATOM      3  C   UNL     1      11.024  15.755  17.361  0.00  0.00    +0.000 C 
ATOM      4  C   UNL     1      10.968  14.285  17.530  0.00  0.00    +0.000 C 
ATOM      5  C   UNL     1      11.944  13.292  16.892  0.00  0.00    +0.000 C 
ATOM      6  C   UNL     1      11.374  11.994  17.499  0.00  0.00    +0.000 C 
ATOM      7  N   UNL     1      10.896  12.412  18.820  0.00  0.00    +0.000 N 
ATOM      8  C   UNL     1       9.957  11.687  19.505  0.00  0.00    +0.000 C 
ATOM      9  O   UNL     1       9.596  10.566  19.155  0.00  0.00    +0.000 OA
ATOM     10  C   UNL     1       9.397  12.322  20.726  0.00  0.00    +0.000 A 
ATOM     11  C   UNL     1       8.805  11.451  21.655  0.00  0.00    +0.000 A 
ATOM     12  C   UNL     1       8.456  11.961  22.878  0.00  0.00    +0.000 A 
ATOM     13  C   UNL     1       8.637  13.287  23.184  0.00  0.00    +0.000 A 
ATOM     14  C   UNL     1       9.156  14.188  22.269  0.00  0.00    +0.000 A 
ATOM     15  C   UNL     1       9.555  13.707  21.003  0.00  0.00    +0.000 A 
ATOM     16  C   UNL     1      10.302  14.617  20.035  0.00  0.00    +0.000 C 
ATOM     17  C   UNL     1      11.093  13.840  18.988  0.00  0.00    +0.000 C 
ATOM     18  O   UNL     1       8.297  13.560  24.475  0.00  0.00    +0.000 OA
ATOM     19  C   UNL     1       7.922  12.245  24.948  0.00  0.00    +0.000 C 
ATOM     20  O   UNL     1       7.970  11.237  23.920  0.00  0.00    +0.000 OA
ENDROOT
BRANCH   1  21
ATOM     21  O   UNL     1       8.228  15.781  19.283  0.00  0.00    +0.000 OA
BRANCH  21  23
ATOM     22  C   UNL     1       7.564  17.365  20.922  0.00  0.00    +0.000 C 
ATOM     23  C   UNL     1       7.494  16.914  19.494  0.00  0.00    +0.000 C 
ATOM     24  O   UNL     1       6.893  17.540  18.629  0.00  0.00    +0.000 OA
ENDBRANCH  21  23
ENDBRANCH   1  21
TORSDOF 2
ENDMDL
MODEL 4
REMARK VINA RESULT:      -7.3      0.941      1.176
REMARK  Name = 
REMARK  3 active torsions:
REMARK  status: ('A' for Active; 'I' for Inactive)
REMARK    1  A    between atoms: C_1  and  C_2
REMARK    2  A    between atoms: C_2  and  O_4
REMARK    3  A    between atoms: O_4  and  C_5
REMARK                            x       y       z     vdW  Elec       q    Type
REMARK                         _______ _______ _______ _____ _____    ______ ____
ROOT
ATOM      1  C   UNL     1       2.812   3.895  19.722  0.00  0.00    +0.000 C 
ATOM      2  C   UNL     1       1.864   4.064  20.909  0.00  0.00    +0.000 C 
ATOM      3  C   UNL     1       1.375   5.245  21.328  0.00  0.00    +0.000 C 
ATOM      4  C   UNL     1       1.587   6.407  20.436  0.00  0.00    +0.000 C 
ATOM      5  C   UNL     1       1.418   7.873  20.850  0.00  0.00    +0.000 C 
ATOM      6  C   UNL     1       1.833   8.532  19.519  0.00  0.00    +0.000 C 
ATOM      7  N   UNL     1       2.852   7.622  18.986  0.00  0.00    +0.000 N 
ATOM      8  C   UNL     1       3.169   7.603  17.654  0.00  0.00    +0.000 C 
ATOM      9  O   UNL     1       2.769   8.452  16.862  0.00  0.00    +0.000 OA
ATOM     10  C   UNL     1       4.053   6.497  17.203  0.00  0.00    +0.000 A 
ATOM     11  C   UNL     1       4.734   6.709  15.994  0.00  0.00    +0.000 A 
ATOM     12  C   UNL     1       5.707   5.810  15.641  0.00  0.00    +0.000 A 
ATOM     13  C   UNL     1       5.988   4.712  16.416  0.00  0.00    +0.000 A 
ATOM     14  C   UNL     1       5.290   4.435  17.580  0.00  0.00    +0.000 A 
ATOM     15  C   UNL     1       4.296   5.346  18.001  0.00  0.00    +0.000 A 
ATOM     16  C   UNL     1       3.635   5.186  19.365  0.00  0.00    +0.000 C 
ATOM     17  C   UNL     1       3.006   6.481  19.869  0.00  0.00    +0.000 C 
ATOM     18  O   UNL     1       7.039   3.999  15.921  0.00  0.00    +0.000 OA
ATOM     19  C   UNL     1       7.404   4.801  14.774  0.00  0.00    +0.000 C 
ATOM     20  O   UNL     1       6.525   5.922  14.562  0.00  0.00    +0.000 OA
ENDROOT
BRANCH   1  21
ATOM     21  O   UNL     1       2.095   3.386  18.583  0.00  0.00    +0.000 OA
BRANCH  21  23
ATOM     22  C   UNL     1       3.327   1.365  18.402  0.00  0.00    +0.000 C 
ATOM     23  C   UNL     1       1.988   2.025  18.538  0.00  0.00    +0.000 C 
ATOM     24  O   UNL     1       0.946   1.392  18.655  0.00  0.00    +0.000 OA
ENDBRANCH  21  23
ENDBRANCH   1  21
TORSDOF 2
ENDMDL
MODEL 5
REMARK VINA RESULT:      -7.2      8.269     11.006
REMARK  Name = 
REMARK  3 active torsions:
REMARK  status: ('A' for Active; 'I' for Inactive)
REMARK    1  A    between atoms: C_1  and  C_2
REMARK    2  A    between atoms: C_2  and  O_4
REMARK    3  A    between atoms: O_4  and  C_5
REMARK                            x       y       z     vdW  Elec       q    Type
REMARK                         _______ _______ _______ _____ _____    ______ ____
ROOT
ATOM      1  C   UNL     1      -1.342  12.758  22.023  0.00  0.00    +0.000 C 
ATOM      2  C   UNL     1      -1.194  13.472  23.368  0.00  0.00    +0.000 C 
ATOM      3  C   UNL     1      -2.157  14.212  23.944  0.00  0.00    +0.000 C 
ATOM      4  C   UNL     1      -3.508  14.128  23.345  0.00  0.00    +0.000 C 
ATOM      5  C   UNL     1      -4.651  15.113  23.618  0.00  0.00    +0.000 C 
ATOM      6  C   UNL     1      -5.705  14.502  22.673  0.00  0.00    +0.000 C 
ATOM      7  N   UNL     1      -4.909  13.982  21.557  0.00  0.00    +0.000 N 
ATOM      8  C   UNL     1      -5.392  13.008  20.724  0.00  0.00    +0.000 C 
ATOM      9  O   UNL     1      -6.565  12.644  20.736  0.00  0.00    +0.000 OA
ATOM     10  C   UNL     1      -4.419  12.413  19.772  0.00  0.00    +0.000 A 
ATOM     11  C   UNL     1      -4.970  11.775  18.649  0.00  0.00    +0.000 A 
ATOM     12  C   UNL     1      -4.115  11.389  17.650  0.00  0.00    +0.000 A 
ATOM     13  C   UNL     1      -2.759  11.578  17.748  0.00  0.00    +0.000 A 
ATOM     14  C   UNL     1      -2.175  12.143  18.870  0.00  0.00    +0.000 A 
ATOM     15  C   UNL     1      -3.015  12.582  19.917  0.00  0.00    +0.000 A 
ATOM     16  C   UNL     1      -2.439  13.377  21.083  0.00  0.00    +0.000 C 
ATOM     17  C   UNL     1      -3.497  14.193  21.817  0.00  0.00    +0.000 C 
ATOM     18  O   UNL     1      -2.110  11.195  16.612  0.00  0.00    +0.000 OA
ATOM     19  C   UNL     1      -3.222  10.784  15.782  0.00  0.00    +0.000 C 
ATOM     20  O   UNL     1      -4.491  10.854  16.458  0.00  0.00    +0.000 OA
ENDROOT
BRANCH   1  21
ATOM     21  O   UNL     1      -1.547  11.349  22.229  0.00  0.00    +0.000 OA
BRANCH  21  23
ATOM     22  C   UNL     1       0.445  10.564  21.206  0.00  0.00    +0.000 C 
ATOM     23  C   UNL     1      -0.404  10.631  22.439  0.00  0.00    +0.000 C 
ATOM     24  O   UNL     1      -0.060  10.142  23.509  0.00  0.00    +0.000 OA
ENDBRANCH  21  23
ENDBRANCH   1  21
TORSDOF 2
ENDMDL
MODEL 6
REMARK VINA RESULT:      -7.0     10.126     12.264
REMARK  Name = 
REMARK  3 active torsions:
REMARK  status: ('A' for Active; 'I' for Inactive)
REMARK    1  A    between atoms: C_1  and  C_2
REMARK    2  A    between atoms: C_2  and  O_4
REMARK    3  A    between atoms: O_4  and  C_5
REMARK                            x       y       z     vdW  Elec       q    Type
REMARK                         _______ _______ _______ _____ _____    ______ ____
ROOT
ATOM      1  C   UNL     1       9.353  12.394  20.016  0.00  0.00    +0.000 C 
ATOM      2  C   UNL     1      10.433  11.385  19.626  0.00  0.00    +0.000 C 
ATOM      3  C   UNL     1      11.369  11.600  18.685  0.00  0.00    +0.000 C 
ATOM      4  C   UNL     1      11.492  12.984  18.174  0.00  0.00    +0.000 C 
ATOM      5  C   UNL     1      12.237  13.384  16.896  0.00  0.00    +0.000 C 
ATOM      6  C   UNL     1      11.936  14.896  16.923  0.00  0.00    +0.000 C 
ATOM      7  N   UNL     1      10.597  14.971  17.517  0.00  0.00    +0.000 N 
ATOM      8  C   UNL     1      10.136  16.119  18.103  0.00  0.00    +0.000 C 
ATOM      9  O   UNL     1      10.721  17.195  18.010  0.00  0.00    +0.000 OA
ATOM     10  C   UNL     1       8.860  16.008  18.855  0.00  0.00    +0.000 A 
ATOM     11  C   UNL     1       8.163  17.209  19.063  0.00  0.00    +0.000 A 
ATOM     12  C   UNL     1       6.893  17.132  19.573  0.00  0.00    +0.000 A 
ATOM     13  C   UNL     1       6.324  15.928  19.911  0.00  0.00    +0.000 A 
ATOM     14  C   UNL     1       7.007  14.730  19.782  0.00  0.00    +0.000 A 
ATOM     15  C   UNL     1       8.309  14.754  19.237  0.00  0.00    +0.000 A 
ATOM     16  C   UNL     1       9.026  13.451  18.900  0.00  0.00    +0.000 C 
ATOM     17  C   UNL     1      10.143  13.641  17.879  0.00  0.00    +0.000 C 
ATOM     18  O   UNL     1       5.033  16.076  20.321  0.00  0.00    +0.000 OA
ATOM     19  C   UNL     1       4.852  17.503  20.162  0.00  0.00    +0.000 C 
ATOM     20  O   UNL     1       6.048  18.183  19.740  0.00  0.00    +0.000 OA
ENDROOT
BRANCH   1  21
ATOM     21  O   UNL     1       9.688  13.022  21.266  0.00  0.00    +0.000 OA
BRANCH  21  23
ATOM     22  C   UNL     1       8.561  13.889  23.166  0.00  0.00    +0.000 C 
ATOM     23  C   UNL     1       8.863  12.700  22.306  0.00  0.00    +0.000 C 
ATOM     24  O   UNL     1       8.366  11.596  22.501  0.00  0.00    +0.000 OA
ENDBRANCH  21  23
ENDBRANCH   1  21
TORSDOF 2
ENDMDL
MODEL 7
REMARK VINA RESULT:      -7.0      8.740     11.065
REMARK  Name = 
REMARK  3 active torsions:
REMARK  status: ('A' for Active; 'I' for Inactive)
REMARK    1  A    between atoms: C_1  and  C_2
REMARK    2  A    between atoms: C_2  and  O_4
REMARK    3  A    between atoms: O_4  and  C_5
REMARK                            x       y       z     vdW  Elec       q    Type
REMARK                         _______ _______ _______ _____ _____    ______ ____
ROOT
ATOM      1  C   UNL     1      -4.625  13.254  21.873  0.00  0.00    +0.000 C 
ATOM      2  C   UNL     1      -6.146  13.171  22.001  0.00  0.00    +0.000 C 
ATOM      3  C   UNL     1      -6.960  12.649  21.067  0.00  0.00    +0.000 C 
ATOM      4  C   UNL     1      -6.312  11.902  19.964  0.00  0.00    +0.000 C 
ATOM      5  C   UNL     1      -6.994  11.520  18.646  0.00  0.00    +0.000 C 
ATOM      6  C   UNL     1      -5.791  10.842  17.959  0.00  0.00    +0.000 C 
ATOM      7  N   UNL     1      -4.638  11.603  18.452  0.00  0.00    +0.000 N 
ATOM      8  C   UNL     1      -3.372  11.081  18.429  0.00  0.00    +0.000 C 
ATOM      9  O   UNL     1      -3.091  10.041  17.839  0.00  0.00    +0.000 OA
ATOM     10  C   UNL     1      -2.328  11.855  19.149  0.00  0.00    +0.000 A 
ATOM     11  C   UNL     1      -1.001  11.597  18.769  0.00  0.00    +0.000 A 
ATOM     12  C   UNL     1      -0.024  12.423  19.259  0.00  0.00    +0.000 A 
ATOM     13  C   UNL     1      -0.314  13.448  20.126  0.00  0.00    +0.000 A 
ATOM     14  C   UNL     1      -1.602  13.690  20.574  0.00  0.00    +0.000 A 
ATOM     15  C   UNL     1      -2.649  12.882  20.078  0.00  0.00    +0.000 A 
ATOM     16  C   UNL     1      -4.100  13.226  20.392  0.00  0.00    +0.000 C 
ATOM     17  C   UNL     1      -5.079  12.610  19.399  0.00  0.00    +0.000 C 
ATOM     18  O   UNL     1       0.791  14.189  20.422  0.00  0.00    +0.000 OA
ATOM     19  C   UNL     1       1.793  13.531  19.610  0.00  0.00    +0.000 C 
ATOM     20  O   UNL     1       1.290  12.376  18.914  0.00  0.00    +0.000 OA
ENDROOT
BRANCH   1  21
ATOM     21  O   UNL     1      -4.003  12.237  22.680  0.00  0.00    +0.000 OA
BRANCH  21  23
ATOM     22  C   UNL     1      -3.134  13.798  24.241  0.00  0.00    +0.000 C 
ATOM     23  C   UNL     1      -3.912  12.539  24.009  0.00  0.00    +0.000 C 
ATOM     24  O   UNL     1      -4.444  11.911  24.916  0.00  0.00    +0.000 OA
ENDBRANCH  21  23
ENDBRANCH   1  21
TORSDOF 2
ENDMDL
MODEL 8
REMARK VINA RESULT:      -7.0      5.896      9.130
REMARK  Name = 
REMARK  3 active torsions:
REMARK  status: ('A' for Active; 'I' for Inactive)
REMARK    1  A    between atoms: C_1  and  C_2
REMARK    2  A    between atoms: C_2  and  O_4
REMARK    3  A    between atoms: O_4  and  C_5
REMARK                            x       y       z     vdW  Elec       q    Type
REMARK                         _______ _______ _______ _____ _____    ______ ____
ROOT
ATOM      1  C   UNL     1      -0.278  13.851  19.488  0.00  0.00    +0.000 C 
ATOM      2  C   UNL     1      -1.140  15.013  19.983  0.00  0.00    +0.000 C 
ATOM      3  C   UNL     1      -1.960  14.950  21.047  0.00  0.00    +0.000 C 
ATOM      4  C   UNL     1      -1.831  13.758  21.916  0.00  0.00    +0.000 C 
ATOM      5  C   UNL     1      -2.861  13.322  22.964  0.00  0.00    +0.000 C 
ATOM      6  C   UNL     1      -2.164  12.033  23.442  0.00  0.00    +0.000 C 
ATOM      7  N   UNL     1      -1.504  11.529  22.234  0.00  0.00    +0.000 N 
ATOM      8  C   UNL     1      -0.449  10.658  22.303  0.00  0.00    +0.000 C 
ATOM      9  O   UNL     1      -0.110  10.105  23.346  0.00  0.00    +0.000 OA
ATOM     10  C   UNL     1       0.270  10.392  21.031  0.00  0.00    +0.000 A 
ATOM     11  C   UNL     1       1.023   9.207  20.988  0.00  0.00    +0.000 A 
ATOM     12  C   UNL     1       1.538   8.820  19.778  0.00  0.00    +0.000 A 
ATOM     13  C   UNL     1       1.363   9.577  18.645  0.00  0.00    +0.000 A 
ATOM     14  C   UNL     1       0.683  10.783  18.664  0.00  0.00    +0.000 A 
ATOM     15  C   UNL     1       0.111  11.213  19.882  0.00  0.00    +0.000 A 
ATOM     16  C   UNL     1      -0.803  12.432  19.913  0.00  0.00    +0.000 C 
ATOM     17  C   UNL     1      -1.719  12.450  21.133  0.00  0.00    +0.000 C 
ATOM     18  O   UNL     1       1.887   8.968  17.544  0.00  0.00    +0.000 OA
ATOM     19  C   UNL     1       2.372   7.729  18.115  0.00  0.00    +0.000 C 
ATOM     20  O   UNL     1       2.201   7.657  19.543  0.00  0.00    +0.000 OA
ENDROOT
BRANCH   1  21
ATOM     21  O   UNL     1       1.094  14.051  19.873  0.00  0.00    +0.000 OA
BRANCH  21  23
ATOM     22  C   UNL     1       2.873  13.591  18.370  0.00  0.00    +0.000 C 
ATOM     23  C   UNL     1       1.887  14.589  18.899  0.00  0.00    +0.000 C 
ATOM     24  O   UNL     1       1.786  15.724  18.449  0.00  0.00    +0.000 OA
ENDBRANCH  21  23
ENDBRANCH   1  21
TORSDOF 2
ENDMDL
MODEL 9
REMARK VINA RESULT:      -6.9      7.966     11.522
REMARK  Name = 
REMARK  3 active torsions:
REMARK  status: ('A' for Active; 'I' for Inactive)
REMARK    1  A    between atoms: C_1  and  C_2
REMARK    2  A    between atoms: C_2  and  O_4
REMARK    3  A    between atoms: O_4  and  C_5
REMARK                            x       y       z     vdW  Elec       q    Type
REMARK                         _______ _______ _______ _____ _____    ______ ____
ROOT
ATOM      1  C   UNL     1      -4.043  11.600  18.155  0.00  0.00    +0.000 C 
ATOM      2  C   UNL     1      -3.515  10.820  16.951  0.00  0.00    +0.000 C 
ATOM      3  C   UNL     1      -2.284  10.285  16.873  0.00  0.00    +0.000 C 
ATOM      4  C   UNL     1      -1.492  10.254  18.125  0.00  0.00    +0.000 C 
ATOM      5  C   UNL     1       0.018  10.006  18.200  0.00  0.00    +0.000 C 
ATOM      6  C   UNL     1       0.195  10.160  19.725  0.00  0.00    +0.000 C 
ATOM      7  N   UNL     1      -0.799  11.175  20.087  0.00  0.00    +0.000 N 
ATOM      8  C   UNL     1      -1.263  11.298  21.369  0.00  0.00    +0.000 C 
ATOM      9  O   UNL     1      -0.756  10.709  22.320  0.00  0.00    +0.000 OA
ATOM     10  C   UNL     1      -2.419  12.210  21.567  0.00  0.00    +0.000 A 
ATOM     11  C   UNL     1      -2.608  12.688  22.874  0.00  0.00    +0.000 A 
ATOM     12  C   UNL     1      -3.532  13.681  23.065  0.00  0.00    +0.000 A 
ATOM     13  C   UNL     1      -4.284  14.175  22.026  0.00  0.00    +0.000 A 
ATOM     14  C   UNL     1      -4.171  13.681  20.737  0.00  0.00    +0.000 A 
ATOM     15  C   UNL     1      -3.214  12.675  20.484  0.00  0.00    +0.000 A 
ATOM     16  C   UNL     1      -2.921  12.234  19.054  0.00  0.00    +0.000 C 
ATOM     17  C   UNL     1      -1.559  11.563  18.913  0.00  0.00    +0.000 C 
ATOM     18  O   UNL     1      -5.079  15.208  22.424  0.00  0.00    +0.000 OA
ATOM     19  C   UNL     1      -4.707  15.326  23.817  0.00  0.00    +0.000 C 
ATOM     20  O   UNL     1      -3.765  14.322  24.240  0.00  0.00    +0.000 OA
ENDROOT
BRANCH   1  21
ATOM     21  O   UNL     1      -4.943  10.780  18.922  0.00  0.00    +0.000 OA
BRANCH  21  23
ATOM     22  C   UNL     1      -6.922  11.122  20.186  0.00  0.00    +0.000 C 
ATOM     23  C   UNL     1      -6.256  11.147  18.843  0.00  0.00    +0.000 C 
ATOM     24  O   UNL     1      -6.830  11.515  17.825  0.00  0.00    +0.000 OA
ENDBRANCH  21  23
ENDBRANCH   1  21
TORSDOF 2
ENDMDL
