MODEL 1
REMARK VINA RESULT:      -7.3      0.000      0.000
REMARK  Name = 
REMARK  20 active torsions:
REMARK  status: ('A' for Active; 'I' for Inactive)
REMARK    1  A    between atoms: C_1  and  O_2
REMARK    2  A    between atoms: O_2  and  C_3
REMARK    3  A    between atoms: C_5  and  O_6
REMARK    4  A    between atoms: C_7  and  C_8
REMARK    5  A    between atoms: C_8  and  C_10
REMARK    6  A    between atoms: C_10  and  C_11
REMARK    7  A    between atoms: C_11  and  C_12
REMARK    8  A    between atoms: C_12  and  C_13
REMARK    9  A    between atoms: C_13  and  C_14
REMARK   10  A    between atoms: C_14  and  C_15
REMARK   11  A    between atoms: C_15  and  C_16
REMARK   12  A    between atoms: C_16  and  C_17
REMARK   13  A    between atoms: C_17  and  C_18
REMARK   14  A    between atoms: C_18  and  C_19
REMARK   15  A    between atoms: C_19  and  C_20
REMARK   16  A    between atoms: C_21  and  O_22
REMARK   17  A    between atoms: C_26  and  O_27
REMARK   18  A    between atoms: O_27  and  C_28
REMARK   19  A    between atoms: C_28  and  C_29
REMARK   20  A    between atoms: C_31  and  O_32
REMARK                            x       y       z     vdW  Elec       q    Type
REMARK                         _______ _______ _______ _____ _____    ______ ____
ROOT
ATOM      1  C   UNL     1       1.142   5.247  20.415  0.00  0.00    +0.000 C 
ENDROOT
BRANCH   1   2
ATOM      2  C   UNL     1       2.551   5.792  20.149  0.00  0.00    +0.000 C 
BRANCH   2   3
ATOM      3  C   UNL     1       2.513   7.045  19.268  0.00  0.00    +0.000 C 
BRANCH   3   4
ATOM      4  C   UNL     1       1.557   8.080  19.852  0.00  0.00    +0.000 C 
BRANCH   4   5
ATOM      5  C   UNL     1       1.312   9.298  19.001  0.00  0.00    +0.000 C 
ATOM      6  O   UNL     1       1.993   9.561  18.009  0.00  0.00    +0.000 OA
BRANCH   5  10
ATOM      7  C   UNL     1      -1.793  12.097  20.083  0.00  0.00    +0.000 A 
ATOM      8  C   UNL     1      -0.767  11.823  20.994  0.00  0.00    +0.000 A 
ATOM      9  C   UNL     1       0.246  10.927  20.667  0.00  0.00    +0.000 A 
ATOM     10  C   UNL     1       0.253  10.266  19.428  0.00  0.00    +0.000 A 
ATOM     11  C   UNL     1      -0.798  10.531  18.535  0.00  0.00    +0.000 A 
ATOM     12  C   UNL     1      -1.805  11.447  18.849  0.00  0.00    +0.000 A 
BRANCH  11  13
ATOM     13  O   UNL     1      -0.907   9.931  17.307  0.00  0.00    +0.000 OA
ATOM     14  H   UNL     1      -0.958   8.957  17.450  0.00  0.00    +0.000 HD
ENDBRANCH  11  13
BRANCH   7  16
ATOM     15  C   UNL     1      -4.078  12.671  20.189  0.00  0.00    +0.000 C 
ATOM     16  O   UNL     1      -2.732  12.978  20.532  0.00  0.00    +0.000 OA
ENDBRANCH   7  16
BRANCH   9  17
ATOM     17  O   UNL     1       1.219  10.720  21.607  0.00  0.00    +0.000 OA
ATOM     18  H   UNL     1       1.799   9.988  21.335  0.00  0.00    +0.000 HD
ENDBRANCH   9  17
ENDBRANCH   5  10
ENDBRANCH   4   5
ENDBRANCH   3   4
ENDBRANCH   2   3
ENDBRANCH   1   2
BRANCH   1  19
ATOM     19  C   UNL     1       1.075   3.743  20.266  0.00  0.00    +0.000 C 
BRANCH  19  20
ATOM     20  C   UNL     1       2.477   3.237  19.971  0.00  0.00    +0.000 C 
BRANCH  20  21
ATOM     21  C   UNL     1       2.424   2.111  18.961  0.00  0.00    +0.000 C 
BRANCH  21  22
ATOM     22  C   UNL     1       2.159   2.688  17.584  0.00  0.00    +0.000 C 
BRANCH  22  23
ATOM     23  C   UNL     1       3.023   3.904  17.314  0.00  0.00    +0.000 C 
BRANCH  23  24
ATOM     24  C   UNL     1       4.477   3.641  16.920  0.00  0.00    +0.000 C 
BRANCH  24  25
ATOM     25  C   UNL     1       5.522   4.605  17.460  0.00  0.00    +0.000 A 
ATOM     26  C   UNL     1       5.952   4.702  18.804  0.00  0.00    +0.000 A 
ATOM     27  C   UNL     1       6.947   5.604  19.187  0.00  0.00    +0.000 A 
ATOM     28  C   UNL     1       7.577   6.410  18.254  0.00  0.00    +0.000 A 
ATOM     29  C   UNL     1       7.207   6.326  16.920  0.00  0.00    +0.000 A 
ATOM     30  C   UNL     1       6.169   5.469  16.530  0.00  0.00    +0.000 A 
BRANCH  26  31
ATOM     31  O   UNL     1       5.548   3.958  19.876  0.00  0.00    +0.000 OA
ATOM     32  H   UNL     1       5.581   4.440  20.705  0.00  0.00    +0.000 HD
ENDBRANCH  26  31
BRANCH  30  33
ATOM     33  O   UNL     1       5.818   5.382  15.146  0.00  0.00    +0.000 OA
BRANCH  33  34
ATOM     34  C   UNL     1       6.742   4.940  14.189  0.00  0.00    +0.000 C 
ATOM     35  C   UNL     1       6.176   3.817  13.370  0.00  0.00    +0.000 C 
ATOM     36  O   UNL     1       7.872   5.375  14.009  0.00  0.00    +0.000 OA
ENDBRANCH  33  34
ENDBRANCH  30  33
ENDBRANCH  24  25
ENDBRANCH  23  24
ENDBRANCH  22  23
ENDBRANCH  21  22
ENDBRANCH  20  21
ENDBRANCH  19  20
ENDBRANCH   1  19
TORSDOF 18
ENDMDL
MODEL 2
REMARK VINA RESULT:      -7.0      1.496      2.261
REMARK  Name = 
REMARK  20 active torsions:
REMARK  status: ('A' for Active; 'I' for Inactive)
REMARK    1  A    between atoms: C_1  and  O_2
REMARK    2  A    between atoms: O_2  and  C_3
REMARK    3  A    between atoms: C_5  and  O_6
REMARK    4  A    between atoms: C_7  and  C_8
REMARK    5  A    between atoms: C_8  and  C_10
REMARK    6  A    between atoms: C_10  and  C_11
REMARK    7  A    between atoms: C_11  and  C_12
REMARK    8  A    between atoms: C_12  and  C_13
REMARK    9  A    between atoms: C_13  and  C_14
REMARK   10  A    between atoms: C_14  and  C_15
REMARK   11  A    between atoms: C_15  and  C_16
REMARK   12  A    between atoms: C_16  and  C_17
REMARK   13  A    between atoms: C_17  and  C_18
REMARK   14  A    between atoms: C_18  and  C_19
REMARK   15  A    between atoms: C_19  and  C_20
REMARK   16  A    between atoms: C_21  and  O_22
REMARK   17  A    between atoms: C_26  and  O_27
REMARK   18  A    between atoms: O_27  and  C_28
REMARK   19  A    between atoms: C_28  and  C_29
REMARK   20  A    between atoms: C_31  and  O_32
REMARK                            x       y       z     vdW  Elec       q    Type
REMARK                         _______ _______ _______ _____ _____    ______ ____
ROOT
ATOM      1  C   UNL     1       0.729   3.476  19.698  0.00  0.00    +0.000 C 
ENDROOT
BRANCH   1   2
ATOM      2  C   UNL     1       1.666   3.526  20.911  0.00  0.00    +0.000 C 
BRANCH   2   3
ATOM      3  C   UNL     1       2.062   4.965  21.258  0.00  0.00    +0.000 C 
BRANCH   3   4
ATOM      4  C   UNL     1       1.372   5.951  20.320  0.00  0.00    +0.000 C 
BRANCH   4   5
ATOM      5  C   UNL     1       2.244   7.045  19.765  0.00  0.00    +0.000 C 
ATOM      6  O   UNL     1       3.393   6.840  19.369  0.00  0.00    +0.000 OA
BRANCH   5  10
ATOM      7  C   UNL     1       0.790  11.108  19.632  0.00  0.00    +0.000 A 
ATOM      8  C   UNL     1       0.826  10.431  20.856  0.00  0.00    +0.000 A 
ATOM      9  C   UNL     1       1.293   9.122  20.925  0.00  0.00    +0.000 A 
ATOM     10  C   UNL     1       1.720   8.447  19.769  0.00  0.00    +0.000 A 
ATOM     11  C   UNL     1       1.652   9.131  18.545  0.00  0.00    +0.000 A 
ATOM     12  C   UNL     1       1.206  10.453  18.474  0.00  0.00    +0.000 A 
BRANCH  11  13
ATOM     13  O   UNL     1       2.023   8.568  17.350  0.00  0.00    +0.000 OA
ATOM     14  H   UNL     1       1.226   8.531  16.773  0.00  0.00    +0.000 HD
ENDBRANCH  11  13
BRANCH   7  16
ATOM     15  C   UNL     1      -1.087  12.515  19.393  0.00  0.00    +0.000 C 
ATOM     16  O   UNL     1       0.295  12.377  19.699  0.00  0.00    +0.000 OA
ENDBRANCH   7  16
BRANCH   9  17
ATOM     17  O   UNL     1       1.307   8.532  22.159  0.00  0.00    +0.000 OA
ATOM     18  H   UNL     1       1.359   7.564  22.068  0.00  0.00    +0.000 HD
ENDBRANCH   9  17
ENDBRANCH   5  10
ENDBRANCH   4   5
ENDBRANCH   3   4
ENDBRANCH   2   3
ENDBRANCH   1   2
BRANCH   1  19
ATOM     19  C   UNL     1       1.052   2.322  18.775  0.00  0.00    +0.000 C 
BRANCH  19  20
ATOM     20  C   UNL     1       2.350   2.646  18.054  0.00  0.00    +0.000 C 
BRANCH  20  21
ATOM     21  C   UNL     1       3.487   1.832  18.635  0.00  0.00    +0.000 C 
BRANCH  21  22
ATOM     22  C   UNL     1       4.496   2.767  19.270  0.00  0.00    +0.000 C 
BRANCH  22  23
ATOM     23  C   UNL     1       4.781   3.964  18.384  0.00  0.00    +0.000 C 
BRANCH  23  24
ATOM     24  C   UNL     1       6.197   4.080  17.819  0.00  0.00    +0.000 C 
BRANCH  24  25
ATOM     25  C   UNL     1       6.885   5.429  17.958  0.00  0.00    +0.000 A 
ATOM     26  C   UNL     1       7.614   5.882  19.082  0.00  0.00    +0.000 A 
ATOM     27  C   UNL     1       8.237   7.132  19.091  0.00  0.00    +0.000 A 
ATOM     28  C   UNL     1       8.197   7.957  17.980  0.00  0.00    +0.000 A 
ATOM     29  C   UNL     1       7.517   7.541  16.846  0.00  0.00    +0.000 A 
ATOM     30  C   UNL     1       6.837   6.315  16.843  0.00  0.00    +0.000 A 
BRANCH  26  31
ATOM     31  O   UNL     1       7.869   5.216  20.248  0.00  0.00    +0.000 OA
ATOM     32  H   UNL     1       8.804   5.066  20.401  0.00  0.00    +0.000 HD
ENDBRANCH  26  31
BRANCH  30  33
ATOM     33  O   UNL     1       6.161   5.894  15.655  0.00  0.00    +0.000 OA
BRANCH  33  34
ATOM     34  C   UNL     1       6.846   5.235  14.625  0.00  0.00    +0.000 C 
ATOM     35  C   UNL     1       6.063   4.055  14.125  0.00  0.00    +0.000 C 
ATOM     36  O   UNL     1       7.939   5.537  14.163  0.00  0.00    +0.000 OA
ENDBRANCH  33  34
ENDBRANCH  30  33
ENDBRANCH  24  25
ENDBRANCH  23  24
ENDBRANCH  22  23
ENDBRANCH  21  22
ENDBRANCH  20  21
ENDBRANCH  19  20
ENDBRANCH   1  19
TORSDOF 18
ENDMDL
MODEL 3
REMARK VINA RESULT:      -7.0      5.899      8.807
REMARK  Name = 
REMARK  20 active torsions:
REMARK  status: ('A' for Active; 'I' for Inactive)
REMARK    1  A    between atoms: C_1  and  O_2
REMARK    2  A    between atoms: O_2  and  C_3
REMARK    3  A    between atoms: C_5  and  O_6
REMARK    4  A    between atoms: C_7  and  C_8
REMARK    5  A    between atoms: C_8  and  C_10
REMARK    6  A    between atoms: C_10  and  C_11
REMARK    7  A    between atoms: C_11  and  C_12
REMARK    8  A    between atoms: C_12  and  C_13
REMARK    9  A    between atoms: C_13  and  C_14
REMARK   10  A    between atoms: C_14  and  C_15
REMARK   11  A    between atoms: C_15  and  C_16
REMARK   12  A    between atoms: C_16  and  C_17
REMARK   13  A    between atoms: C_17  and  C_18
REMARK   14  A    between atoms: C_18  and  C_19
REMARK   15  A    between atoms: C_19  and  C_20
REMARK   16  A    between atoms: C_21  and  O_22
REMARK   17  A    between atoms: C_26  and  O_27
REMARK   18  A    between atoms: O_27  and  C_28
REMARK   19  A    between atoms: C_28  and  C_29
REMARK   20  A    between atoms: C_31  and  O_32
REMARK                            x       y       z     vdW  Elec       q    Type
REMARK                         _______ _______ _______ _____ _____    ______ ____
ROOT
ATOM      1  C   UNL     1       8.982   9.017  18.476  0.00  0.00    +0.000 C 
ENDROOT
BRANCH   1   2
ATOM      2  C   UNL     1       8.823  10.453  18.989  0.00  0.00    +0.000 C 
BRANCH   2   3
ATOM      3  C   UNL     1       9.418  11.470  18.011  0.00  0.00    +0.000 C 
BRANCH   3   4
ATOM      4  C   UNL     1      10.934  11.539  18.166  0.00  0.00    +0.000 C 
BRANCH   4   5
ATOM      5  C   UNL     1      11.433  12.054  19.489  0.00  0.00    +0.000 C 
ATOM      6  O   UNL     1      12.290  11.464  20.150  0.00  0.00    +0.000 OA
BRANCH   5  10
ATOM      7  C   UNL     1       9.533  15.520  21.228  0.00  0.00    +0.000 A 
ATOM      8  C   UNL     1      10.280  15.662  20.053  0.00  0.00    +0.000 A 
ATOM      9  C   UNL     1      10.899  14.560  19.473  0.00  0.00    +0.000 A 
ATOM     10  C   UNL     1      10.804  13.287  20.059  0.00  0.00    +0.000 A 
ATOM     11  C   UNL     1      10.074  13.166  21.252  0.00  0.00    +0.000 A 
ATOM     12  C   UNL     1       9.431  14.265  21.827  0.00  0.00    +0.000 A 
BRANCH  11  13
ATOM     13  O   UNL     1       9.930  11.979  21.925  0.00  0.00    +0.000 OA
ATOM     14  H   UNL     1      10.521  11.316  21.498  0.00  0.00    +0.000 HD
ENDBRANCH  11  13
BRANCH   7  16
ATOM     15  C   UNL     1       7.684  16.570  22.247  0.00  0.00    +0.000 C 
ATOM     16  O   UNL     1       8.993  16.678  21.703  0.00  0.00    +0.000 OA
ENDBRANCH   7  16
BRANCH   9  17
ATOM     17  O   UNL     1      11.602  14.779  18.319  0.00  0.00    +0.000 OA
ATOM     18  H   UNL     1      12.250  14.067  18.180  0.00  0.00    +0.000 HD
ENDBRANCH   9  17
ENDBRANCH   5  10
ENDBRANCH   4   5
ENDBRANCH   3   4
ENDBRANCH   2   3
ENDBRANCH   1   2
BRANCH   1  19
ATOM     19  C   UNL     1       7.720   8.501  17.822  0.00  0.00    +0.000 C 
BRANCH  19  20
ATOM     20  C   UNL     1       7.678   6.993  18.003  0.00  0.00    +0.000 C 
BRANCH  20  21
ATOM     21  C   UNL     1       6.445   6.421  17.339  0.00  0.00    +0.000 C 
BRANCH  21  22
ATOM     22  C   UNL     1       5.973   5.211  18.120  0.00  0.00    +0.000 C 
BRANCH  22  23
ATOM     23  C   UNL     1       5.001   4.371  17.316  0.00  0.00    +0.000 C 
BRANCH  23  24
ATOM     24  C   UNL     1       3.547   4.843  17.283  0.00  0.00    +0.000 C 
BRANCH  24  25
ATOM     25  C   UNL     1       2.623   4.300  18.361  0.00  0.00    +0.000 A 
ATOM     26  C   UNL     1       2.028   3.018  18.382  0.00  0.00    +0.000 A 
ATOM     27  C   UNL     1       1.218   2.608  19.443  0.00  0.00    +0.000 A 
ATOM     28  C   UNL     1       1.001   3.430  20.535  0.00  0.00    +0.000 A 
ATOM     29  C   UNL     1       1.589   4.685  20.570  0.00  0.00    +0.000 A 
ATOM     30  C   UNL     1       2.355   5.135  19.486  0.00  0.00    +0.000 A 
BRANCH  26  31
ATOM     31  O   UNL     1       2.167   2.008  17.472  0.00  0.00    +0.000 OA
ATOM     32  H   UNL     1       3.058   1.934  17.123  0.00  0.00    +0.000 HD
ENDBRANCH  26  31
BRANCH  30  33
ATOM     33  O   UNL     1       2.972   6.424  19.551  0.00  0.00    +0.000 OA
BRANCH  33  34
ATOM     34  C   UNL     1       2.210   7.597  19.469  0.00  0.00    +0.000 C 
ATOM     35  C   UNL     1       2.217   8.150  18.073  0.00  0.00    +0.000 C 
ATOM     36  O   UNL     1       1.605   8.142  20.384  0.00  0.00    +0.000 OA
ENDBRANCH  33  34
ENDBRANCH  30  33
ENDBRANCH  24  25
ENDBRANCH  23  24
ENDBRANCH  22  23
ENDBRANCH  21  22
ENDBRANCH  20  21
ENDBRANCH  19  20
ENDBRANCH   1  19
TORSDOF 18
ENDMDL
MODEL 4
REMARK VINA RESULT:      -7.0      5.751      8.684
REMARK  Name = 
REMARK  20 active torsions:
REMARK  status: ('A' for Active; 'I' for Inactive)
REMARK    1  A    between atoms: C_1  and  O_2
REMARK    2  A    between atoms: O_2  and  C_3
REMARK    3  A    between atoms: C_5  and  O_6
REMARK    4  A    between atoms: C_7  and  C_8
REMARK    5  A    between atoms: C_8  and  C_10
REMARK    6  A    between atoms: C_10  and  C_11
REMARK    7  A    between atoms: C_11  and  C_12
REMARK    8  A    between atoms: C_12  and  C_13
REMARK    9  A    between atoms: C_13  and  C_14
REMARK   10  A    between atoms: C_14  and  C_15
REMARK   11  A    between atoms: C_15  and  C_16
REMARK   12  A    between atoms: C_16  and  C_17
REMARK   13  A    between atoms: C_17  and  C_18
REMARK   14  A    between atoms: C_18  and  C_19
REMARK   15  A    between atoms: C_19  and  C_20
REMARK   16  A    between atoms: C_21  and  O_22
REMARK   17  A    between atoms: C_26  and  O_27
REMARK   18  A    between atoms: O_27  and  C_28
REMARK   19  A    between atoms: C_28  and  C_29
REMARK   20  A    between atoms: C_31  and  O_32
REMARK                            x       y       z     vdW  Elec       q    Type
REMARK                         _______ _______ _______ _____ _____    ______ ____
ROOT
ATOM      1  C   UNL     1       8.208   7.437  18.479  0.00  0.00    +0.000 C 
ENDROOT
BRANCH   1   2
ATOM      2  C   UNL     1       8.190   8.837  17.853  0.00  0.00    +0.000 C 
BRANCH   2   3
ATOM      3  C   UNL     1       8.870   9.868  18.758  0.00  0.00    +0.000 C 
BRANCH   3   4
ATOM      4  C   UNL     1       9.004  11.206  18.038  0.00  0.00    +0.000 C 
BRANCH   4   5
ATOM      5  C   UNL     1      10.292  11.949  18.271  0.00  0.00    +0.000 C 
ATOM      6  O   UNL     1      11.381  11.527  17.877  0.00  0.00    +0.000 OA
BRANCH   5  10
ATOM      7  C   UNL     1      10.166  15.487  20.743  0.00  0.00    +0.000 A 
ATOM      8  C   UNL     1      10.059  15.615  19.353  0.00  0.00    +0.000 A 
ATOM      9  C   UNL     1      10.093  14.490  18.536  0.00  0.00    +0.000 A 
ATOM     10  C   UNL     1      10.255  13.206  19.083  0.00  0.00    +0.000 A 
ATOM     11  C   UNL     1      10.389  13.097  20.476  0.00  0.00    +0.000 A 
ATOM     12  C   UNL     1      10.332  14.221  21.303  0.00  0.00    +0.000 A 
BRANCH  11  13
ATOM     13  O   UNL     1      10.572  11.899  21.120  0.00  0.00    +0.000 OA
ATOM     14  H   UNL     1      10.049  11.921  21.954  0.00  0.00    +0.000 HD
ENDBRANCH  11  13
BRANCH   7  16
ATOM     15  C   UNL     1      10.967  16.732  22.579  0.00  0.00    +0.000 C 
ATOM     16  O   UNL     1      10.136  16.666  21.426  0.00  0.00    +0.000 OA
ENDBRANCH   7  16
BRANCH   9  17
ATOM     17  O   UNL     1       9.971  14.696  17.189  0.00  0.00    +0.000 OA
ATOM     18  H   UNL     1       9.949  15.650  16.996  0.00  0.00    +0.000 HD
ENDBRANCH   9  17
ENDBRANCH   5  10
ENDBRANCH   4   5
ENDBRANCH   3   4
ENDBRANCH   2   3
ENDBRANCH   1   2
BRANCH   1  19
ATOM     19  C   UNL     1       7.245   6.493  17.794  0.00  0.00    +0.000 C 
BRANCH  19  20
ATOM     20  C   UNL     1       7.359   5.135  18.467  0.00  0.00    +0.000 C 
BRANCH  20  21
ATOM     21  C   UNL     1       6.158   4.281  18.126  0.00  0.00    +0.000 C 
BRANCH  21  22
ATOM     22  C   UNL     1       5.094   5.150  17.485  0.00  0.00    +0.000 C 
BRANCH  22  23
ATOM     23  C   UNL     1       3.955   4.319  16.929  0.00  0.00    +0.000 C 
BRANCH  23  24
ATOM     24  C   UNL     1       2.559   4.608  17.480  0.00  0.00    +0.000 C 
BRANCH  24  25
ATOM     25  C   UNL     1       2.242   4.073  18.867  0.00  0.00    +0.000 A 
ATOM     26  C   UNL     1       1.775   2.773  19.174  0.00  0.00    +0.000 A 
ATOM     27  C   UNL     1       1.547   2.374  20.492  0.00  0.00    +0.000 A 
ATOM     28  C   UNL     1       1.809   3.225  21.552  0.00  0.00    +0.000 A 
ATOM     29  C   UNL     1       2.295   4.498  21.299  0.00  0.00    +0.000 A 
ATOM     30  C   UNL     1       2.473   4.935  19.978  0.00  0.00    +0.000 A 
BRANCH  26  31
ATOM     31  O   UNL     1       1.533   1.738  18.315  0.00  0.00    +0.000 OA
ATOM     32  H   UNL     1       1.624   1.985  17.392  0.00  0.00    +0.000 HD
ENDBRANCH  26  31
BRANCH  30  33
ATOM     33  O   UNL     1       2.996   6.244  19.739  0.00  0.00    +0.000 OA
BRANCH  33  34
ATOM     34  C   UNL     1       2.168   7.374  19.770  0.00  0.00    +0.000 C 
ATOM     35  C   UNL     1       2.217   8.115  18.465  0.00  0.00    +0.000 C 
ATOM     36  O   UNL     1       1.481   7.752  20.710  0.00  0.00    +0.000 OA
ENDBRANCH  33  34
ENDBRANCH  30  33
ENDBRANCH  24  25
ENDBRANCH  23  24
ENDBRANCH  22  23
ENDBRANCH  21  22
ENDBRANCH  20  21
ENDBRANCH  19  20
ENDBRANCH   1  19
TORSDOF 18
ENDMDL
MODEL 5
REMARK VINA RESULT:      -6.9      1.756      9.276
REMARK  Name = 
REMARK  20 active torsions:
REMARK  status: ('A' for Active; 'I' for Inactive)
REMARK    1  A    between atoms: C_1  and  O_2
REMARK    2  A    between atoms: O_2  and  C_3
REMARK    3  A    between atoms: C_5  and  O_6
REMARK    4  A    between atoms: C_7  and  C_8
REMARK    5  A    between atoms: C_8  and  C_10
REMARK    6  A    between atoms: C_10  and  C_11
REMARK    7  A    between atoms: C_11  and  C_12
REMARK    8  A    between atoms: C_12  and  C_13
REMARK    9  A    between atoms: C_13  and  C_14
REMARK   10  A    between atoms: C_14  and  C_15
REMARK   11  A    between atoms: C_15  and  C_16
REMARK   12  A    between atoms: C_16  and  C_17
REMARK   13  A    between atoms: C_17  and  C_18
REMARK   14  A    between atoms: C_18  and  C_19
REMARK   15  A    between atoms: C_19  and  C_20
REMARK   16  A    between atoms: C_21  and  O_22
REMARK   17  A    between atoms: C_26  and  O_27
REMARK   18  A    between atoms: O_27  and  C_28
REMARK   19  A    between atoms: C_28  and  C_29
REMARK   20  A    between atoms: C_31  and  O_32
REMARK                            x       y       z     vdW  Elec       q    Type
REMARK                         _______ _______ _______ _____ _____    ______ ____
ROOT
ATOM      1  C   UNL     1       2.143   5.360  20.635  0.00  0.00    +0.000 C 
ENDROOT
BRANCH   1   2
ATOM      2  C   UNL     1       1.212   4.227  20.187  0.00  0.00    +0.000 C 
BRANCH   2   3
ATOM      3  C   UNL     1       1.748   2.856  20.609  0.00  0.00    +0.000 C 
BRANCH   3   4
ATOM      4  C   UNL     1       3.167   2.982  21.156  0.00  0.00    +0.000 C 
BRANCH   4   5
ATOM      5  C   UNL     1       4.262   2.475  20.257  0.00  0.00    +0.000 C 
ATOM      6  O   UNL     1       5.008   1.548  20.579  0.00  0.00    +0.000 OA
BRANCH   5  10
ATOM      7  C   UNL     1       4.882   4.391  16.437  0.00  0.00    +0.000 A 
ATOM      8  C   UNL     1       5.601   4.834  17.553  0.00  0.00    +0.000 A 
ATOM      9  C   UNL     1       5.420   4.231  18.794  0.00  0.00    +0.000 A 
ATOM     10  C   UNL     1       4.504   3.179  18.959  0.00  0.00    +0.000 A 
ATOM     11  C   UNL     1       3.770   2.764  17.835  0.00  0.00    +0.000 A 
ATOM     12  C   UNL     1       3.965   3.351  16.583  0.00  0.00    +0.000 A 
BRANCH  11  13
ATOM     13  O   UNL     1       2.835   1.762  17.880  0.00  0.00    +0.000 OA
ATOM     14  H   UNL     1       2.054   2.100  18.377  0.00  0.00    +0.000 HD
ENDBRANCH  11  13
BRANCH   7  16
ATOM     15  C   UNL     1       6.511   5.204  14.939  0.00  0.00    +0.000 C 
ATOM     16  O   UNL     1       5.138   5.077  15.287  0.00  0.00    +0.000 OA
ENDBRANCH   7  16
BRANCH   9  17
ATOM     17  O   UNL     1       6.168   4.713  19.834  0.00  0.00    +0.000 OA
ATOM     18  H   UNL     1       7.092   4.423  19.746  0.00  0.00    +0.000 HD
ENDBRANCH   9  17
ENDBRANCH   5  10
ENDBRANCH   4   5
ENDBRANCH   3   4
ENDBRANCH   2   3
ENDBRANCH   1   2
BRANCH   1  19
ATOM     19  C   UNL     1       2.594   6.220  19.475  0.00  0.00    +0.000 C 
BRANCH  19  20
ATOM     20  C   UNL     1       2.096   7.635  19.717  0.00  0.00    +0.000 C 
BRANCH  20  21
ATOM     21  C   UNL     1       2.226   8.457  18.453  0.00  0.00    +0.000 C 
BRANCH  21  22
ATOM     22  C   UNL     1       0.851   8.665  17.850  0.00  0.00    +0.000 C 
BRANCH  22  23
ATOM     23  C   UNL     1       0.435  10.121  17.898  0.00  0.00    +0.000 C 
BRANCH  23  24
ATOM     24  C   UNL     1       1.012  10.965  19.036  0.00  0.00    +0.000 C 
BRANCH  24  25
ATOM     25  C   UNL     1       0.030  11.809  19.833  0.00  0.00    +0.000 A 
ATOM     26  C   UNL     1      -0.874  12.759  19.305  0.00  0.00    +0.000 A 
ATOM     27  C   UNL     1      -1.760  13.458  20.129  0.00  0.00    +0.000 A 
ATOM     28  C   UNL     1      -1.812  13.214  21.490  0.00  0.00    +0.000 A 
ATOM     29  C   UNL     1      -0.964  12.269  22.046  0.00  0.00    +0.000 A 
ATOM     30  C   UNL     1      -0.028  11.602  21.243  0.00  0.00    +0.000 A 
BRANCH  26  31
ATOM     31  O   UNL     1      -1.070  13.102  17.997  0.00  0.00    +0.000 OA
ATOM     32  H   UNL     1      -0.251  13.233  17.514  0.00  0.00    +0.000 HD
ENDBRANCH  26  31
BRANCH  30  33
ATOM     33  O   UNL     1       0.823  10.615  21.832  0.00  0.00    +0.000 OA
BRANCH  33  34
ATOM     34  C   UNL     1       0.312   9.643  22.702  0.00  0.00    +0.000 C 
ATOM     35  C   UNL     1      -0.413   8.568  21.946  0.00  0.00    +0.000 C 
ATOM     36  O   UNL     1       0.411   9.629  23.923  0.00  0.00    +0.000 OA
ENDBRANCH  33  34
ENDBRANCH  30  33
ENDBRANCH  24  25
ENDBRANCH  23  24
ENDBRANCH  22  23
ENDBRANCH  21  22
ENDBRANCH  20  21
ENDBRANCH  19  20
ENDBRANCH   1  19
TORSDOF 18
ENDMDL
MODEL 6
REMARK VINA RESULT:      -6.8      5.925      8.776
REMARK  Name = 
REMARK  20 active torsions:
REMARK  status: ('A' for Active; 'I' for Inactive)
REMARK    1  A    between atoms: C_1  and  O_2
REMARK    2  A    between atoms: O_2  and  C_3
REMARK    3  A    between atoms: C_5  and  O_6
REMARK    4  A    between atoms: C_7  and  C_8
REMARK    5  A    between atoms: C_8  and  C_10
REMARK    6  A    between atoms: C_10  and  C_11
REMARK    7  A    between atoms: C_11  and  C_12
REMARK    8  A    between atoms: C_12  and  C_13
REMARK    9  A    between atoms: C_13  and  C_14
REMARK   10  A    between atoms: C_14  and  C_15
REMARK   11  A    between atoms: C_15  and  C_16
REMARK   12  A    between atoms: C_16  and  C_17
REMARK   13  A    between atoms: C_17  and  C_18
REMARK   14  A    between atoms: C_18  and  C_19
REMARK   15  A    between atoms: C_19  and  C_20
REMARK   16  A    between atoms: C_21  and  O_22
REMARK   17  A    between atoms: C_26  and  O_27
REMARK   18  A    between atoms: O_27  and  C_28
REMARK   19  A    between atoms: C_28  and  C_29
REMARK   20  A    between atoms: C_31  and  O_32
REMARK                            x       y       z     vdW  Elec       q    Type
REMARK                         _______ _______ _______ _____ _____    ______ ____
ROOT
ATOM      1  C   UNL     1       8.325   8.872  17.406  0.00  0.00    +0.000 C 
ENDROOT
BRANCH   1   2
ATOM      2  C   UNL     1       8.715   9.735  18.611  0.00  0.00    +0.000 C 
BRANCH   2   3
ATOM      3  C   UNL     1       8.957  11.192  18.206  0.00  0.00    +0.000 C 
BRANCH   3   4
ATOM      4  C   UNL     1      10.423  11.412  17.848  0.00  0.00    +0.000 C 
BRANCH   4   5
ATOM      5  C   UNL     1      11.302  11.912  18.963  0.00  0.00    +0.000 C 
ATOM      6  O   UNL     1      12.331  11.328  19.309  0.00  0.00    +0.000 OA
BRANCH   5  10
ATOM      7  C   UNL     1       9.951  15.297  21.279  0.00  0.00    +0.000 A 
ATOM      8  C   UNL     1      10.566  15.513  20.040  0.00  0.00    +0.000 A 
ATOM      9  C   UNL     1      11.007  14.438  19.274  0.00  0.00    +0.000 A 
ATOM     10  C   UNL     1      10.862  13.118  19.733  0.00  0.00    +0.000 A 
ATOM     11  C   UNL     1      10.268  12.920  20.990  0.00  0.00    +0.000 A 
ATOM     12  C   UNL     1       9.803  13.994  21.751  0.00  0.00    +0.000 A 
BRANCH  11  13
ATOM     13  O   UNL     1      10.093  11.679  21.548  0.00  0.00    +0.000 OA
ATOM     14  H   UNL     1       9.842  11.805  22.492  0.00  0.00    +0.000 HD
ENDBRANCH  11  13
BRANCH   7  16
ATOM     15  C   UNL     1      10.512  17.508  21.877  0.00  0.00    +0.000 C 
ATOM     16  O   UNL     1       9.582  16.433  21.936  0.00  0.00    +0.000 OA
ENDBRANCH   7  16
BRANCH   9  17
ATOM     17  O   UNL     1      11.588  14.730  18.071  0.00  0.00    +0.000 OA
ATOM     18  H   UNL     1      10.906  14.828  17.384  0.00  0.00    +0.000 HD
ENDBRANCH   9  17
ENDBRANCH   5  10
ENDBRANCH   4   5
ENDBRANCH   3   4
ENDBRANCH   2   3
ENDBRANCH   1   2
BRANCH   1  19
ATOM     19  C   UNL     1       7.351   7.776  17.780  0.00  0.00    +0.000 C 
BRANCH  19  20
ATOM     20  C   UNL     1       8.059   6.821  18.727  0.00  0.00    +0.000 C 
BRANCH  20  21
ATOM     21  C   UNL     1       7.261   5.543  18.872  0.00  0.00    +0.000 C 
BRANCH  21  22
ATOM     22  C   UNL     1       5.994   5.651  18.049  0.00  0.00    +0.000 C 
BRANCH  22  23
ATOM     23  C   UNL     1       5.790   4.428  17.177  0.00  0.00    +0.000 C 
BRANCH  23  24
ATOM     24  C   UNL     1       4.375   4.184  16.653  0.00  0.00    +0.000 C 
BRANCH  24  25
ATOM     25  C   UNL     1       3.354   3.655  17.647  0.00  0.00    +0.000 A 
ATOM     26  C   UNL     1       3.307   2.345  18.178  0.00  0.00    +0.000 A 
ATOM     27  C   UNL     1       2.342   1.972  19.116  0.00  0.00    +0.000 A 
ATOM     28  C   UNL     1       1.419   2.887  19.591  0.00  0.00    +0.000 A 
ATOM     29  C   UNL     1       1.446   4.191  19.120  0.00  0.00    +0.000 A 
ATOM     30  C   UNL     1       2.370   4.564  18.135  0.00  0.00    +0.000 A 
BRANCH  26  31
ATOM     31  O   UNL     1       4.159   1.304  17.933  0.00  0.00    +0.000 OA
ATOM     32  H   UNL     1       3.714   0.455  17.888  0.00  0.00    +0.000 HD
ENDBRANCH  26  31
BRANCH  30  33
ATOM     33  O   UNL     1       2.397   5.919  17.679  0.00  0.00    +0.000 OA
BRANCH  33  34
ATOM     34  C   UNL     1       2.512   6.986  18.580  0.00  0.00    +0.000 C 
ATOM     35  C   UNL     1       2.153   8.288  17.924  0.00  0.00    +0.000 C 
ATOM     36  O   UNL     1       2.860   6.919  19.752  0.00  0.00    +0.000 OA
ENDBRANCH  33  34
ENDBRANCH  30  33
ENDBRANCH  24  25
ENDBRANCH  23  24
ENDBRANCH  22  23
ENDBRANCH  21  22
ENDBRANCH  20  21
ENDBRANCH  19  20
ENDBRANCH   1  19
TORSDOF 18
ENDMDL
MODEL 7
REMARK VINA RESULT:      -6.8      1.869      9.287
REMARK  Name = 
REMARK  20 active torsions:
REMARK  status: ('A' for Active; 'I' for Inactive)
REMARK    1  A    between atoms: C_1  and  O_2
REMARK    2  A    between atoms: O_2  and  C_3
REMARK    3  A    between atoms: C_5  and  O_6
REMARK    4  A    between atoms: C_7  and  C_8
REMARK    5  A    between atoms: C_8  and  C_10
REMARK    6  A    between atoms: C_10  and  C_11
REMARK    7  A    between atoms: C_11  and  C_12
REMARK    8  A    between atoms: C_12  and  C_13
REMARK    9  A    between atoms: C_13  and  C_14
REMARK   10  A    between atoms: C_14  and  C_15
REMARK   11  A    between atoms: C_15  and  C_16
REMARK   12  A    between atoms: C_16  and  C_17
REMARK   13  A    between atoms: C_17  and  C_18
REMARK   14  A    between atoms: C_18  and  C_19
REMARK   15  A    between atoms: C_19  and  C_20
REMARK   16  A    between atoms: C_21  and  O_22
REMARK   17  A    between atoms: C_26  and  O_27
REMARK   18  A    between atoms: O_27  and  C_28
REMARK   19  A    between atoms: C_28  and  C_29
REMARK   20  A    between atoms: C_31  and  O_32
REMARK                            x       y       z     vdW  Elec       q    Type
REMARK                         _______ _______ _______ _____ _____    ______ ____
ROOT
ATOM      1  C   UNL     1      -0.058   8.336  21.352  0.00  0.00    +0.000 C 
ENDROOT
BRANCH   1   2
ATOM      2  C   UNL     1       1.469   8.236  21.259  0.00  0.00    +0.000 C 
BRANCH   2   3
ATOM      3  C   UNL     1       1.915   7.656  19.913  0.00  0.00    +0.000 C 
BRANCH   3   4
ATOM      4  C   UNL     1       2.555   6.285  20.107  0.00  0.00    +0.000 C 
BRANCH   4   5
ATOM      5  C   UNL     1       2.624   5.416  18.881  0.00  0.00    +0.000 C 
ATOM      6  O   UNL     1       1.750   4.594  18.601  0.00  0.00    +0.000 OA
BRANCH   5  10
ATOM      7  C   UNL     1       6.196   5.526  16.457  0.00  0.00    +0.000 A 
ATOM      8  C   UNL     1       5.323   6.620  16.445  0.00  0.00    +0.000 A 
ATOM      9  C   UNL     1       4.168   6.609  17.220  0.00  0.00    +0.000 A 
ATOM     10  C   UNL     1       3.842   5.498  18.014  0.00  0.00    +0.000 A 
ATOM     11  C   UNL     1       4.714   4.397  17.994  0.00  0.00    +0.000 A 
ATOM     12  C   UNL     1       5.887   4.412  17.236  0.00  0.00    +0.000 A 
BRANCH  11  13
ATOM     13  O   UNL     1       4.489   3.250  18.713  0.00  0.00    +0.000 OA
ATOM     14  H   UNL     1       3.906   3.479  19.473  0.00  0.00    +0.000 HD
ENDBRANCH  11  13
BRANCH   7  16
ATOM     15  C   UNL     1       7.202   4.968  14.398  0.00  0.00    +0.000 C 
ATOM     16  O   UNL     1       7.281   5.656  15.641  0.00  0.00    +0.000 OA
ENDBRANCH   7  16
BRANCH   9  17
ATOM     17  O   UNL     1       3.371   7.720  17.163  0.00  0.00    +0.000 OA
ATOM     18  H   UNL     1       2.772   7.665  16.398  0.00  0.00    +0.000 HD
ENDBRANCH   9  17
ENDBRANCH   5  10
ENDBRANCH   4   5
ENDBRANCH   3   4
ENDBRANCH   2   3
ENDBRANCH   1   2
BRANCH   1  19
ATOM     19  C   UNL     1      -0.513   8.883  22.688  0.00  0.00    +0.000 C 
BRANCH  19  20
ATOM     20  C   UNL     1      -0.156  10.359  22.737  0.00  0.00    +0.000 C 
BRANCH  20  21
ATOM     21  C   UNL     1      -1.381  11.181  23.077  0.00  0.00    +0.000 C 
BRANCH  21  22
ATOM     22  C   UNL     1      -1.148  12.619  22.659  0.00  0.00    +0.000 C 
BRANCH  22  23
ATOM     23  C   UNL     1      -2.076  13.030  21.533  0.00  0.00    +0.000 C 
BRANCH  23  24
ATOM     24  C   UNL     1      -1.474  13.079  20.128  0.00  0.00    +0.000 C 
BRANCH  24  25
ATOM     25  C   UNL     1      -1.850  11.954  19.178  0.00  0.00    +0.000 A 
ATOM     26  C   UNL     1      -3.110  11.766  18.564  0.00  0.00    +0.000 A 
ATOM     27  C   UNL     1      -3.339  10.712  17.676  0.00  0.00    +0.000 A 
ATOM     28  C   UNL     1      -2.324   9.835  17.334  0.00  0.00    +0.000 A 
ATOM     29  C   UNL     1      -1.065   9.999  17.890  0.00  0.00    +0.000 A 
ATOM     30  C   UNL     1      -0.836  11.016  18.828  0.00  0.00    +0.000 A 
BRANCH  26  31
ATOM     31  O   UNL     1      -4.227  12.546  18.673  0.00  0.00    +0.000 OA
ATOM     32  H   UNL     1      -4.749  12.574  17.868  0.00  0.00    +0.000 HD
ENDBRANCH  26  31
BRANCH  30  33
ATOM     33  O   UNL     1       0.476  11.182  19.372  0.00  0.00    +0.000 OA
BRANCH  33  34
ATOM     34  C   UNL     1       1.588  11.378  18.541  0.00  0.00    +0.000 C 
ATOM     35  C   UNL     1       1.912  12.838  18.408  0.00  0.00    +0.000 C 
ATOM     36  O   UNL     1       2.238  10.510  17.973  0.00  0.00    +0.000 OA
ENDBRANCH  33  34
ENDBRANCH  30  33
ENDBRANCH  24  25
ENDBRANCH  23  24
ENDBRANCH  22  23
ENDBRANCH  21  22
ENDBRANCH  20  21
ENDBRANCH  19  20
ENDBRANCH   1  19
TORSDOF 18
ENDMDL
MODEL 8
REMARK VINA RESULT:      -6.7      1.771      9.853
REMARK  Name = 
REMARK  20 active torsions:
REMARK  status: ('A' for Active; 'I' for Inactive)
REMARK    1  A    between atoms: C_1  and  O_2
REMARK    2  A    between atoms: O_2  and  C_3
REMARK    3  A    between atoms: C_5  and  O_6
REMARK    4  A    between atoms: C_7  and  C_8
REMARK    5  A    between atoms: C_8  and  C_10
REMARK    6  A    between atoms: C_10  and  C_11
REMARK    7  A    between atoms: C_11  and  C_12
REMARK    8  A    between atoms: C_12  and  C_13
REMARK    9  A    between atoms: C_13  and  C_14
REMARK   10  A    between atoms: C_14  and  C_15
REMARK   11  A    between atoms: C_15  and  C_16
REMARK   12  A    between atoms: C_16  and  C_17
REMARK   13  A    between atoms: C_17  and  C_18
REMARK   14  A    between atoms: C_18  and  C_19
REMARK   15  A    between atoms: C_19  and  C_20
REMARK   16  A    between atoms: C_21  and  O_22
REMARK   17  A    between atoms: C_26  and  O_27
REMARK   18  A    between atoms: O_27  and  C_28
REMARK   19  A    between atoms: C_28  and  C_29
REMARK   20  A    between atoms: C_31  and  O_32
REMARK                            x       y       z     vdW  Elec       q    Type
REMARK                         _______ _______ _______ _____ _____    ______ ____
ROOT
ATOM      1  C   UNL     1       1.940   6.864  18.959  0.00  0.00    +0.000 C 
ENDROOT
BRANCH   1   2
ATOM      2  C   UNL     1       1.929   5.346  19.173  0.00  0.00    +0.000 C 
BRANCH   2   3
ATOM      3  C   UNL     1       2.772   4.941  20.386  0.00  0.00    +0.000 C 
BRANCH   3   4
ATOM      4  C   UNL     1       3.021   3.437  20.387  0.00  0.00    +0.000 C 
BRANCH   4   5
ATOM      5  C   UNL     1       4.344   2.992  19.823  0.00  0.00    +0.000 C 
ATOM      6  O   UNL     1       5.020   2.103  20.342  0.00  0.00    +0.000 OA
BRANCH   5  10
ATOM      7  C   UNL     1       5.855   4.978  16.299  0.00  0.00    +0.000 A 
ATOM      8  C   UNL     1       6.392   5.297  17.551  0.00  0.00    +0.000 A 
ATOM      9  C   UNL     1       5.924   4.668  18.701  0.00  0.00    +0.000 A 
ATOM     10  C   UNL     1       4.893   3.717  18.634  0.00  0.00    +0.000 A 
ATOM     11  C   UNL     1       4.345   3.428  17.373  0.00  0.00    +0.000 A 
ATOM     12  C   UNL     1       4.828   4.039  16.214  0.00  0.00    +0.000 A 
BRANCH  11  13
ATOM     13  O   UNL     1       3.323   2.532  17.188  0.00  0.00    +0.000 OA
ATOM     14  H   UNL     1       2.824   2.465  18.034  0.00  0.00    +0.000 HD
ENDBRANCH  11  13
BRANCH   7  16
ATOM     15  C   UNL     1       6.894   4.892  14.184  0.00  0.00    +0.000 C 
ATOM     16  O   UNL     1       6.388   5.677  15.257  0.00  0.00    +0.000 OA
ENDBRANCH   7  16
BRANCH   9  17
ATOM     17  O   UNL     1       6.508   5.026  19.886  0.00  0.00    +0.000 OA
ATOM     18  H   UNL     1       5.826   5.276  20.534  0.00  0.00    +0.000 HD
ENDBRANCH   9  17
ENDBRANCH   5  10
ENDBRANCH   4   5
ENDBRANCH   3   4
ENDBRANCH   2   3
ENDBRANCH   1   2
BRANCH   1  19
ATOM     19  C   UNL     1       3.100   7.309  18.095  0.00  0.00    +0.000 C 
BRANCH  19  20
ATOM     20  C   UNL     1       2.796   8.708  17.585  0.00  0.00    +0.000 C 
BRANCH  20  21
ATOM     21  C   UNL     1       1.363   9.079  17.901  0.00  0.00    +0.000 C 
BRANCH  21  22
ATOM     22  C   UNL     1       1.327  10.477  18.486  0.00  0.00    +0.000 C 
BRANCH  22  23
ATOM     23  C   UNL     1       0.035  10.735  19.235  0.00  0.00    +0.000 C 
BRANCH  23  24
ATOM     24  C   UNL     1      -0.012  11.983  20.116  0.00  0.00    +0.000 C 
BRANCH  24  25
ATOM     25  C   UNL     1      -1.263  12.186  20.957  0.00  0.00    +0.000 A 
ATOM     26  C   UNL     1      -2.499  12.701  20.503  0.00  0.00    +0.000 A 
ATOM     27  C   UNL     1      -3.599  12.813  21.356  0.00  0.00    +0.000 A 
ATOM     28  C   UNL     1      -3.529  12.386  22.670  0.00  0.00    +0.000 A 
ATOM     29  C   UNL     1      -2.345  11.846  23.150  0.00  0.00    +0.000 A 
ATOM     30  C   UNL     1      -1.215  11.782  22.323  0.00  0.00    +0.000 A 
BRANCH  26  31
ATOM     31  O   UNL     1      -2.835  13.100  19.240  0.00  0.00    +0.000 OA
ATOM     32  H   UNL     1      -3.028  12.367  18.651  0.00  0.00    +0.000 HD
ENDBRANCH  26  31
BRANCH  30  33
ATOM     33  O   UNL     1      -0.010  11.202  22.830  0.00  0.00    +0.000 OA
BRANCH  33  34
ATOM     34  C   UNL     1       0.038   9.859  23.228  0.00  0.00    +0.000 C 
ATOM     35  C   UNL     1      -0.562   8.964  22.182  0.00  0.00    +0.000 C 
ATOM     36  O   UNL     1       0.492   9.423  24.278  0.00  0.00    +0.000 OA
ENDBRANCH  33  34
ENDBRANCH  30  33
ENDBRANCH  24  25
ENDBRANCH  23  24
ENDBRANCH  22  23
ENDBRANCH  21  22
ENDBRANCH  20  21
ENDBRANCH  19  20
ENDBRANCH   1  19
TORSDOF 18
ENDMDL
MODEL 9
REMARK VINA RESULT:      -6.7      1.874      3.171
REMARK  Name = 
REMARK  20 active torsions:
REMARK  status: ('A' for Active; 'I' for Inactive)
REMARK    1  A    between atoms: C_1  and  O_2
REMARK    2  A    between atoms: O_2  and  C_3
REMARK    3  A    between atoms: C_5  and  O_6
REMARK    4  A    between atoms: C_7  and  C_8
REMARK    5  A    between atoms: C_8  and  C_10
REMARK    6  A    between atoms: C_10  and  C_11
REMARK    7  A    between atoms: C_11  and  C_12
REMARK    8  A    between atoms: C_12  and  C_13
REMARK    9  A    between atoms: C_13  and  C_14
REMARK   10  A    between atoms: C_14  and  C_15
REMARK   11  A    between atoms: C_15  and  C_16
REMARK   12  A    between atoms: C_16  and  C_17
REMARK   13  A    between atoms: C_17  and  C_18
REMARK   14  A    between atoms: C_18  and  C_19
REMARK   15  A    between atoms: C_19  and  C_20
REMARK   16  A    between atoms: C_21  and  O_22
REMARK   17  A    between atoms: C_26  and  O_27
REMARK   18  A    between atoms: O_27  and  C_28
REMARK   19  A    between atoms: C_28  and  C_29
REMARK   20  A    between atoms: C_31  and  O_32
REMARK                            x       y       z     vdW  Elec       q    Type
REMARK                         _______ _______ _______ _____ _____    ______ ____
ROOT
ATOM      1  C   UNL     1       2.384   8.548  18.588  0.00  0.00    +0.000 C 
ENDROOT
BRANCH   1   2
ATOM      2  C   UNL     1       1.689   9.776  17.988  0.00  0.00    +0.000 C 
BRANCH   2   3
ATOM      3  C   UNL     1       0.164   9.670  18.095  0.00  0.00    +0.000 C 
BRANCH   3   4
ATOM      4  C   UNL     1      -0.379  10.717  19.062  0.00  0.00    +0.000 C 
BRANCH   4   5
ATOM      5  C   UNL     1      -1.085  11.887  18.431  0.00  0.00    +0.000 C 
ATOM      6  O   UNL     1      -0.496  12.917  18.100  0.00  0.00    +0.000 OA
BRANCH   5  10
ATOM      7  C   UNL     1      -5.357  11.702  17.830  0.00  0.00    +0.000 A 
ATOM      8  C   UNL     1      -4.855  12.024  19.096  0.00  0.00    +0.000 A 
ATOM      9  C   UNL     1      -3.482  12.092  19.313  0.00  0.00    +0.000 A 
ATOM     10  C   UNL     1      -2.573  11.824  18.277  0.00  0.00    +0.000 A 
ATOM     11  C   UNL     1      -3.093  11.476  17.019  0.00  0.00    +0.000 A 
ATOM     12  C   UNL     1      -4.470  11.429  16.790  0.00  0.00    +0.000 A 
BRANCH  11  13
ATOM     13  O   UNL     1      -2.303  11.174  15.940  0.00  0.00    +0.000 OA
ATOM     14  H   UNL     1      -2.089  10.214  15.980  0.00  0.00    +0.000 HD
ENDBRANCH  11  13
BRANCH   7  16
ATOM     15  C   UNL     1      -7.417  12.260  18.833  0.00  0.00    +0.000 C 
ATOM     16  O   UNL     1      -6.718  11.651  17.755  0.00  0.00    +0.000 OA
ENDBRANCH   7  16
BRANCH   9  17
ATOM     17  O   UNL     1      -3.070  12.422  20.575  0.00  0.00    +0.000 OA
ATOM     18  H   UNL     1      -2.183  12.822  20.545  0.00  0.00    +0.000 HD
ENDBRANCH   9  17
ENDBRANCH   5  10
ENDBRANCH   4   5
ENDBRANCH   3   4
ENDBRANCH   2   3
ENDBRANCH   1   2
BRANCH   1  19
ATOM     19  C   UNL     1       2.624   7.468  17.556  0.00  0.00    +0.000 C 
BRANCH  19  20
ATOM     20  C   UNL     1       2.426   6.121  18.231  0.00  0.00    +0.000 C 
BRANCH  20  21
ATOM     21  C   UNL     1       3.312   6.015  19.454  0.00  0.00    +0.000 C 
BRANCH  21  22
ATOM     22  C   UNL     1       3.944   4.637  19.493  0.00  0.00    +0.000 C 
BRANCH  22  23
ATOM     23  C   UNL     1       4.323   4.158  18.106  0.00  0.00    +0.000 C 
BRANCH  23  24
ATOM     24  C   UNL     1       5.816   4.088  17.786  0.00  0.00    +0.000 C 
BRANCH  24  25
ATOM     25  C   UNL     1       6.610   5.379  17.916  0.00  0.00    +0.000 A 
ATOM     26  C   UNL     1       7.330   5.804  19.056  0.00  0.00    +0.000 A 
ATOM     27  C   UNL     1       8.056   6.997  19.056  0.00  0.00    +0.000 A 
ATOM     28  C   UNL     1       8.128   7.789  17.923  0.00  0.00    +0.000 A 
ATOM     29  C   UNL     1       7.460   7.395  16.773  0.00  0.00    +0.000 A 
ATOM     30  C   UNL     1       6.679   6.231  16.775  0.00  0.00    +0.000 A 
BRANCH  26  31
ATOM     31  O   UNL     1       7.482   5.156  20.249  0.00  0.00    +0.000 OA
ATOM     32  H   UNL     1       6.943   5.526  20.952  0.00  0.00    +0.000 HD
ENDBRANCH  26  31
BRANCH  30  33
ATOM     33  O   UNL     1       6.017   5.831  15.573  0.00  0.00    +0.000 OA
BRANCH  33  34
ATOM     34  C   UNL     1       6.705   5.154  14.556  0.00  0.00    +0.000 C 
ATOM     35  C   UNL     1       5.936   3.951  14.093  0.00  0.00    +0.000 C 
ATOM     36  O   UNL     1       7.791   5.459  14.079  0.00  0.00    +0.000 OA
ENDBRANCH  33  34
ENDBRANCH  30  33
ENDBRANCH  24  25
ENDBRANCH  23  24
ENDBRANCH  22  23
ENDBRANCH  21  22
ENDBRANCH  20  21
ENDBRANCH  19  20
ENDBRANCH   1  19
TORSDOF 18
ENDMDL
