MODEL 1
REMARK VINA RESULT:      -6.3      0.000      0.000
REMARK  Name = 
REMARK  9 active torsions:
REMARK  status: ('A' for Active; 'I' for Inactive)
REMARK    1  A    between atoms: C_1  and  N_2
REMARK    2  A    between atoms: N_2  and  C_3
REMARK    3  A    between atoms: N_2  and  C_4
REMARK    4  A    between atoms: C_7  and  O_8
REMARK    5  A    between atoms: C_15  and  N_16
REMARK    6  A    between atoms: N_16  and  C_17
REMARK    7  A    between atoms: N_16  and  C_18
REMARK    8  A    between atoms: C_21  and  C_22
REMARK    9  A    between atoms: C_27  and  O_28
REMARK                            x       y       z     vdW  Elec       q    Type
REMARK                         _______ _______ _______ _____ _____    ______ ____
ROOT
ATOM      1  C   UNL     1      10.716  13.822  18.357  0.00  0.00    +0.000 A 
ATOM      2  C   UNL     1      10.844  12.788  17.424  0.00  0.00    +0.000 A 
ATOM      3  C   UNL     1      10.415  11.488  17.712  0.00  0.00    +0.000 A 
ATOM      4  C   UNL     1       9.824  11.193  18.941  0.00  0.00    +0.000 A 
ATOM      5  C   UNL     1       9.690  12.192  19.911  0.00  0.00    +0.000 A 
ATOM      6  C   UNL     1      10.161  13.490  19.631  0.00  0.00    +0.000 A 
ATOM      7  C   UNL     1      10.053  14.555  20.680  0.00  0.00    +0.000 C 
ATOM      8  C   UNL     1       9.198  14.233  21.918  0.00  0.00    +0.000 C 
ATOM      9  C   UNL     1       8.581  15.530  22.376  0.00  0.00    +0.000 C 
ATOM     10  C   UNL     1       7.108  15.502  22.758  0.00  0.00    +0.000 C 
ATOM     11  C   UNL     1       6.289  16.505  21.954  0.00  0.00    +0.000 C 
ATOM     12  C   UNL     1       5.372  17.013  23.054  0.00  0.00    +0.000 C 
ATOM     13  O   UNL     1       5.404  18.192  23.422  0.00  0.00    +0.000 OA
ATOM     14  C   UNL     1       4.481  16.006  23.749  0.00  0.00    +0.000 C 
ATOM     15  C   UNL     1       5.269  14.675  24.121  0.00  0.00    +0.000 C 
ATOM     16  O   UNL     1       5.036  14.076  25.167  0.00  0.00    +0.000 OA
ATOM     17  C   UNL     1       6.334  14.225  23.108  0.00  0.00    +0.000 C 
ATOM     18  C   UNL     1       7.277  13.033  22.998  0.00  0.00    +0.000 C 
ATOM     19  O   UNL     1       7.182  12.052  23.725  0.00  0.00    +0.000 OA
ATOM     20  C   UNL     1       8.183  13.119  21.725  0.00  0.00    +0.000 C 
ATOM     21  C   UNL     1       8.991  11.942  21.222  0.00  0.00    +0.000 C 
ATOM     22  O   UNL     1       9.122  10.893  21.833  0.00  0.00    +0.000 OA
ENDROOT
BRANCH  14  23
ATOM     23  C   UNL     1       3.214  15.926  22.921  0.00  0.00    +0.000 C 
ATOM     24  N   UNL     1       2.568  17.130  22.694  0.00  0.00    +0.000 N 
ATOM     25  O   UNL     1       2.753  14.886  22.468  0.00  0.00    +0.000 OA
ATOM     26  H   UNL     1       1.841  17.158  21.992  0.00  0.00    +0.000 HD
ATOM     27  H   UNL     1       2.911  18.043  22.998  0.00  0.00    +0.000 HD
ENDBRANCH  14  23
BRANCH   1  29
ATOM     28  C   UNL     1       9.986  15.980  17.443  0.00  0.00    +0.000 C 
ATOM     29  N   UNL     1      11.049  15.160  18.042  0.00  0.00    +0.000 N 
ATOM     30  C   UNL     1      12.332  15.302  17.340  0.00  0.00    +0.000 C 
ENDBRANCH   1  29
BRANCH  11  31
ATOM     31  N   UNL     1       5.743  16.264  20.585  0.00  0.00    +0.000 NA
ATOM     32  C   UNL     1       6.527  15.686  19.489  0.00  0.00    +0.000 C 
ATOM     33  C   UNL     1       5.211  17.517  20.020  0.00  0.00    +0.000 C 
ENDBRANCH  11  31
BRANCH   4  34
ATOM     34  O   UNL     1       9.326   9.940  19.158  0.00  0.00    +0.000 OA
ATOM     35  H   UNL     1       8.904   9.611  18.347  0.00  0.00    +0.000 HD
ENDBRANCH   4  34
BRANCH  17  36
ATOM     36  O   UNL     1       5.338  13.660  22.236  0.00  0.00    +0.000 OA
ATOM     37  H   UNL     1       4.458  13.839  22.649  0.00  0.00    +0.000 HD
ENDBRANCH  17  36
TORSDOF 5
ENDMDL
MODEL 2
REMARK VINA RESULT:      -6.3      7.175     12.372
REMARK  Name = 
REMARK  9 active torsions:
REMARK  status: ('A' for Active; 'I' for Inactive)
REMARK    1  A    between atoms: C_1  and  N_2
REMARK    2  A    between atoms: N_2  and  C_3
REMARK    3  A    between atoms: N_2  and  C_4
REMARK    4  A    between atoms: C_7  and  O_8
REMARK    5  A    between atoms: C_15  and  N_16
REMARK    6  A    between atoms: N_16  and  C_17
REMARK    7  A    between atoms: N_16  and  C_18
REMARK    8  A    between atoms: C_21  and  C_22
REMARK    9  A    between atoms: C_27  and  O_28
REMARK                            x       y       z     vdW  Elec       q    Type
REMARK                         _______ _______ _______ _____ _____    ______ ____
ROOT
ATOM      1  C   UNL     1      -6.408  13.612  22.935  0.00  0.00    +0.000 A 
ATOM      2  C   UNL     1      -7.313  14.676  22.857  0.00  0.00    +0.000 A 
ATOM      3  C   UNL     1      -6.905  15.998  23.069  0.00  0.00    +0.000 A 
ATOM      4  C   UNL     1      -5.569  16.291  23.346  0.00  0.00    +0.000 A 
ATOM      5  C   UNL     1      -4.633  15.257  23.449  0.00  0.00    +0.000 A 
ATOM      6  C   UNL     1      -5.056  13.926  23.275  0.00  0.00    +0.000 A 
ATOM      7  C   UNL     1      -4.064  12.812  23.421  0.00  0.00    +0.000 C 
ATOM      8  C   UNL     1      -2.579  13.205  23.503  0.00  0.00    +0.000 C 
ATOM      9  C   UNL     1      -1.792  12.090  22.862  0.00  0.00    +0.000 C 
ATOM     10  C   UNL     1      -0.673  12.487  21.909  0.00  0.00    +0.000 C 
ATOM     11  C   UNL     1      -0.849  11.867  20.528  0.00  0.00    +0.000 C 
ATOM     12  C   UNL     1       0.597  11.506  20.233  0.00  0.00    +0.000 C 
ATOM     13  O   UNL     1       0.948  10.330  20.093  0.00  0.00    +0.000 OA
ATOM     14  C   UNL     1       1.611  12.629  20.207  0.00  0.00    +0.000 C 
ATOM     15  C   UNL     1       1.426  13.624  21.435  0.00  0.00    +0.000 C 
ATOM     16  O   UNL     1       2.398  14.127  21.990  0.00  0.00    +0.000 OA
ATOM     17  C   UNL     1      -0.025  13.876  21.876  0.00  0.00    +0.000 C 
ATOM     18  C   UNL     1      -0.691  14.756  22.927  0.00  0.00    +0.000 C 
ATOM     19  O   UNL     1      -0.081  15.623  23.539  0.00  0.00    +0.000 OA
ATOM     20  C   UNL     1      -2.246  14.576  22.940  0.00  0.00    +0.000 C 
ATOM     21  C   UNL     1      -3.167  15.529  23.671  0.00  0.00    +0.000 C 
ATOM     22  O   UNL     1      -2.781  16.411  24.421  0.00  0.00    +0.000 OA
ENDROOT
BRANCH  14  23
ATOM     23  C   UNL     1       1.603  13.169  18.791  0.00  0.00    +0.000 C 
ATOM     24  N   UNL     1       2.169  12.347  17.832  0.00  0.00    +0.000 N 
ATOM     25  O   UNL     1       1.141  14.257  18.473  0.00  0.00    +0.000 OA
ATOM     26  H   UNL     1       2.013  12.569  16.858  0.00  0.00    +0.000 HD
ATOM     27  H   UNL     1       2.534  11.409  18.008  0.00  0.00    +0.000 HD
ENDBRANCH  14  23
BRANCH   1  29
ATOM     28  C   UNL     1      -6.907  11.956  21.193  0.00  0.00    +0.000 C 
ATOM     29  N   UNL     1      -6.784  12.285  22.620  0.00  0.00    +0.000 N 
ATOM     30  C   UNL     1      -7.917  11.786  23.413  0.00  0.00    +0.000 C 
ENDBRANCH   1  29
BRANCH  11  31
ATOM     31  N   UNL     1      -1.712  12.423  19.444  0.00  0.00    +0.000 NA
ATOM     32  C   UNL     1      -3.162  12.598  19.570  0.00  0.00    +0.000 C 
ATOM     33  C   UNL     1      -1.555  11.632  18.210  0.00  0.00    +0.000 C 
ENDBRANCH  11  31
BRANCH   4  34
ATOM     34  O   UNL     1      -5.181  17.596  23.451  0.00  0.00    +0.000 OA
ATOM     35  H   UNL     1      -5.143  17.851  24.388  0.00  0.00    +0.000 HD
ENDBRANCH   4  34
BRANCH  17  36
ATOM     36  O   UNL     1      -0.243  14.806  20.799  0.00  0.00    +0.000 OA
ATOM     37  H   UNL     1      -0.068  15.710  21.158  0.00  0.00    +0.000 HD
ENDBRANCH  17  36
TORSDOF 5
ENDMDL
MODEL 3
REMARK VINA RESULT:      -6.3      2.077      3.039
REMARK  Name = 
REMARK  9 active torsions:
REMARK  status: ('A' for Active; 'I' for Inactive)
REMARK    1  A    between atoms: C_1  and  N_2
REMARK    2  A    between atoms: N_2  and  C_3
REMARK    3  A    between atoms: N_2  and  C_4
REMARK    4  A    between atoms: C_7  and  O_8
REMARK    5  A    between atoms: C_15  and  N_16
REMARK    6  A    between atoms: N_16  and  C_17
REMARK    7  A    between atoms: N_16  and  C_18
REMARK    8  A    between atoms: C_21  and  C_22
REMARK    9  A    between atoms: C_27  and  O_28
REMARK                            x       y       z     vdW  Elec       q    Type
REMARK                         _______ _______ _______ _____ _____    ______ ____
ROOT
ATOM      1  C   UNL     1      10.066  14.130  19.811  0.00  0.00    +0.000 A 
ATOM      2  C   UNL     1      10.737  12.903  19.780  0.00  0.00    +0.000 A 
ATOM      3  C   UNL     1      10.388  11.860  20.645  0.00  0.00    +0.000 A 
ATOM      4  C   UNL     1       9.341  12.012  21.554  0.00  0.00    +0.000 A 
ATOM      5  C   UNL     1       8.653  13.227  21.630  0.00  0.00    +0.000 A 
ATOM      6  C   UNL     1       9.033  14.288  20.786  0.00  0.00    +0.000 A 
ATOM      7  C   UNL     1       8.324  15.604  20.890  0.00  0.00    +0.000 C 
ATOM      8  C   UNL     1       7.044  15.643  21.741  0.00  0.00    +0.000 C 
ATOM      9  C   UNL     1       6.129  16.664  21.116  0.00  0.00    +0.000 C 
ATOM     10  C   UNL     1       4.661  16.287  20.970  0.00  0.00    +0.000 C 
ATOM     11  C   UNL     1       4.186  16.383  19.525  0.00  0.00    +0.000 C 
ATOM     12  C   UNL     1       2.811  16.986  19.757  0.00  0.00    +0.000 C 
ATOM     13  O   UNL     1       2.523  18.110  19.330  0.00  0.00    +0.000 OA
ATOM     14  C   UNL     1       1.834  16.204  20.607  0.00  0.00    +0.000 C 
ATOM     15  C   UNL     1       2.521  15.625  21.920  0.00  0.00    +0.000 C 
ATOM     16  O   UNL     1       1.909  15.580  22.984  0.00  0.00    +0.000 OA
ATOM     17  C   UNL     1       3.978  15.165  21.763  0.00  0.00    +0.000 C 
ATOM     18  C   UNL     1       5.006  14.517  22.682  0.00  0.00    +0.000 C 
ATOM     19  O   UNL     1       4.711  14.065  23.781  0.00  0.00    +0.000 OA
ATOM     20  C   UNL     1       6.378  14.295  21.961  0.00  0.00    +0.000 C 
ATOM     21  C   UNL     1       7.467  13.416  22.540  0.00  0.00    +0.000 C 
ATOM     22  O   UNL     1       7.431  12.936  23.662  0.00  0.00    +0.000 OA
ENDROOT
BRANCH  14  23
ATOM     23  C   UNL     1       1.109  15.267  19.660  0.00  0.00    +0.000 C 
ATOM     24  N   UNL     1       0.335  15.878  18.688  0.00  0.00    +0.000 N 
ATOM     25  O   UNL     1       1.174  14.047  19.717  0.00  0.00    +0.000 OA
ATOM     26  H   UNL     1      -0.003  15.313  17.921  0.00  0.00    +0.000 HD
ATOM     27  H   UNL     1       0.265  16.888  18.545  0.00  0.00    +0.000 HD
ENDBRANCH  14  23
BRANCH   1  29
ATOM     28  C   UNL     1      10.222  14.796  17.454  0.00  0.00    +0.000 C 
ATOM     29  N   UNL     1      10.337  15.155  18.875  0.00  0.00    +0.000 N 
ATOM     30  C   UNL     1      11.561  15.915  19.166  0.00  0.00    +0.000 C 
ENDBRANCH   1  29
BRANCH  11  31
ATOM     31  N   UNL     1       4.365  15.320  18.492  0.00  0.00    +0.000 NA
ATOM     32  C   UNL     1       5.675  14.828  18.053  0.00  0.00    +0.000 C 
ATOM     33  C   UNL     1       3.693  15.707  17.238  0.00  0.00    +0.000 C 
ENDBRANCH  11  31
BRANCH   4  34
ATOM     34  O   UNL     1       8.959  10.946  22.316  0.00  0.00    +0.000 OA
ATOM     35  H   UNL     1       9.700  10.661  22.875  0.00  0.00    +0.000 HD
ENDBRANCH   4  34
BRANCH  17  36
ATOM     36  O   UNL     1       3.574  13.925  21.156  0.00  0.00    +0.000 OA
ATOM     37  H   UNL     1       3.981  13.197  21.687  0.00  0.00    +0.000 HD
ENDBRANCH  17  36
TORSDOF 5
ENDMDL
MODEL 4
REMARK VINA RESULT:      -6.1      3.532      7.737
REMARK  Name = 
REMARK  9 active torsions:
REMARK  status: ('A' for Active; 'I' for Inactive)
REMARK    1  A    between atoms: C_1  and  N_2
REMARK    2  A    between atoms: N_2  and  C_3
REMARK    3  A    between atoms: N_2  and  C_4
REMARK    4  A    between atoms: C_7  and  O_8
REMARK    5  A    between atoms: C_15  and  N_16
REMARK    6  A    between atoms: N_16  and  C_17
REMARK    7  A    between atoms: N_16  and  C_18
REMARK    8  A    between atoms: C_21  and  C_22
REMARK    9  A    between atoms: C_27  and  O_28
REMARK                            x       y       z     vdW  Elec       q    Type
REMARK                         _______ _______ _______ _____ _____    ______ ____
ROOT
ATOM      1  C   UNL     1       1.962  14.378  19.625  0.00  0.00    +0.000 A 
ATOM      2  C   UNL     1       0.862  14.961  18.985  0.00  0.00    +0.000 A 
ATOM      3  C   UNL     1       0.810  16.336  18.732  0.00  0.00    +0.000 A 
ATOM      4  C   UNL     1       1.872  17.165  19.097  0.00  0.00    +0.000 A 
ATOM      5  C   UNL     1       2.984  16.628  19.753  0.00  0.00    +0.000 A 
ATOM      6  C   UNL     1       3.015  15.250  20.042  0.00  0.00    +0.000 A 
ATOM      7  C   UNL     1       4.188  14.677  20.777  0.00  0.00    +0.000 C 
ATOM      8  C   UNL     1       5.416  15.586  20.951  0.00  0.00    +0.000 C 
ATOM      9  C   UNL     1       6.630  14.693  20.940  0.00  0.00    +0.000 C 
ATOM     10  C   UNL     1       7.824  15.153  20.115  0.00  0.00    +0.000 C 
ATOM     11  C   UNL     1       8.236  14.117  19.076  0.00  0.00    +0.000 C 
ATOM     12  C   UNL     1       9.746  14.232  19.196  0.00  0.00    +0.000 C 
ATOM     13  O   UNL     1      10.433  13.283  19.587  0.00  0.00    +0.000 OA
ATOM     14  C   UNL     1      10.373  15.579  18.909  0.00  0.00    +0.000 C 
ATOM     15  C   UNL     1       9.572  16.767  19.601  0.00  0.00    +0.000 C 
ATOM     16  O   UNL     1      10.162  17.734  20.073  0.00  0.00    +0.000 OA
ATOM     17  C   UNL     1       8.045  16.599  19.653  0.00  0.00    +0.000 C 
ATOM     18  C   UNL     1       6.886  17.456  20.148  0.00  0.00    +0.000 C 
ATOM     19  O   UNL     1       7.027  18.629  20.469  0.00  0.00    +0.000 OA
ATOM     20  C   UNL     1       5.508  16.738  19.964  0.00  0.00    +0.000 C 
ATOM     21  C   UNL     1       4.187  17.467  20.098  0.00  0.00    +0.000 C 
ATOM     22  O   UNL     1       4.080  18.615  20.498  0.00  0.00    +0.000 OA
ENDROOT
BRANCH  14  23
ATOM     23  C   UNL     1      10.630  15.613  17.415  0.00  0.00    +0.000 C 
ATOM     24  N   UNL     1      11.145  14.449  16.869  0.00  0.00    +0.000 N 
ATOM     25  O   UNL     1      10.413  16.583  16.702  0.00  0.00    +0.000 OA
ATOM     26  H   UNL     1      11.147  14.353  15.862  0.00  0.00    +0.000 HD
ATOM     27  H   UNL     1      11.310  13.584  17.386  0.00  0.00    +0.000 HD
ENDBRANCH  14  23
BRANCH   1  29
ATOM     28  C   UNL     1       2.128  12.170  18.567  0.00  0.00    +0.000 C 
ATOM     29  N   UNL     1       2.075  12.979  19.793  0.00  0.00    +0.000 N 
ATOM     30  C   UNL     1       1.150  12.425  20.793  0.00  0.00    +0.000 C 
ENDBRANCH   1  29
BRANCH  11  31
ATOM     31  N   UNL     1       7.609  13.956  17.731  0.00  0.00    +0.000 NA
ATOM     32  C   UNL     1       6.182  14.171  17.469  0.00  0.00    +0.000 C 
ATOM     33  C   UNL     1       7.868  12.604  17.204  0.00  0.00    +0.000 C 
ENDBRANCH  11  31
BRANCH   4  34
ATOM     34  O   UNL     1       1.837  18.485  18.750  0.00  0.00    +0.000 OA
ATOM     35  H   UNL     1       0.931  18.824  18.844  0.00  0.00    +0.000 HD
ENDBRANCH   4  34
BRANCH  17  36
ATOM     36  O   UNL     1       7.903  17.003  18.279  0.00  0.00    +0.000 OA
ATOM     37  H   UNL     1       8.636  17.637  18.088  0.00  0.00    +0.000 HD
ENDBRANCH  17  36
TORSDOF 5
ENDMDL
MODEL 5
REMARK VINA RESULT:      -6.1      6.711      9.471
REMARK  Name = 
REMARK  9 active torsions:
REMARK  status: ('A' for Active; 'I' for Inactive)
REMARK    1  A    between atoms: C_1  and  N_2
REMARK    2  A    between atoms: N_2  and  C_3
REMARK    3  A    between atoms: N_2  and  C_4
REMARK    4  A    between atoms: C_7  and  O_8
REMARK    5  A    between atoms: C_15  and  N_16
REMARK    6  A    between atoms: N_16  and  C_17
REMARK    7  A    between atoms: N_16  and  C_18
REMARK    8  A    between atoms: C_21  and  C_22
REMARK    9  A    between atoms: C_27  and  O_28
REMARK                            x       y       z     vdW  Elec       q    Type
REMARK                         _______ _______ _______ _____ _____    ______ ____
ROOT
ATOM      1  C   UNL     1       1.736  15.350  19.656  0.00  0.00    +0.000 A 
ATOM      2  C   UNL     1       2.255  14.783  18.487  0.00  0.00    +0.000 A 
ATOM      3  C   UNL     1       2.171  13.407  18.245  0.00  0.00    +0.000 A 
ATOM      4  C   UNL     1       1.545  12.563  19.162  0.00  0.00    +0.000 A 
ATOM      5  C   UNL     1       1.025  13.084  20.352  0.00  0.00    +0.000 A 
ATOM      6  C   UNL     1       1.148  14.463  20.610  0.00  0.00    +0.000 A 
ATOM      7  C   UNL     1       0.625  15.021  21.899  0.00  0.00    +0.000 C 
ATOM      8  C   UNL     1      -0.247  14.092  22.760  0.00  0.00    +0.000 C 
ATOM      9  C   UNL     1      -1.248  14.964  23.473  0.00  0.00    +0.000 C 
ATOM     10  C   UNL     1      -2.691  14.478  23.510  0.00  0.00    +0.000 C 
ATOM     11  C   UNL     1      -3.655  15.501  22.921  0.00  0.00    +0.000 C 
ATOM     12  C   UNL     1      -4.800  15.360  23.909  0.00  0.00    +0.000 C 
ATOM     13  O   UNL     1      -5.140  16.300  24.635  0.00  0.00    +0.000 OA
ATOM     14  C   UNL     1      -5.452  14.001  24.040  0.00  0.00    +0.000 C 
ATOM     15  C   UNL     1      -4.376  12.832  24.119  0.00  0.00    +0.000 C 
ATOM     16  O   UNL     1      -4.557  11.857  24.844  0.00  0.00    +0.000 OA
ATOM     17  C   UNL     1      -3.116  13.026  23.261  0.00  0.00    +0.000 C 
ATOM     18  C   UNL     1      -1.874  12.192  22.971  0.00  0.00    +0.000 C 
ATOM     19  O   UNL     1      -1.778  11.019  23.307  0.00  0.00    +0.000 OA
ATOM     20  C   UNL     1      -0.883  12.933  22.012  0.00  0.00    +0.000 C 
ATOM     21  C   UNL     1       0.273  12.227  21.336  0.00  0.00    +0.000 C 
ATOM     22  O   UNL     1       0.617  11.083  21.590  0.00  0.00    +0.000 OA
ENDROOT
BRANCH  14  23
ATOM     23  C   UNL     1      -6.541  13.954  22.986  0.00  0.00    +0.000 C 
ATOM     24  N   UNL     1      -7.449  15.000  23.015  0.00  0.00    +0.000 N 
ATOM     25  O   UNL     1      -6.650  13.068  22.149  0.00  0.00    +0.000 OA
ATOM     26  H   UNL     1      -8.065  15.120  22.223  0.00  0.00    +0.000 HD
ATOM     27  H   UNL     1      -7.400  15.798  23.650  0.00  0.00    +0.000 HD
ENDBRANCH  14  23
BRANCH   1  29
ATOM     28  C   UNL     1       0.931  17.548  18.917  0.00  0.00    +0.000 C 
ATOM     29  N   UNL     1       1.719  16.749  19.866  0.00  0.00    +0.000 N 
ATOM     30  C   UNL     1       3.047  17.326  20.120  0.00  0.00    +0.000 C 
ENDBRANCH   1  29
BRANCH  11  31
ATOM     31  N   UNL     1      -3.946  15.664  21.465  0.00  0.00    +0.000 NA
ATOM     32  C   UNL     1      -2.908  15.821  20.442  0.00  0.00    +0.000 C 
ATOM     33  C   UNL     1      -4.837  16.819  21.248  0.00  0.00    +0.000 C 
ENDBRANCH  11  31
BRANCH   4  34
ATOM     34  O   UNL     1       1.391  11.241  18.855  0.00  0.00    +0.000 OA
ATOM     35  H   UNL     1       1.308  11.137  17.893  0.00  0.00    +0.000 HD
ENDBRANCH   4  34
BRANCH  17  36
ATOM     36  O   UNL     1      -3.806  12.616  22.066  0.00  0.00    +0.000 OA
ATOM     37  H   UNL     1      -3.861  13.409  21.478  0.00  0.00    +0.000 HD
ENDBRANCH  17  36
TORSDOF 5
ENDMDL
MODEL 6
REMARK VINA RESULT:      -6.0      7.105     11.733
REMARK  Name = 
REMARK  9 active torsions:
REMARK  status: ('A' for Active; 'I' for Inactive)
REMARK    1  A    between atoms: C_1  and  N_2
REMARK    2  A    between atoms: N_2  and  C_3
REMARK    3  A    between atoms: N_2  and  C_4
REMARK    4  A    between atoms: C_7  and  O_8
REMARK    5  A    between atoms: C_15  and  N_16
REMARK    6  A    between atoms: N_16  and  C_17
REMARK    7  A    between atoms: N_16  and  C_18
REMARK    8  A    between atoms: C_21  and  C_22
REMARK    9  A    between atoms: C_27  and  O_28
REMARK                            x       y       z     vdW  Elec       q    Type
REMARK                         _______ _______ _______ _____ _____    ______ ____
ROOT
ATOM      1  C   UNL     1      -6.369  13.283  20.365  0.00  0.00    +0.000 A 
ATOM      2  C   UNL     1      -7.438  13.346  21.265  0.00  0.00    +0.000 A 
ATOM      3  C   UNL     1      -7.248  13.152  22.638  0.00  0.00    +0.000 A 
ATOM      4  C   UNL     1      -5.974  12.909  23.150  0.00  0.00    +0.000 A 
ATOM      5  C   UNL     1      -4.878  12.821  22.285  0.00  0.00    +0.000 A 
ATOM      6  C   UNL     1      -5.079  12.977  20.900  0.00  0.00    +0.000 A 
ATOM      7  C   UNL     1      -3.914  12.847  19.967  0.00  0.00    +0.000 C 
ATOM      8  C   UNL     1      -2.513  12.804  20.599  0.00  0.00    +0.000 C 
ATOM      9  C   UNL     1      -1.568  13.456  19.622  0.00  0.00    +0.000 C 
ATOM     10  C   UNL     1      -0.551  14.437  20.188  0.00  0.00    +0.000 C 
ATOM     11  C   UNL     1      -0.653  15.809  19.533  0.00  0.00    +0.000 C 
ATOM     12  C   UNL     1       0.825  16.137  19.412  0.00  0.00    +0.000 C 
ATOM     13  O   UNL     1       1.362  16.278  18.308  0.00  0.00    +0.000 OA
ATOM     14  C   UNL     1       1.640  16.193  20.686  0.00  0.00    +0.000 C 
ATOM     15  C   UNL     1       1.321  14.968  21.649  0.00  0.00    +0.000 C 
ATOM     16  O   UNL     1       2.209  14.440  22.312  0.00  0.00    +0.000 OA
ATOM     17  C   UNL     1      -0.141  14.495  21.665  0.00  0.00    +0.000 C 
ATOM     18  C   UNL     1      -0.920  13.434  22.433  0.00  0.00    +0.000 C 
ATOM     19  O   UNL     1      -0.447  12.842  23.396  0.00  0.00    +0.000 OA
ATOM     20  C   UNL     1      -2.423  13.383  22.001  0.00  0.00    +0.000 C 
ATOM     21  C   UNL     1      -3.472  12.636  22.797  0.00  0.00    +0.000 C 
ATOM     22  O   UNL     1      -3.220  11.902  23.738  0.00  0.00    +0.000 OA
ENDROOT
BRANCH  14  23
ATOM     23  C   UNL     1       1.511  17.613  21.204  0.00  0.00    +0.000 C 
ATOM     24  N   UNL     1       1.456  18.601  20.235  0.00  0.00    +0.000 N 
ATOM     25  O   UNL     1       1.460  17.910  22.389  0.00  0.00    +0.000 OA
ATOM     26  H   UNL     1       1.174  19.531  20.516  0.00  0.00    +0.000 HD
ATOM     27  H   UNL     1       1.447  18.433  19.227  0.00  0.00    +0.000 HD
ENDBRANCH  14  23
BRANCH   1  29
ATOM     28  C   UNL     1      -6.939  14.951  18.657  0.00  0.00    +0.000 C 
ATOM     29  N   UNL     1      -6.528  13.580  18.992  0.00  0.00    +0.000 N 
ATOM     30  C   UNL     1      -7.293  12.566  18.251  0.00  0.00    +0.000 C 
ENDBRANCH   1  29
BRANCH  11  31
ATOM     31  N   UNL     1      -1.620  16.877  19.929  0.00  0.00    +0.000 NA
ATOM     32  C   UNL     1      -2.992  16.606  20.372  0.00  0.00    +0.000 C 
ATOM     33  C   UNL     1      -1.785  17.848  18.833  0.00  0.00    +0.000 C 
ENDBRANCH  11  31
BRANCH   4  34
ATOM     34  O   UNL     1      -5.804  12.821  24.502  0.00  0.00    +0.000 OA
ATOM     35  H   UNL     1      -4.951  13.216  24.750  0.00  0.00    +0.000 HD
ENDBRANCH   4  34
BRANCH  17  36
ATOM     36  O   UNL     1      -0.534  15.572  22.534  0.00  0.00    +0.000 OA
ATOM     37  H   UNL     1      -1.520  15.551  22.593  0.00  0.00    +0.000 HD
ENDBRANCH  17  36
TORSDOF 5
ENDMDL
MODEL 7
REMARK VINA RESULT:      -5.9      6.728     11.606
REMARK  Name = 
REMARK  9 active torsions:
REMARK  status: ('A' for Active; 'I' for Inactive)
REMARK    1  A    between atoms: C_1  and  N_2
REMARK    2  A    between atoms: N_2  and  C_3
REMARK    3  A    between atoms: N_2  and  C_4
REMARK    4  A    between atoms: C_7  and  O_8
REMARK    5  A    between atoms: C_15  and  N_16
REMARK    6  A    between atoms: N_16  and  C_17
REMARK    7  A    between atoms: N_16  and  C_18
REMARK    8  A    between atoms: C_21  and  C_22
REMARK    9  A    between atoms: C_27  and  O_28
REMARK                            x       y       z     vdW  Elec       q    Type
REMARK                         _______ _______ _______ _____ _____    ______ ____
ROOT
ATOM      1  C   UNL     1      -6.259  13.980  21.777  0.00  0.00    +0.000 A 
ATOM      2  C   UNL     1      -7.048  13.920  22.931  0.00  0.00    +0.000 A 
ATOM      3  C   UNL     1      -6.587  13.301  24.098  0.00  0.00    +0.000 A 
ATOM      4  C   UNL     1      -5.310  12.742  24.148  0.00  0.00    +0.000 A 
ATOM      5  C   UNL     1      -4.493  12.765  23.014  0.00  0.00    +0.000 A 
ATOM      6  C   UNL     1      -4.976  13.352  21.828  0.00  0.00    +0.000 A 
ATOM      7  C   UNL     1      -4.118  13.346  20.600  0.00  0.00    +0.000 C 
ATOM      8  C   UNL     1      -2.650  12.923  20.774  0.00  0.00    +0.000 C 
ATOM      9  C   UNL     1      -1.844  13.698  19.764  0.00  0.00    +0.000 C 
ATOM     10  C   UNL     1      -0.537  14.315  20.243  0.00  0.00    +0.000 C 
ATOM     11  C   UNL     1      -0.495  15.821  20.009  0.00  0.00    +0.000 C 
ATOM     12  C   UNL     1       0.948  15.961  19.557  0.00  0.00    +0.000 C 
ATOM     13  O   UNL     1       1.229  16.349  18.418  0.00  0.00    +0.000 OA
ATOM     14  C   UNL     1       2.032  15.523  20.518  0.00  0.00    +0.000 C 
ATOM     15  C   UNL     1       1.695  14.123  21.194  0.00  0.00    +0.000 C 
ATOM     16  O   UNL     1       2.580  13.303  21.422  0.00  0.00    +0.000 OA
ATOM     17  C   UNL     1       0.211  13.874  21.507  0.00  0.00    +0.000 C 
ATOM     18  C   UNL     1      -0.573  12.751  22.175  0.00  0.00    +0.000 C 
ATOM     19  O   UNL     1      -0.026  11.839  22.783  0.00  0.00    +0.000 OA
ATOM     20  C   UNL     1      -2.112  13.040  22.191  0.00  0.00    +0.000 C 
ATOM     21  C   UNL     1      -3.079  12.243  23.040  0.00  0.00    +0.000 C 
ATOM     22  O   UNL     1      -2.775  11.234  23.655  0.00  0.00    +0.000 OA
ENDROOT
BRANCH  14  23
ATOM     23  C   UNL     1       2.334  16.727  21.388  0.00  0.00    +0.000 C 
ATOM     24  N   UNL     1       2.713  17.875  20.712  0.00  0.00    +0.000 N 
ATOM     25  O   UNL     1       2.264  16.727  22.610  0.00  0.00    +0.000 OA
ATOM     26  H   UNL     1       2.732  18.747  21.224  0.00  0.00    +0.000 HD
ATOM     27  H   UNL     1       2.752  17.969  19.696  0.00  0.00    +0.000 HD
ENDBRANCH  14  23
BRANCH   1  29
ATOM     28  C   UNL     1      -6.701  16.156  20.733  0.00  0.00    +0.000 C 
ATOM     29  N   UNL     1      -6.669  14.691  20.626  0.00  0.00    +0.000 N 
ATOM     30  C   UNL     1      -7.879  14.147  19.992  0.00  0.00    +0.000 C 
ENDBRANCH   1  29
BRANCH  11  31
ATOM     31  N   UNL     1      -1.091  16.845  20.917  0.00  0.00    +0.000 NA
ATOM     32  C   UNL     1      -2.452  16.758  21.458  0.00  0.00    +0.000 C 
ATOM     33  C   UNL     1      -1.044  18.177  20.287  0.00  0.00    +0.000 C 
ENDBRANCH  11  31
BRANCH   4  34
ATOM     34  O   UNL     1      -4.851  12.233  25.329  0.00  0.00    +0.000 OA
ATOM     35  H   UNL     1      -3.891  12.092  25.272  0.00  0.00    +0.000 HD
ENDBRANCH   4  34
BRANCH  17  36
ATOM     36  O   UNL     1       0.272  14.687  22.693  0.00  0.00    +0.000 OA
ATOM     37  H   UNL     1       0.044  15.610  22.422  0.00  0.00    +0.000 HD
ENDBRANCH  17  36
TORSDOF 5
ENDMDL
MODEL 8
REMARK VINA RESULT:      -5.7      5.435      8.995
REMARK  Name = 
REMARK  9 active torsions:
REMARK  status: ('A' for Active; 'I' for Inactive)
REMARK    1  A    between atoms: C_1  and  N_2
REMARK    2  A    between atoms: N_2  and  C_3
REMARK    3  A    between atoms: N_2  and  C_4
REMARK    4  A    between atoms: C_7  and  O_8
REMARK    5  A    between atoms: C_15  and  N_16
REMARK    6  A    between atoms: N_16  and  C_17
REMARK    7  A    between atoms: N_16  and  C_18
REMARK    8  A    between atoms: C_21  and  C_22
REMARK    9  A    between atoms: C_27  and  O_28
REMARK                            x       y       z     vdW  Elec       q    Type
REMARK                         _______ _______ _______ _____ _____    ______ ____
ROOT
ATOM      1  C   UNL     1      -1.689  11.814  22.684  0.00  0.00    +0.000 A 
ATOM      2  C   UNL     1      -1.483  10.665  23.456  0.00  0.00    +0.000 A 
ATOM      3  C   UNL     1      -0.560   9.686  23.074  0.00  0.00    +0.000 A 
ATOM      4  C   UNL     1       0.199   9.840  21.914  0.00  0.00    +0.000 A 
ATOM      5  C   UNL     1       0.015  10.965  21.103  0.00  0.00    +0.000 A 
ATOM      6  C   UNL     1      -0.944  11.929  21.470  0.00  0.00    +0.000 A 
ATOM      7  C   UNL     1      -1.170  13.117  20.585  0.00  0.00    +0.000 C 
ATOM      8  C   UNL     1      -0.158  13.348  19.451  0.00  0.00    +0.000 C 
ATOM      9  C   UNL     1      -0.056  14.837  19.246  0.00  0.00    +0.000 C 
ATOM     10  C   UNL     1       1.339  15.422  19.076  0.00  0.00    +0.000 C 
ATOM     11  C   UNL     1       1.634  16.508  20.104  0.00  0.00    +0.000 C 
ATOM     12  C   UNL     1       2.370  17.497  19.216  0.00  0.00    +0.000 C 
ATOM     13  O   UNL     1       1.914  18.623  18.994  0.00  0.00    +0.000 OA
ATOM     14  C   UNL     1       3.637  17.023  18.536  0.00  0.00    +0.000 C 
ATOM     15  C   UNL     1       3.461  15.577  17.896  0.00  0.00    +0.000 C 
ATOM     16  O   UNL     1       3.996  15.292  16.828  0.00  0.00    +0.000 OA
ATOM     17  C   UNL     1       2.574  14.602  18.685  0.00  0.00    +0.000 C 
ATOM     18  C   UNL     1       2.162  13.144  18.514  0.00  0.00    +0.000 C 
ATOM     19  O   UNL     1       2.690  12.405  17.693  0.00  0.00    +0.000 OA
ATOM     20  C   UNL     1       1.190  12.674  19.647  0.00  0.00    +0.000 C 
ATOM     21  C   UNL     1       0.864  11.215  19.883  0.00  0.00    +0.000 C 
ATOM     22  O   UNL     1       1.201  10.311  19.136  0.00  0.00    +0.000 OA
ENDROOT
BRANCH  14  23
ATOM     23  C   UNL     1       4.762  17.282  19.518  0.00  0.00    +0.000 C 
ATOM     24  N   UNL     1       5.828  16.399  19.455  0.00  0.00    +0.000 N 
ATOM     25  O   UNL     1       4.768  18.195  20.332  0.00  0.00    +0.000 OA
ATOM     26  H   UNL     1       6.679  16.641  19.943  0.00  0.00    +0.000 HD
ATOM     27  H   UNL     1       5.919  15.641  18.776  0.00  0.00    +0.000 HD
ENDBRANCH  14  23
BRANCH   1  29
ATOM     28  C   UNL     1      -1.889  14.048  23.679  0.00  0.00    +0.000 C 
ATOM     29  N   UNL     1      -2.540  12.860  23.110  0.00  0.00    +0.000 N 
ATOM     30  C   UNL     1      -3.683  12.404  23.915  0.00  0.00    +0.000 C 
ENDBRANCH   1  29
BRANCH  11  31
ATOM     31  N   UNL     1       2.113  16.262  21.497  0.00  0.00    +0.000 NA
ATOM     32  C   UNL     1       1.734  15.089  22.290  0.00  0.00    +0.000 C 
ATOM     33  C   UNL     1       1.773  17.404  22.364  0.00  0.00    +0.000 C 
ENDBRANCH  11  31
BRANCH   4  34
ATOM     34  O   UNL     1       1.161   8.917  21.618  0.00  0.00    +0.000 OA
ATOM     35  H   UNL     1       2.023   9.230  21.939  0.00  0.00    +0.000 HD
ENDBRANCH   4  34
BRANCH  17  36
ATOM     36  O   UNL     1       3.634  14.310  19.613  0.00  0.00    +0.000 OA
ATOM     37  H   UNL     1       4.121  13.526  19.259  0.00  0.00    +0.000 HD
ENDBRANCH  17  36
TORSDOF 5
ENDMDL
MODEL 9
REMARK VINA RESULT:      -5.6      2.034      3.273
REMARK  Name = 
REMARK  9 active torsions:
REMARK  status: ('A' for Active; 'I' for Inactive)
REMARK    1  A    between atoms: C_1  and  N_2
REMARK    2  A    between atoms: N_2  and  C_3
REMARK    3  A    between atoms: N_2  and  C_4
REMARK    4  A    between atoms: C_7  and  O_8
REMARK    5  A    between atoms: C_15  and  N_16
REMARK    6  A    between atoms: N_16  and  C_17
REMARK    7  A    between atoms: N_16  and  C_18
REMARK    8  A    between atoms: C_21  and  C_22
REMARK    9  A    between atoms: C_27  and  O_28
REMARK                            x       y       z     vdW  Elec       q    Type
REMARK                         _______ _______ _______ _____ _____    ______ ____
ROOT
ATOM      1  C   UNL     1       9.188  13.352  19.880  0.00  0.00    +0.000 A 
ATOM      2  C   UNL     1       9.694  12.059  20.050  0.00  0.00    +0.000 A 
ATOM      3  C   UNL     1       9.414  11.312  21.200  0.00  0.00    +0.000 A 
ATOM      4  C   UNL     1       8.600  11.835  22.205  0.00  0.00    +0.000 A 
ATOM      5  C   UNL     1       8.085  13.130  22.085  0.00  0.00    +0.000 A 
ATOM      6  C   UNL     1       8.403  13.894  20.945  0.00  0.00    +0.000 A 
ATOM      7  C   UNL     1       7.883  15.294  20.829  0.00  0.00    +0.000 C 
ATOM      8  C   UNL     1       6.818  15.732  21.848  0.00  0.00    +0.000 C 
ATOM      9  C   UNL     1       5.917  16.716  21.148  0.00  0.00    +0.000 C 
ATOM     10  C   UNL     1       4.417  16.556  21.357  0.00  0.00    +0.000 C 
ATOM     11  C   UNL     1       3.669  16.394  20.040  0.00  0.00    +0.000 C 
ATOM     12  C   UNL     1       2.448  17.247  20.341  0.00  0.00    +0.000 C 
ATOM     13  O   UNL     1       2.209  18.274  19.698  0.00  0.00    +0.000 OA
ATOM     14  C   UNL     1       1.585  16.848  21.518  0.00  0.00    +0.000 C 
ATOM     15  C   UNL     1       2.457  16.483  22.798  0.00  0.00    +0.000 C 
ATOM     16  O   UNL     1       2.076  16.781  23.926  0.00  0.00    +0.000 OA
ATOM     17  C   UNL     1       3.789  15.771  22.516  0.00  0.00    +0.000 C 
ATOM     18  C   UNL     1       4.904  15.194  23.380  0.00  0.00    +0.000 C 
ATOM     19  O   UNL     1       4.792  15.059  24.592  0.00  0.00    +0.000 OA
ATOM     20  C   UNL     1       6.064  14.595  22.516  0.00  0.00    +0.000 C 
ATOM     21  C   UNL     1       7.141  13.709  23.106  0.00  0.00    +0.000 C 
ATOM     22  O   UNL     1       7.283  13.512  24.302  0.00  0.00    +0.000 OA
ENDROOT
BRANCH  14  23
ATOM     23  C   UNL     1       0.580  15.848  20.981  0.00  0.00    +0.000 C 
ATOM     24  N   UNL     1      -0.294  16.332  20.022  0.00  0.00    +0.000 N 
ATOM     25  O   UNL     1       0.508  14.682  21.345  0.00  0.00    +0.000 OA
ATOM     26  H   UNL     1      -0.844  15.667  19.495  0.00  0.00    +0.000 HD
ATOM     27  H   UNL     1      -0.270  17.277  19.632  0.00  0.00    +0.000 HD
ENDBRANCH  14  23
BRANCH   1  29
ATOM     28  C   UNL     1       8.786  13.502  17.464  0.00  0.00    +0.000 C 
ATOM     29  N   UNL     1       9.375  14.078  18.681  0.00  0.00    +0.000 N 
ATOM     30  C   UNL     1      10.757  14.536  18.475  0.00  0.00    +0.000 C 
ENDBRANCH   1  29
BRANCH  11  31
ATOM     31  N   UNL     1       3.510  15.108  19.297  0.00  0.00    +0.000 NA
ATOM     32  C   UNL     1       4.633  14.359  18.723  0.00  0.00    +0.000 C 
ATOM     33  C   UNL     1       2.582  15.282  18.166  0.00  0.00    +0.000 C 
ENDBRANCH  11  31
BRANCH   4  34
ATOM     34  O   UNL     1       8.265  11.047  23.268  0.00  0.00    +0.000 OA
ATOM     35  H   UNL     1       7.477  11.409  23.707  0.00  0.00    +0.000 HD
ENDBRANCH   4  34
BRANCH  17  36
ATOM     36  O   UNL     1       3.131  14.506  22.325  0.00  0.00    +0.000 OA
ATOM     37  H   UNL     1       3.568  14.066  21.555  0.00  0.00    +0.000 HD
ENDBRANCH  17  36
TORSDOF 5
ENDMDL
