MODEL 1
REMARK VINA RESULT:      -5.9      0.000      0.000
REMARK  Name = 
REMARK  5 active torsions:
REMARK  status: ('A' for Active; 'I' for Inactive)
REMARK    1  A    between atoms: C_1  and  C_2
REMARK    2  A    between atoms: C_2  and  C_3
REMARK    3  A    between atoms: C_6  and  C_7
REMARK    4  A    between atoms: C_9  and  N_10
REMARK    5  A    between atoms: N_11  and  C_12
REMARK                            x       y       z     vdW  Elec       q    Type
REMARK                         _______ _______ _______ _____ _____    ______ ____
ROOT
ATOM      1  C   UNL     1       2.155   8.509  17.803  0.00  0.00    +0.000 C 
ATOM      2  C   UNL     1       1.393   9.682  18.433  0.00  0.00    +0.000 C 
ATOM      3  C   UNL     1       2.132  10.985  18.091  0.00  0.00    +0.000 C 
ATOM      4  C   UNL     1      -0.064   9.684  17.931  0.00  0.00    +0.000 C 
ATOM      5  C   UNL     1      -0.974  10.551  18.770  0.00  0.00    +0.000 A 
ATOM      6  C   UNL     1      -2.225  11.009  18.211  0.00  0.00    +0.000 A 
ATOM      7  C   UNL     1      -3.051  11.861  18.872  0.00  0.00    +0.000 A 
ATOM      8  N   UNL     1      -2.715  12.282  20.198  0.00  0.00    +0.000 N 
ATOM      9  C   UNL     1      -1.555  11.745  20.872  0.00  0.00    +0.000 A 
ATOM     10  S   UNL     1      -1.225  11.918  22.543  0.00  0.00    +0.000 S 
ATOM     11  C   UNL     1      -0.617  10.897  20.023  0.00  0.00    +0.000 A 
ATOM     12  C   UNL     1       0.691  10.418  20.622  0.00  0.00    +0.000 C 
ATOM     13  O   UNL     1       1.382   9.440  19.839  0.00  0.00    +0.000 OA
ENDROOT
BRANCH   8  14
ATOM     14  C   UNL     1      -3.623  13.181  20.927  0.00  0.00    +0.000 A 
ATOM     15  C   UNL     1      -4.758  12.691  21.598  0.00  0.00    +0.000 A 
ATOM     16  C   UNL     1      -5.643  13.546  22.265  0.00  0.00    +0.000 A 
ATOM     17  C   UNL     1      -5.380  14.911  22.331  0.00  0.00    +0.000 A 
ATOM     18  C   UNL     1      -4.256  15.420  21.691  0.00  0.00    +0.000 A 
ATOM     19  C   UNL     1      -3.413  14.571  20.962  0.00  0.00    +0.000 A 
ENDBRANCH   8  14
BRANCH   7  20
ATOM     20  N   UNL     1      -4.203  12.335  18.243  0.00  0.00    +0.000 N 
ATOM     21  H   UNL     1      -5.059  11.803  18.368  0.00  0.00    +0.000 HD
ATOM     22  H   UNL     1      -4.048  12.567  17.264  0.00  0.00    +0.000 HD
ENDBRANCH   7  20
BRANCH   6  23
ATOM     23  C   UNL     1      -2.623  10.524  16.826  0.00  0.00    +0.000 C 
ATOM     24  N   UNL     1      -2.953  10.121  15.677  0.00  0.00    +0.000 NA
ENDBRANCH   6  23
TORSDOF 3
ENDMDL
MODEL 2
REMARK VINA RESULT:      -5.9      3.600      7.322
REMARK  Name = 
REMARK  5 active torsions:
REMARK  status: ('A' for Active; 'I' for Inactive)
REMARK    1  A    between atoms: C_1  and  C_2
REMARK    2  A    between atoms: C_2  and  C_3
REMARK    3  A    between atoms: C_6  and  C_7
REMARK    4  A    between atoms: C_9  and  N_10
REMARK    5  A    between atoms: N_11  and  C_12
REMARK                            x       y       z     vdW  Elec       q    Type
REMARK                         _______ _______ _______ _____ _____    ______ ____
ROOT
ATOM      1  C   UNL     1      -7.681  14.109  24.205  0.00  0.00    +0.000 C 
ATOM      2  C   UNL     1      -7.288  13.735  22.770  0.00  0.00    +0.000 C 
ATOM      3  C   UNL     1      -7.917  14.755  21.809  0.00  0.00    +0.000 C 
ATOM      4  C   UNL     1      -5.752  13.683  22.650  0.00  0.00    +0.000 C 
ATOM      5  C   UNL     1      -5.284  12.965  21.404  0.00  0.00    +0.000 A 
ATOM      6  C   UNL     1      -3.944  13.199  20.917  0.00  0.00    +0.000 A 
ATOM      7  C   UNL     1      -3.485  12.659  19.759  0.00  0.00    +0.000 A 
ATOM      8  N   UNL     1      -4.325  11.774  19.012  0.00  0.00    +0.000 N 
ATOM      9  C   UNL     1      -5.621  11.381  19.519  0.00  0.00    +0.000 A 
ATOM     10  S   UNL     1      -6.572  10.104  18.891  0.00  0.00    +0.000 S 
ATOM     11  C   UNL     1      -6.111  12.124  20.755  0.00  0.00    +0.000 A 
ATOM     12  C   UNL     1      -7.518  11.867  21.260  0.00  0.00    +0.000 C 
ATOM     13  O   UNL     1      -7.799  12.422  22.548  0.00  0.00    +0.000 OA
ENDROOT
BRANCH   8  14
ATOM     14  C   UNL     1      -3.820  11.164  17.772  0.00  0.00    +0.000 A 
ATOM     15  C   UNL     1      -4.350  11.510  16.516  0.00  0.00    +0.000 A 
ATOM     16  C   UNL     1      -3.896  10.909  15.335  0.00  0.00    +0.000 A 
ATOM     17  C   UNL     1      -2.852   9.991  15.377  0.00  0.00    +0.000 A 
ATOM     18  C   UNL     1      -2.297   9.643  16.603  0.00  0.00    +0.000 A 
ATOM     19  C   UNL     1      -2.805  10.192  17.788  0.00  0.00    +0.000 A 
ENDBRANCH   8  14
BRANCH   7  20
ATOM     20  N   UNL     1      -2.211  12.992  19.297  0.00  0.00    +0.000 N 
ATOM     21  H   UNL     1      -2.143  13.429  18.382  0.00  0.00    +0.000 HD
ATOM     22  H   UNL     1      -1.546  12.229  19.395  0.00  0.00    +0.000 HD
ENDBRANCH   7  20
BRANCH   6  23
ATOM     23  C   UNL     1      -3.020  14.091  21.731  0.00  0.00    +0.000 C 
ATOM     24  N   UNL     1      -2.255  14.832  22.406  0.00  0.00    +0.000 NA
ENDBRANCH   6  23
TORSDOF 3
ENDMDL
MODEL 3
REMARK VINA RESULT:      -5.9      0.060      1.025
REMARK  Name = 
REMARK  5 active torsions:
REMARK  status: ('A' for Active; 'I' for Inactive)
REMARK    1  A    between atoms: C_1  and  C_2
REMARK    2  A    between atoms: C_2  and  C_3
REMARK    3  A    between atoms: C_6  and  C_7
REMARK    4  A    between atoms: C_9  and  N_10
REMARK    5  A    between atoms: N_11  and  C_12
REMARK                            x       y       z     vdW  Elec       q    Type
REMARK                         _______ _______ _______ _____ _____    ______ ____
ROOT
ATOM      1  C   UNL     1       2.207   8.483  17.818  0.00  0.00    +0.000 C 
ATOM      2  C   UNL     1       1.437   9.658  18.433  0.00  0.00    +0.000 C 
ATOM      3  C   UNL     1       2.168  10.962  18.078  0.00  0.00    +0.000 C 
ATOM      4  C   UNL     1      -0.019   9.644  17.928  0.00  0.00    +0.000 C 
ATOM      5  C   UNL     1      -0.937  10.515  18.756  0.00  0.00    +0.000 A 
ATOM      6  C   UNL     1      -2.189  10.959  18.190  0.00  0.00    +0.000 A 
ATOM      7  C   UNL     1      -3.022  11.813  18.839  0.00  0.00    +0.000 A 
ATOM      8  N   UNL     1      -2.691  12.251  20.161  0.00  0.00    +0.000 N 
ATOM      9  C   UNL     1      -1.529  11.729  20.843  0.00  0.00    +0.000 A 
ATOM     10  S   UNL     1      -1.204  11.923  22.513  0.00  0.00    +0.000 S 
ATOM     11  C   UNL     1      -0.584  10.877  20.005  0.00  0.00    +0.000 A 
ATOM     12  C   UNL     1       0.726  10.414  20.612  0.00  0.00    +0.000 C 
ATOM     13  O   UNL     1       1.424   9.432  19.841  0.00  0.00    +0.000 OA
ENDROOT
BRANCH   8  14
ATOM     14  C   UNL     1      -3.606  13.153  20.878  0.00  0.00    +0.000 A 
ATOM     15  C   UNL     1      -3.380  14.540  20.926  0.00  0.00    +0.000 A 
ATOM     16  C   UNL     1      -4.228  15.399  21.635  0.00  0.00    +0.000 A 
ATOM     17  C   UNL     1      -5.364  14.897  22.263  0.00  0.00    +0.000 A 
ATOM     18  C   UNL     1      -5.621  13.532  22.218  0.00  0.00    +0.000 A 
ATOM     19  C   UNL     1      -4.729  12.667  21.570  0.00  0.00    +0.000 A 
ENDBRANCH   8  14
BRANCH   7  20
ATOM     20  N   UNL     1      -4.175  12.273  18.203  0.00  0.00    +0.000 N 
ATOM     21  H   UNL     1      -4.892  11.588  17.978  0.00  0.00    +0.000 HD
ATOM     22  H   UNL     1      -3.972  12.873  17.407  0.00  0.00    +0.000 HD
ENDBRANCH   7  20
BRANCH   6  23
ATOM     23  C   UNL     1      -2.581  10.456  16.809  0.00  0.00    +0.000 C 
ATOM     24  N   UNL     1      -2.906  10.038  15.665  0.00  0.00    +0.000 NA
ENDBRANCH   6  23
TORSDOF 3
ENDMDL
MODEL 4
REMARK VINA RESULT:      -5.8      6.001     10.175
REMARK  Name = 
REMARK  5 active torsions:
REMARK  status: ('A' for Active; 'I' for Inactive)
REMARK    1  A    between atoms: C_1  and  C_2
REMARK    2  A    between atoms: C_2  and  C_3
REMARK    3  A    between atoms: C_6  and  C_7
REMARK    4  A    between atoms: C_9  and  N_10
REMARK    5  A    between atoms: N_11  and  C_12
REMARK                            x       y       z     vdW  Elec       q    Type
REMARK                         _______ _______ _______ _____ _____    ______ ____
ROOT
ATOM      1  C   UNL     1      -0.508   8.570  22.042  0.00  0.00    +0.000 C 
ATOM      2  C   UNL     1       0.810   8.232  21.334  0.00  0.00    +0.000 C 
ATOM      3  C   UNL     1       1.967   8.848  22.135  0.00  0.00    +0.000 C 
ATOM      4  C   UNL     1       0.944   6.703  21.192  0.00  0.00    +0.000 C 
ATOM      5  C   UNL     1       2.001   6.296  20.189  0.00  0.00    +0.000 A 
ATOM      6  C   UNL     1       2.554   4.963  20.249  0.00  0.00    +0.000 A 
ATOM      7  C   UNL     1       3.565   4.556  19.440  0.00  0.00    +0.000 A 
ATOM      8  N   UNL     1       4.074   5.449  18.444  0.00  0.00    +0.000 N 
ATOM      9  C   UNL     1       3.467   6.744  18.233  0.00  0.00    +0.000 A 
ATOM     10  S   UNL     1       3.768   7.759  16.887  0.00  0.00    +0.000 S 
ATOM     11  C   UNL     1       2.425   7.172  19.258  0.00  0.00    +0.000 A 
ATOM     12  C   UNL     1       1.849   8.573  19.183  0.00  0.00    +0.000 C 
ATOM     13  O   UNL     1       0.717   8.797  20.028  0.00  0.00    +0.000 OA
ENDROOT
BRANCH   8  14
ATOM     14  C   UNL     1       5.151   5.001  17.547  0.00  0.00    +0.000 A 
ATOM     15  C   UNL     1       4.870   4.377  16.319  0.00  0.00    +0.000 A 
ATOM     16  C   UNL     1       5.890   3.919  15.476  0.00  0.00    +0.000 A 
ATOM     17  C   UNL     1       7.223   4.131  15.815  0.00  0.00    +0.000 A 
ATOM     18  C   UNL     1       7.530   4.759  17.016  0.00  0.00    +0.000 A 
ATOM     19  C   UNL     1       6.506   5.150  17.890  0.00  0.00    +0.000 A 
ENDBRANCH   8  14
BRANCH   7  20
ATOM     20  N   UNL     1       4.115   3.284  19.605  0.00  0.00    +0.000 N 
ATOM     21  H   UNL     1       4.725   3.136  20.404  0.00  0.00    +0.000 HD
ATOM     22  H   UNL     1       4.528   2.921  18.749  0.00  0.00    +0.000 HD
ENDBRANCH   7  20
BRANCH   6  23
ATOM     23  C   UNL     1       1.982   3.984  21.263  0.00  0.00    +0.000 C 
ATOM     24  N   UNL     1       1.509   3.172  22.104  0.00  0.00    +0.000 NA
ENDBRANCH   6  23
TORSDOF 3
ENDMDL
MODEL 5
REMARK VINA RESULT:      -5.8      6.006     10.202
REMARK  Name = 
REMARK  5 active torsions:
REMARK  status: ('A' for Active; 'I' for Inactive)
REMARK    1  A    between atoms: C_1  and  C_2
REMARK    2  A    between atoms: C_2  and  C_3
REMARK    3  A    between atoms: C_6  and  C_7
REMARK    4  A    between atoms: C_9  and  N_10
REMARK    5  A    between atoms: N_11  and  C_12
REMARK                            x       y       z     vdW  Elec       q    Type
REMARK                         _______ _______ _______ _____ _____    ______ ____
ROOT
ATOM      1  C   UNL     1      -0.510   8.563  22.037  0.00  0.00    +0.000 C 
ATOM      2  C   UNL     1       0.809   8.222  21.332  0.00  0.00    +0.000 C 
ATOM      3  C   UNL     1       1.966   8.833  22.137  0.00  0.00    +0.000 C 
ATOM      4  C   UNL     1       0.938   6.693  21.186  0.00  0.00    +0.000 C 
ATOM      5  C   UNL     1       1.997   6.286  20.185  0.00  0.00    +0.000 A 
ATOM      6  C   UNL     1       2.545   4.950  20.243  0.00  0.00    +0.000 A 
ATOM      7  C   UNL     1       3.558   4.543  19.436  0.00  0.00    +0.000 A 
ATOM      8  N   UNL     1       4.073   5.437  18.444  0.00  0.00    +0.000 N 
ATOM      9  C   UNL     1       3.471   6.734  18.235  0.00  0.00    +0.000 A 
ATOM     10  S   UNL     1       3.779   7.751  16.893  0.00  0.00    +0.000 S 
ATOM     11  C   UNL     1       2.427   7.163  19.257  0.00  0.00    +0.000 A 
ATOM     12  C   UNL     1       1.856   8.566  19.184  0.00  0.00    +0.000 C 
ATOM     13  O   UNL     1       0.722   8.791  20.027  0.00  0.00    +0.000 OA
ENDROOT
BRANCH   8  14
ATOM     14  C   UNL     1       5.151   4.987  17.550  0.00  0.00    +0.000 A 
ATOM     15  C   UNL     1       6.505   5.154  17.892  0.00  0.00    +0.000 A 
ATOM     16  C   UNL     1       7.536   4.759  17.030  0.00  0.00    +0.000 A 
ATOM     17  C   UNL     1       7.235   4.126  15.828  0.00  0.00    +0.000 A 
ATOM     18  C   UNL     1       5.906   3.934  15.472  0.00  0.00    +0.000 A 
ATOM     19  C   UNL     1       4.878   4.397  16.304  0.00  0.00    +0.000 A 
ENDBRANCH   8  14
BRANCH   7  20
ATOM     20  N   UNL     1       4.103   3.268  19.600  0.00  0.00    +0.000 N 
ATOM     21  H   UNL     1       5.111   3.199  19.710  0.00  0.00    +0.000 HD
ATOM     22  H   UNL     1       3.758   2.603  18.911  0.00  0.00    +0.000 HD
ENDBRANCH   7  20
BRANCH   6  23
ATOM     23  C   UNL     1       1.968   3.971  21.253  0.00  0.00    +0.000 C 
ATOM     24  N   UNL     1       1.489   3.159  22.090  0.00  0.00    +0.000 NA
ENDBRANCH   6  23
TORSDOF 3
ENDMDL
MODEL 6
REMARK VINA RESULT:      -5.7      3.595      7.346
REMARK  Name = 
REMARK  5 active torsions:
REMARK  status: ('A' for Active; 'I' for Inactive)
REMARK    1  A    between atoms: C_1  and  C_2
REMARK    2  A    between atoms: C_2  and  C_3
REMARK    3  A    between atoms: C_6  and  C_7
REMARK    4  A    between atoms: C_9  and  N_10
REMARK    5  A    between atoms: N_11  and  C_12
REMARK                            x       y       z     vdW  Elec       q    Type
REMARK                         _______ _______ _______ _____ _____    ______ ____
ROOT
ATOM      1  C   UNL     1      -7.697  14.648  23.927  0.00  0.00    +0.000 C 
ATOM      2  C   UNL     1      -7.262  14.198  22.526  0.00  0.00    +0.000 C 
ATOM      3  C   UNL     1      -7.744  15.241  21.506  0.00  0.00    +0.000 C 
ATOM      4  C   UNL     1      -5.733  14.007  22.494  0.00  0.00    +0.000 C 
ATOM      5  C   UNL     1      -5.265  13.213  21.295  0.00  0.00    +0.000 A 
ATOM      6  C   UNL     1      -3.885  13.313  20.878  0.00  0.00    +0.000 A 
ATOM      7  C   UNL     1      -3.415  12.700  19.762  0.00  0.00    +0.000 A 
ATOM      8  N   UNL     1      -4.290  11.871  18.991  0.00  0.00    +0.000 N 
ATOM      9  C   UNL     1      -5.641  11.610  19.433  0.00  0.00    +0.000 A 
ATOM     10  S   UNL     1      -6.669  10.404  18.785  0.00  0.00    +0.000 S 
ATOM     11  C   UNL     1      -6.129  12.429  20.621  0.00  0.00    +0.000 A 
ATOM     12  C   UNL     1      -7.578  12.314  21.052  0.00  0.00    +0.000 C 
ATOM     13  O   UNL     1      -7.877  12.929  22.308  0.00  0.00    +0.000 OA
ENDROOT
BRANCH   8  14
ATOM     14  C   UNL     1      -3.775  11.183  17.796  0.00  0.00    +0.000 A 
ATOM     15  C   UNL     1      -2.777  10.196  17.892  0.00  0.00    +0.000 A 
ATOM     16  C   UNL     1      -2.260   9.561  16.757  0.00  0.00    +0.000 A 
ATOM     17  C   UNL     1      -2.775   9.855  15.498  0.00  0.00    +0.000 A 
ATOM     18  C   UNL     1      -3.772  10.814  15.375  0.00  0.00    +0.000 A 
ATOM     19  C   UNL     1      -4.236  11.499  16.507  0.00  0.00    +0.000 A 
ENDBRANCH   8  14
BRANCH   7  20
ATOM     20  N   UNL     1      -2.093  12.905  19.365  0.00  0.00    +0.000 N 
ATOM     21  H   UNL     1      -1.902  12.933  18.367  0.00  0.00    +0.000 HD
ATOM     22  H   UNL     1      -1.438  12.298  19.852  0.00  0.00    +0.000 HD
ENDBRANCH   7  20
BRANCH   6  23
ATOM     23  C   UNL     1      -2.930  14.143  21.721  0.00  0.00    +0.000 C 
ATOM     24  N   UNL     1      -2.138  14.833  22.419  0.00  0.00    +0.000 NA
ENDBRANCH   6  23
TORSDOF 3
ENDMDL
MODEL 7
REMARK VINA RESULT:      -5.4      1.111      1.649
REMARK  Name = 
REMARK  5 active torsions:
REMARK  status: ('A' for Active; 'I' for Inactive)
REMARK    1  A    between atoms: C_1  and  C_2
REMARK    2  A    between atoms: C_2  and  C_3
REMARK    3  A    between atoms: C_6  and  C_7
REMARK    4  A    between atoms: C_9  and  N_10
REMARK    5  A    between atoms: N_11  and  C_12
REMARK                            x       y       z     vdW  Elec       q    Type
REMARK                         _______ _______ _______ _____ _____    ______ ____
ROOT
ATOM      1  C   UNL     1       1.460   9.595  18.056  0.00  0.00    +0.000 C 
ATOM      2  C   UNL     1       0.686  10.687  18.805  0.00  0.00    +0.000 C 
ATOM      3  C   UNL     1       1.330  12.046  18.489  0.00  0.00    +0.000 C 
ATOM      4  C   UNL     1      -0.801  10.635  18.406  0.00  0.00    +0.000 C 
ATOM      5  C   UNL     1      -1.692  11.403  19.357  0.00  0.00    +0.000 A 
ATOM      6  C   UNL     1      -3.002  11.821  18.914  0.00  0.00    +0.000 A 
ATOM      7  C   UNL     1      -3.820  12.588  19.680  0.00  0.00    +0.000 A 
ATOM      8  N   UNL     1      -3.411  12.953  21.001  0.00  0.00    +0.000 N 
ATOM      9  C   UNL     1      -2.179  12.445  21.560  0.00  0.00    +0.000 A 
ATOM     10  S   UNL     1      -1.738  12.545  23.212  0.00  0.00    +0.000 S 
ATOM     11  C   UNL     1      -1.263  11.699  20.599  0.00  0.00    +0.000 A 
ATOM     12  C   UNL     1       0.108  11.261  21.077  0.00  0.00    +0.000 C 
ATOM     13  O   UNL     1       0.790  10.368  20.191  0.00  0.00    +0.000 OA
ENDROOT
BRANCH   8  14
ATOM     14  C   UNL     1      -4.308  13.760  21.844  0.00  0.00    +0.000 A 
ATOM     15  C   UNL     1      -4.178  15.158  21.924  0.00  0.00    +0.000 A 
ATOM     16  C   UNL     1      -5.008  15.928  22.749  0.00  0.00    +0.000 A 
ATOM     17  C   UNL     1      -6.033  15.321  23.469  0.00  0.00    +0.000 A 
ATOM     18  C   UNL     1      -6.194  13.943  23.395  0.00  0.00    +0.000 A 
ATOM     19  C   UNL     1      -5.315  13.168  22.626  0.00  0.00    +0.000 A 
ENDBRANCH   8  14
BRANCH   7  20
ATOM     20  N   UNL     1      -5.038  13.032  19.161  0.00  0.00    +0.000 N 
ATOM     21  H   UNL     1      -5.110  13.133  18.153  0.00  0.00    +0.000 HD
ATOM     22  H   UNL     1      -5.393  13.854  19.644  0.00  0.00    +0.000 HD
ENDBRANCH   7  20
BRANCH   6  23
ATOM     23  C   UNL     1      -3.474  11.391  17.534  0.00  0.00    +0.000 C 
ATOM     24  N   UNL     1      -3.865  11.035  16.389  0.00  0.00    +0.000 NA
ENDBRANCH   6  23
TORSDOF 3
ENDMDL
MODEL 8
REMARK VINA RESULT:      -5.3     11.304     13.425
REMARK  Name = 
REMARK  5 active torsions:
REMARK  status: ('A' for Active; 'I' for Inactive)
REMARK    1  A    between atoms: C_1  and  C_2
REMARK    2  A    between atoms: C_2  and  C_3
REMARK    3  A    between atoms: C_6  and  C_7
REMARK    4  A    between atoms: C_9  and  N_10
REMARK    5  A    between atoms: N_11  and  C_12
REMARK                            x       y       z     vdW  Elec       q    Type
REMARK                         _______ _______ _______ _____ _____    ______ ____
ROOT
ATOM      1  C   UNL     1       7.889  16.714  26.833  0.00  0.00    +0.000 C 
ATOM      2  C   UNL     1       8.756  16.071  25.743  0.00  0.00    +0.000 C 
ATOM      3  C   UNL     1      10.142  15.770  26.334  0.00  0.00    +0.000 C 
ATOM      4  C   UNL     1       8.059  14.805  25.207  0.00  0.00    +0.000 C 
ATOM      5  C   UNL     1       8.638  14.327  23.894  0.00  0.00    +0.000 A 
ATOM      6  C   UNL     1       8.419  12.959  23.483  0.00  0.00    +0.000 A 
ATOM      7  C   UNL     1       8.980  12.436  22.363  0.00  0.00    +0.000 A 
ATOM      8  N   UNL     1       9.772  13.272  21.514  0.00  0.00    +0.000 N 
ATOM      9  C   UNL     1       9.909  14.685  21.788  0.00  0.00    +0.000 A 
ATOM     10  S   UNL     1      10.551  15.837  20.696  0.00  0.00    +0.000 S 
ATOM     11  C   UNL     1       9.356  15.166  23.123  0.00  0.00    +0.000 A 
ATOM     12  C   UNL     1       9.588  16.606  23.542  0.00  0.00    +0.000 C 
ATOM     13  O   UNL     1       8.834  17.022  24.683  0.00  0.00    +0.000 OA
ENDROOT
BRANCH   8  14
ATOM     14  C   UNL     1      10.357  12.714  20.285  0.00  0.00    +0.000 A 
ATOM     15  C   UNL     1       9.642  12.700  19.073  0.00  0.00    +0.000 A 
ATOM     16  C   UNL     1      10.181  12.141  17.908  0.00  0.00    +0.000 A 
ATOM     17  C   UNL     1      11.478  11.637  17.912  0.00  0.00    +0.000 A 
ATOM     18  C   UNL     1      12.214  11.653  19.091  0.00  0.00    +0.000 A 
ATOM     19  C   UNL     1      11.643  12.147  20.272  0.00  0.00    +0.000 A 
ENDBRANCH   8  14
BRANCH   7  20
ATOM     20  N   UNL     1       8.801  11.084  22.066  0.00  0.00    +0.000 N 
ATOM     21  H   UNL     1       9.631  10.500  22.016  0.00  0.00    +0.000 HD
ATOM     22  H   UNL     1       8.193  10.935  21.264  0.00  0.00    +0.000 HD
ENDBRANCH   7  20
BRANCH   6  23
ATOM     23  C   UNL     1       7.532  12.075  24.345  0.00  0.00    +0.000 C 
ATOM     24  N   UNL     1       6.796  11.342  25.061  0.00  0.00    +0.000 NA
ENDBRANCH   6  23
TORSDOF 3
ENDMDL
MODEL 9
REMARK VINA RESULT:      -5.3      3.517      4.583
REMARK  Name = 
REMARK  5 active torsions:
REMARK  status: ('A' for Active; 'I' for Inactive)
REMARK    1  A    between atoms: C_1  and  C_2
REMARK    2  A    between atoms: C_2  and  C_3
REMARK    3  A    between atoms: C_6  and  C_7
REMARK    4  A    between atoms: C_9  and  N_10
REMARK    5  A    between atoms: N_11  and  C_12
REMARK                            x       y       z     vdW  Elec       q    Type
REMARK                         _______ _______ _______ _____ _____    ______ ____
ROOT
ATOM      1  C   UNL     1      -2.471  10.486  15.717  0.00  0.00    +0.000 C 
ATOM      2  C   UNL     1      -3.365  10.669  16.950  0.00  0.00    +0.000 C 
ATOM      3  C   UNL     1      -3.643   9.287  17.562  0.00  0.00    +0.000 C 
ATOM      4  C   UNL     1      -2.683  11.626  17.946  0.00  0.00    +0.000 C 
ATOM      5  C   UNL     1      -3.635  12.159  18.994  0.00  0.00    +0.000 A 
ATOM      6  C   UNL     1      -3.101  12.695  20.225  0.00  0.00    +0.000 A 
ATOM      7  C   UNL     1      -3.895  13.108  21.245  0.00  0.00    +0.000 A 
ATOM      8  N   UNL     1      -5.317  13.077  21.089  0.00  0.00    +0.000 N 
ATOM      9  C   UNL     1      -5.914  12.692  19.830  0.00  0.00    +0.000 A 
ATOM     10  S   UNL     1      -7.561  12.915  19.419  0.00  0.00    +0.000 S 
ATOM     11  C   UNL     1      -4.965  12.126  18.783  0.00  0.00    +0.000 A 
ATOM     12  C   UNL     1      -5.537  11.570  17.493  0.00  0.00    +0.000 C 
ATOM     13  O   UNL     1      -4.564  11.286  16.484  0.00  0.00    +0.000 OA
ENDROOT
BRANCH   8  14
ATOM     14  C   UNL     1      -6.180  13.552  22.183  0.00  0.00    +0.000 A 
ATOM     15  C   UNL     1      -6.754  12.658  23.105  0.00  0.00    +0.000 A 
ATOM     16  C   UNL     1      -7.602  13.101  24.127  0.00  0.00    +0.000 A 
ATOM     17  C   UNL     1      -7.846  14.461  24.292  0.00  0.00    +0.000 A 
ATOM     18  C   UNL     1      -7.279  15.368  23.405  0.00  0.00    +0.000 A 
ATOM     19  C   UNL     1      -6.490  14.914  22.339  0.00  0.00    +0.000 A 
ENDBRANCH   8  14
BRANCH   7  20
ATOM     20  N   UNL     1      -3.318  13.535  22.443  0.00  0.00    +0.000 N 
ATOM     21  H   UNL     1      -2.988  12.820  23.085  0.00  0.00    +0.000 HD
ATOM     22  H   UNL     1      -3.880  14.235  22.922  0.00  0.00    +0.000 HD
ENDBRANCH   7  20
BRANCH   6  23
ATOM     23  C   UNL     1      -1.591  12.788  20.382  0.00  0.00    +0.000 C 
ATOM     24  N   UNL     1      -0.339  12.866  20.512  0.00  0.00    +0.000 NA
ENDBRANCH   6  23
TORSDOF 3
ENDMDL
