MODEL 1
REMARK VINA RESULT:      -7.3      0.000      0.000
REMARK  Name = 
REMARK  7 active torsions:
REMARK  status: ('A' for Active; 'I' for Inactive)
REMARK    1  A    between atoms: C_1  and  C_2
REMARK    2  A    between atoms: C_6  and  N_7
REMARK    3  A    between atoms: C_15  and  C_16
REMARK    4  A    between atoms: C_16  and  N_17
REMARK    5  A    between atoms: N_17  and  C_18
REMARK    6  A    between atoms: N_17  and  C_19
REMARK    7  A    between atoms: C_21  and  C_22
REMARK                            x       y       z     vdW  Elec       q    Type
REMARK                         _______ _______ _______ _____ _____    ______ ____
ROOT
ATOM      1  N   UNL     1       1.856   8.350  19.359  0.00  0.00    +0.000 N 
ATOM      2  C   UNL     1       2.551   8.093  18.195  0.00  0.00    +0.000 C 
ATOM      3  O   UNL     1       2.488   8.785  17.186  0.00  0.00    +0.000 OA
ATOM      4  N   UNL     1       3.369   6.939  18.235  0.00  0.00    +0.000 N 
ATOM      5  C   UNL     1       4.320   6.795  17.114  0.00  0.00    +0.000 C 
ATOM      6  C   UNL     1       4.776   5.377  16.741  0.00  0.00    +0.000 C 
ATOM      7  O   UNL     1       5.418   4.725  17.830  0.00  0.00    +0.000 OA
ATOM      8  C   UNL     1       4.550   3.885  18.586  0.00  0.00    +0.000 C 
ATOM      9  C   UNL     1       3.311   4.580  19.156  0.00  0.00    +0.000 C 
ATOM     10  C   UNL     1       3.577   6.073  19.405  0.00  0.00    +0.000 C 
ATOM     11  H   UNL     1       2.266   7.966  20.180  0.00  0.00    +0.000 HD
ENDROOT
BRANCH   1  17
ATOM     12  C   UNL     1      -0.723  11.141  22.625  0.00  0.00    +0.000 C 
ATOM     13  C   UNL     1      -0.396  10.698  21.221  0.00  0.00    +0.000 A 
ATOM     14  C   UNL     1      -1.041  11.336  20.154  0.00  0.00    +0.000 A 
ATOM     15  C   UNL     1      -0.753  10.978  18.844  0.00  0.00    +0.000 A 
ATOM     16  C   UNL     1       0.192   9.987  18.580  0.00  0.00    +0.000 A 
ATOM     17  C   UNL     1       0.867   9.334  19.618  0.00  0.00    +0.000 A 
ATOM     18  C   UNL     1       0.545   9.664  20.963  0.00  0.00    +0.000 A 
ATOM     19  C   UNL     1       1.175   8.981  22.156  0.00  0.00    +0.000 C 
ENDBRANCH   1  17
BRANCH   9  20
ATOM     20  C   UNL     1       2.007   4.361  18.349  0.00  0.00    +0.000 C 
BRANCH  20  21
ATOM     21  N   UNL     1       0.966   3.560  19.023  0.00  0.00    +0.000 NA
ATOM     22  C   UNL     1       1.109   2.130  18.750  0.00  0.00    +0.000 C 
ATOM     23  C   UNL     1       1.044   3.787  20.473  0.00  0.00    +0.000 C 
ENDBRANCH  20  21
ENDBRANCH   9  20
TORSDOF 3
ENDMDL
MODEL 2
REMARK VINA RESULT:      -7.1      2.101      3.894
REMARK  Name = 
REMARK  7 active torsions:
REMARK  status: ('A' for Active; 'I' for Inactive)
REMARK    1  A    between atoms: C_1  and  C_2
REMARK    2  A    between atoms: C_6  and  N_7
REMARK    3  A    between atoms: C_15  and  C_16
REMARK    4  A    between atoms: C_16  and  N_17
REMARK    5  A    between atoms: N_17  and  C_18
REMARK    6  A    between atoms: N_17  and  C_19
REMARK    7  A    between atoms: C_21  and  C_22
REMARK                            x       y       z     vdW  Elec       q    Type
REMARK                         _______ _______ _______ _____ _____    ______ ____
ROOT
ATOM      1  N   UNL     1       2.008   7.216  19.498  0.00  0.00    +0.000 N 
ATOM      2  C   UNL     1       2.219   5.918  19.918  0.00  0.00    +0.000 C 
ATOM      3  O   UNL     1       1.864   5.479  21.006  0.00  0.00    +0.000 OA
ATOM      4  N   UNL     1       2.897   5.096  18.988  0.00  0.00    +0.000 N 
ATOM      5  C   UNL     1       2.894   3.651  19.296  0.00  0.00    +0.000 C 
ATOM      6  C   UNL     1       4.048   2.801  18.744  0.00  0.00    +0.000 C 
ATOM      7  O   UNL     1       4.111   2.855  17.325  0.00  0.00    +0.000 OA
ATOM      8  C   UNL     1       5.034   3.822  16.830  0.00  0.00    +0.000 C 
ATOM      9  C   UNL     1       4.793   5.254  17.316  0.00  0.00    +0.000 C 
ATOM     10  C   UNL     1       3.309   5.491  17.632  0.00  0.00    +0.000 C 
ATOM     11  H   UNL     1       1.991   7.333  18.510  0.00  0.00    +0.000 HD
ENDROOT
BRANCH   1  17
ATOM     12  C   UNL     1      -0.149  11.738  19.515  0.00  0.00    +0.000 C 
ATOM     13  C   UNL     1       0.427  10.536  20.221  0.00  0.00    +0.000 A 
ATOM     14  C   UNL     1       0.366  10.494  21.620  0.00  0.00    +0.000 A 
ATOM     15  C   UNL     1       0.862   9.396  22.311  0.00  0.00    +0.000 A 
ATOM     16  C   UNL     1       1.413   8.320  21.615  0.00  0.00    +0.000 A 
ATOM     17  C   UNL     1       1.482   8.320  20.217  0.00  0.00    +0.000 A 
ATOM     18  C   UNL     1       1.017   9.459  19.505  0.00  0.00    +0.000 A 
ATOM     19  C   UNL     1       1.095   9.583  18.000  0.00  0.00    +0.000 C 
ENDBRANCH   1  17
BRANCH   9  20
ATOM     20  C   UNL     1       5.704   5.711  18.483  0.00  0.00    +0.000 C 
BRANCH  20  21
ATOM     21  N   UNL     1       7.132   5.881  18.150  0.00  0.00    +0.000 NA
ATOM     22  C   UNL     1       7.401   7.177  17.524  0.00  0.00    +0.000 C 
ATOM     23  C   UNL     1       7.933   5.760  19.377  0.00  0.00    +0.000 C 
ENDBRANCH  20  21
ENDBRANCH   9  20
TORSDOF 3
ENDMDL
MODEL 3
REMARK VINA RESULT:      -6.7      2.190      7.085
REMARK  Name = 
REMARK  7 active torsions:
REMARK  status: ('A' for Active; 'I' for Inactive)
REMARK    1  A    between atoms: C_1  and  C_2
REMARK    2  A    between atoms: C_6  and  N_7
REMARK    3  A    between atoms: C_15  and  C_16
REMARK    4  A    between atoms: C_16  and  N_17
REMARK    5  A    between atoms: N_17  and  C_18
REMARK    6  A    between atoms: N_17  and  C_19
REMARK    7  A    between atoms: C_21  and  C_22
REMARK                            x       y       z     vdW  Elec       q    Type
REMARK                         _______ _______ _______ _____ _____    ______ ____
ROOT
ATOM      1  N   UNL     1       2.333   7.262  18.745  0.00  0.00    +0.000 N 
ATOM      2  C   UNL     1       1.765   7.561  19.967  0.00  0.00    +0.000 C 
ATOM      3  O   UNL     1       1.510   6.730  20.831  0.00  0.00    +0.000 OA
ATOM      4  N   UNL     1       1.481   8.932  20.171  0.00  0.00    +0.000 N 
ATOM      5  C   UNL     1       1.131   9.310  21.555  0.00  0.00    +0.000 C 
ATOM      6  C   UNL     1       0.252  10.552  21.756  0.00  0.00    +0.000 C 
ATOM      7  O   UNL     1       0.859  11.721  21.218  0.00  0.00    +0.000 OA
ATOM      8  C   UNL     1       0.420  12.037  19.899  0.00  0.00    +0.000 C 
ATOM      9  C   UNL     1       0.615  10.924  18.867  0.00  0.00    +0.000 C 
ATOM     10  C   UNL     1       1.804  10.024  19.240  0.00  0.00    +0.000 C 
ATOM     11  H   UNL     1       2.821   8.018  18.319  0.00  0.00    +0.000 HD
ENDROOT
BRANCH   1  17
ATOM     12  C   UNL     1       5.524   4.214  16.373  0.00  0.00    +0.000 C 
ATOM     13  C   UNL     1       4.189   4.508  17.008  0.00  0.00    +0.000 A 
ATOM     14  C   UNL     1       3.250   3.471  17.093  0.00  0.00    +0.000 A 
ATOM     15  C   UNL     1       2.016   3.689  17.692  0.00  0.00    +0.000 A 
ATOM     16  C   UNL     1       1.708   4.940  18.227  0.00  0.00    +0.000 A 
ATOM     17  C   UNL     1       2.623   5.997  18.173  0.00  0.00    +0.000 A 
ATOM     18  C   UNL     1       3.871   5.794  17.522  0.00  0.00    +0.000 A 
ATOM     19  C   UNL     1       4.907   6.884  17.360  0.00  0.00    +0.000 C 
ENDBRANCH   1  17
BRANCH   9  20
ATOM     20  C   UNL     1      -0.653  10.091  18.554  0.00  0.00    +0.000 C 
BRANCH  20  21
ATOM     21  N   UNL     1      -1.641  10.741  17.670  0.00  0.00    +0.000 NA
ATOM     22  C   UNL     1      -2.201   9.809  16.691  0.00  0.00    +0.000 C 
ATOM     23  C   UNL     1      -2.729  11.298  18.488  0.00  0.00    +0.000 C 
ENDBRANCH  20  21
ENDBRANCH   9  20
TORSDOF 3
ENDMDL
MODEL 4
REMARK VINA RESULT:      -6.6      2.446      7.135
REMARK  Name = 
REMARK  7 active torsions:
REMARK  status: ('A' for Active; 'I' for Inactive)
REMARK    1  A    between atoms: C_1  and  C_2
REMARK    2  A    between atoms: C_6  and  N_7
REMARK    3  A    between atoms: C_15  and  C_16
REMARK    4  A    between atoms: C_16  and  N_17
REMARK    5  A    between atoms: N_17  and  C_18
REMARK    6  A    between atoms: N_17  and  C_19
REMARK    7  A    between atoms: C_21  and  C_22
REMARK                            x       y       z     vdW  Elec       q    Type
REMARK                         _______ _______ _______ _____ _____    ______ ____
ROOT
ATOM      1  N   UNL     1       1.763   8.091  19.527  0.00  0.00    +0.000 N 
ATOM      2  C   UNL     1       1.319   8.920  20.536  0.00  0.00    +0.000 C 
ATOM      3  O   UNL     1       1.369   8.643  21.729  0.00  0.00    +0.000 OA
ATOM      4  N   UNL     1       0.780  10.153  20.099  0.00  0.00    +0.000 N 
ATOM      5  C   UNL     1       0.552  11.159  21.157  0.00  0.00    +0.000 C 
ATOM      6  C   UNL     1      -0.536  12.215  20.915  0.00  0.00    +0.000 C 
ATOM      7  O   UNL     1      -0.273  12.987  19.750  0.00  0.00    +0.000 OA
ATOM      8  C   UNL     1      -0.948  12.514  18.587  0.00  0.00    +0.000 C 
ATOM      9  C   UNL     1      -0.664  11.055  18.223  0.00  0.00    +0.000 C 
ATOM     10  C   UNL     1       0.729  10.623  18.706  0.00  0.00    +0.000 C 
ATOM     11  H   UNL     1       2.014   8.561  18.686  0.00  0.00    +0.000 HD
ENDROOT
BRANCH   1  17
ATOM     12  C   UNL     1       4.843   4.491  17.897  0.00  0.00    +0.000 C 
ATOM     13  C   UNL     1       3.744   4.994  18.798  0.00  0.00    +0.000 A 
ATOM     14  C   UNL     1       3.238   4.128  19.777  0.00  0.00    +0.000 A 
ATOM     15  C   UNL     1       2.242   4.557  20.645  0.00  0.00    +0.000 A 
ATOM     16  C   UNL     1       1.746   5.857  20.557  0.00  0.00    +0.000 A 
ATOM     17  C   UNL     1       2.234   6.755  19.601  0.00  0.00    +0.000 A 
ATOM     18  C   UNL     1       3.222   6.311  18.680  0.00  0.00    +0.000 A 
ATOM     19  C   UNL     1       3.776   7.183  17.575  0.00  0.00    +0.000 C 
ENDBRANCH   1  17
BRANCH   9  20
ATOM     20  C   UNL     1      -1.756  10.046  18.659  0.00  0.00    +0.000 C 
BRANCH  20  21
ATOM     21  N   UNL     1      -2.814   9.781  17.664  0.00  0.00    +0.000 NA
ATOM     22  C   UNL     1      -3.987  10.631  17.867  0.00  0.00    +0.000 C 
ATOM     23  C   UNL     1      -2.277  10.010  16.315  0.00  0.00    +0.000 C 
ENDBRANCH  20  21
ENDBRANCH   9  20
TORSDOF 3
ENDMDL
MODEL 5
REMARK VINA RESULT:      -6.3      1.212      1.559
REMARK  Name = 
REMARK  7 active torsions:
REMARK  status: ('A' for Active; 'I' for Inactive)
REMARK    1  A    between atoms: C_1  and  C_2
REMARK    2  A    between atoms: C_6  and  N_7
REMARK    3  A    between atoms: C_15  and  C_16
REMARK    4  A    between atoms: C_16  and  N_17
REMARK    5  A    between atoms: N_17  and  C_18
REMARK    6  A    between atoms: N_17  and  C_19
REMARK    7  A    between atoms: C_21  and  C_22
REMARK                            x       y       z     vdW  Elec       q    Type
REMARK                         _______ _______ _______ _____ _____    ______ ____
ROOT
ATOM      1  N   UNL     1       0.952   8.869  18.894  0.00  0.00    +0.000 N 
ATOM      2  C   UNL     1       2.043   8.635  18.083  0.00  0.00    +0.000 C 
ATOM      3  O   UNL     1       2.328   9.307  17.098  0.00  0.00    +0.000 OA
ATOM      4  N   UNL     1       2.841   7.531  18.465  0.00  0.00    +0.000 N 
ATOM      5  C   UNL     1       4.148   7.424  17.784  0.00  0.00    +0.000 C 
ATOM      6  C   UNL     1       4.777   6.029  17.659  0.00  0.00    +0.000 C 
ATOM      7  O   UNL     1       4.996   5.433  18.931  0.00  0.00    +0.000 OA
ATOM      8  C   UNL     1       3.949   4.555  19.339  0.00  0.00    +0.000 C 
ATOM      9  C   UNL     1       2.555   5.187  19.383  0.00  0.00    +0.000 C 
ATOM     10  C   UNL     1       2.638   6.696  19.659  0.00  0.00    +0.000 C 
ATOM     11  H   UNL     1       1.044   8.523  19.822  0.00  0.00    +0.000 HD
ENDROOT
BRANCH   1  17
ATOM     12  C   UNL     1      -1.466  12.987  20.411  0.00  0.00    +0.000 C 
ATOM     13  C   UNL     1      -1.291  11.815  19.478  0.00  0.00    +0.000 A 
ATOM     14  C   UNL     1      -2.160  11.698  18.386  0.00  0.00    +0.000 A 
ATOM     15  C   UNL     1      -2.020  10.648  17.487  0.00  0.00    +0.000 A 
ATOM     16  C   UNL     1      -1.003   9.709  17.659  0.00  0.00    +0.000 A 
ATOM     17  C   UNL     1      -0.108   9.799  18.730  0.00  0.00    +0.000 A 
ATOM     18  C   UNL     1      -0.272  10.845  19.679  0.00  0.00    +0.000 A 
ATOM     19  C   UNL     1       0.606  10.999  20.901  0.00  0.00    +0.000 C 
ENDBRANCH   1  17
BRANCH   9  20
ATOM     20  C   UNL     1       1.659   4.881  18.156  0.00  0.00    +0.000 C 
BRANCH  20  21
ATOM     21  N   UNL     1       1.239   3.473  18.009  0.00  0.00    +0.000 NA
ATOM     22  C   UNL     1       2.319   2.626  17.504  0.00  0.00    +0.000 C 
ATOM     23  C   UNL     1       0.791   2.963  19.313  0.00  0.00    +0.000 C 
ENDBRANCH  20  21
ENDBRANCH   9  20
TORSDOF 3
ENDMDL
MODEL 6
REMARK VINA RESULT:      -6.2      2.219      3.554
REMARK  Name = 
REMARK  7 active torsions:
REMARK  status: ('A' for Active; 'I' for Inactive)
REMARK    1  A    between atoms: C_1  and  C_2
REMARK    2  A    between atoms: C_6  and  N_7
REMARK    3  A    between atoms: C_15  and  C_16
REMARK    4  A    between atoms: C_16  and  N_17
REMARK    5  A    between atoms: N_17  and  C_18
REMARK    6  A    between atoms: N_17  and  C_19
REMARK    7  A    between atoms: C_21  and  C_22
REMARK                            x       y       z     vdW  Elec       q    Type
REMARK                         _______ _______ _______ _____ _____    ______ ____
ROOT
ATOM      1  N   UNL     1       1.693   8.811  18.476  0.00  0.00    +0.000 N 
ATOM      2  C   UNL     1       1.901   7.974  19.553  0.00  0.00    +0.000 C 
ATOM      3  O   UNL     1       1.830   8.326  20.724  0.00  0.00    +0.000 OA
ATOM      4  N   UNL     1       2.218   6.637  19.213  0.00  0.00    +0.000 N 
ATOM      5  C   UNL     1       2.178   5.671  20.330  0.00  0.00    +0.000 C 
ATOM      6  C   UNL     1       3.053   4.414  20.218  0.00  0.00    +0.000 C 
ATOM      7  O   UNL     1       2.720   3.639  19.074  0.00  0.00    +0.000 OA
ATOM      8  C   UNL     1       3.547   3.905  17.943  0.00  0.00    +0.000 C 
ATOM      9  C   UNL     1       3.575   5.367  17.492  0.00  0.00    +0.000 C 
ATOM     10  C   UNL     1       2.265   6.085  17.851  0.00  0.00    +0.000 C 
ATOM     11  H   UNL     1       1.410   8.349  17.641  0.00  0.00    +0.000 HD
ENDROOT
BRANCH   1  17
ATOM     12  C   UNL     1      -1.329  12.752  19.141  0.00  0.00    +0.000 C 
ATOM     13  C   UNL     1       0.001  12.142  18.779  0.00  0.00    +0.000 A 
ATOM     14  C   UNL     1       1.070  13.001  18.488  0.00  0.00    +0.000 A 
ATOM     15  C   UNL     1       2.319  12.484  18.173  0.00  0.00    +0.000 A 
ATOM     16  C   UNL     1       2.525  11.104  18.157  0.00  0.00    +0.000 A 
ATOM     17  C   UNL     1       1.486  10.214  18.454  0.00  0.00    +0.000 A 
ATOM     18  C   UNL     1       0.192  10.734  18.734  0.00  0.00    +0.000 A 
ATOM     19  C   UNL     1      -1.009   9.859  19.013  0.00  0.00    +0.000 C 
ENDBRANCH   1  17
BRANCH   9  20
ATOM     20  C   UNL     1       4.812   6.173  17.962  0.00  0.00    +0.000 C 
BRANCH  20  21
ATOM     21  N   UNL     1       6.090   5.434  17.970  0.00  0.00    +0.000 NA
ATOM     22  C   UNL     1       7.032   5.951  16.977  0.00  0.00    +0.000 C 
ATOM     23  C   UNL     1       6.695   5.527  19.307  0.00  0.00    +0.000 C 
ENDBRANCH  20  21
ENDBRANCH   9  20
TORSDOF 3
ENDMDL
MODEL 7
REMARK VINA RESULT:      -6.2      2.038      3.998
REMARK  Name = 
REMARK  7 active torsions:
REMARK  status: ('A' for Active; 'I' for Inactive)
REMARK    1  A    between atoms: C_1  and  C_2
REMARK    2  A    between atoms: C_6  and  N_7
REMARK    3  A    between atoms: C_15  and  C_16
REMARK    4  A    between atoms: C_16  and  N_17
REMARK    5  A    between atoms: N_17  and  C_18
REMARK    6  A    between atoms: N_17  and  C_19
REMARK    7  A    between atoms: C_21  and  C_22
REMARK                            x       y       z     vdW  Elec       q    Type
REMARK                         _______ _______ _______ _____ _____    ______ ____
ROOT
ATOM      1  N   UNL     1       2.059   6.922  19.380  0.00  0.00    +0.000 N 
ATOM      2  C   UNL     1       2.431   5.761  20.025  0.00  0.00    +0.000 C 
ATOM      3  O   UNL     1       2.355   5.589  21.236  0.00  0.00    +0.000 OA
ATOM      4  N   UNL     1       2.928   4.743  19.177  0.00  0.00    +0.000 N 
ATOM      5  C   UNL     1       3.076   3.411  19.800  0.00  0.00    +0.000 C 
ATOM      6  C   UNL     1       4.122   2.457  19.206  0.00  0.00    +0.000 C 
ATOM      7  O   UNL     1       3.862   2.175  17.837  0.00  0.00    +0.000 OA
ATOM      8  C   UNL     1       4.595   3.000  16.934  0.00  0.00    +0.000 C 
ATOM      9  C   UNL     1       4.389   4.506  17.122  0.00  0.00    +0.000 C 
ATOM     10  C   UNL     1       3.002   4.808  17.709  0.00  0.00    +0.000 C 
ATOM     11  H   UNL     1       1.814   6.803  18.422  0.00  0.00    +0.000 HD
ENDROOT
BRANCH   1  17
ATOM     12  C   UNL     1       0.892  11.754  18.757  0.00  0.00    +0.000 C 
ATOM     13  C   UNL     1       1.077  10.531  19.619  0.00  0.00    +0.000 A 
ATOM     14  C   UNL     1       0.759  10.622  20.981  0.00  0.00    +0.000 A 
ATOM     15  C   UNL     1       0.891   9.514  21.807  0.00  0.00    +0.000 A 
ATOM     16  C   UNL     1       1.329   8.297  21.285  0.00  0.00    +0.000 A 
ATOM     17  C   UNL     1       1.646   8.163  19.928  0.00  0.00    +0.000 A 
ATOM     18  C   UNL     1       1.556   9.305  19.084  0.00  0.00    +0.000 A 
ATOM     19  C   UNL     1       1.926   9.281  17.618  0.00  0.00    +0.000 C 
ENDBRANCH   1  17
BRANCH   9  20
ATOM     20  C   UNL     1       5.511   5.227  17.910  0.00  0.00    +0.000 C 
BRANCH  20  21
ATOM     21  N   UNL     1       6.268   6.245  17.155  0.00  0.00    +0.000 NA
ATOM     22  C   UNL     1       7.510   6.621  17.830  0.00  0.00    +0.000 C 
ATOM     23  C   UNL     1       6.582   5.722  15.817  0.00  0.00    +0.000 C 
ENDBRANCH  20  21
ENDBRANCH   9  20
TORSDOF 3
ENDMDL
MODEL 8
REMARK VINA RESULT:      -6.1      2.679      7.155
REMARK  Name = 
REMARK  7 active torsions:
REMARK  status: ('A' for Active; 'I' for Inactive)
REMARK    1  A    between atoms: C_1  and  C_2
REMARK    2  A    between atoms: C_6  and  N_7
REMARK    3  A    between atoms: C_15  and  C_16
REMARK    4  A    between atoms: C_16  and  N_17
REMARK    5  A    between atoms: N_17  and  C_18
REMARK    6  A    between atoms: N_17  and  C_19
REMARK    7  A    between atoms: C_21  and  C_22
REMARK                            x       y       z     vdW  Elec       q    Type
REMARK                         _______ _______ _______ _____ _____    ______ ____
ROOT
ATOM      1  N   UNL     1       1.262   9.392  18.745  0.00  0.00    +0.000 N 
ATOM      2  C   UNL     1       1.551  10.729  18.567  0.00  0.00    +0.000 C 
ATOM      3  O   UNL     1       2.624  11.155  18.157  0.00  0.00    +0.000 OA
ATOM      4  N   UNL     1       0.498  11.614  18.901  0.00  0.00    +0.000 N 
ATOM      5  C   UNL     1       0.682  13.015  18.468  0.00  0.00    +0.000 C 
ATOM      6  C   UNL     1      -0.039  14.110  19.267  0.00  0.00    +0.000 C 
ATOM      7  O   UNL     1      -1.449  13.926  19.262  0.00  0.00    +0.000 OA
ATOM      8  C   UNL     1      -1.939  13.236  20.410  0.00  0.00    +0.000 C 
ATOM      9  C   UNL     1      -1.315  11.860  20.654  0.00  0.00    +0.000 C 
ATOM     10  C   UNL     1      -0.851  11.219  19.336  0.00  0.00    +0.000 C 
ATOM     11  H   UNL     1       0.292   9.169  18.709  0.00  0.00    +0.000 HD
ENDROOT
BRANCH   1  17
ATOM     12  C   UNL     1       2.838   4.963  20.478  0.00  0.00    +0.000 C 
ATOM     13  C   UNL     1       2.886   6.096  19.484  0.00  0.00    +0.000 A 
ATOM     14  C   UNL     1       3.747   5.981  18.385  0.00  0.00    +0.000 A 
ATOM     15  C   UNL     1       3.806   6.989  17.431  0.00  0.00    +0.000 A 
ATOM     16  C   UNL     1       2.997   8.118  17.553  0.00  0.00    +0.000 A 
ATOM     17  C   UNL     1       2.115   8.264  18.630  0.00  0.00    +0.000 A 
ATOM     18  C   UNL     1       2.081   7.258  19.634  0.00  0.00    +0.000 A 
ATOM     19  C   UNL     1       1.206   7.345  20.864  0.00  0.00    +0.000 C 
ENDBRANCH   1  17
BRANCH   9  20
ATOM     20  C   UNL     1      -0.198  11.828  21.727  0.00  0.00    +0.000 C 
BRANCH  20  21
ATOM     21  N   UNL     1      -0.594  11.295  23.045  0.00  0.00    +0.000 NA
ATOM     22  C   UNL     1      -1.997  11.576  23.353  0.00  0.00    +0.000 C 
ATOM     23  C   UNL     1      -0.375   9.841  23.065  0.00  0.00    +0.000 C 
ENDBRANCH  20  21
ENDBRANCH   9  20
TORSDOF 3
ENDMDL
MODEL 9
REMARK VINA RESULT:      -6.1      2.333      6.813
REMARK  Name = 
REMARK  7 active torsions:
REMARK  status: ('A' for Active; 'I' for Inactive)
REMARK    1  A    between atoms: C_1  and  C_2
REMARK    2  A    between atoms: C_6  and  N_7
REMARK    3  A    between atoms: C_15  and  C_16
REMARK    4  A    between atoms: C_16  and  N_17
REMARK    5  A    between atoms: N_17  and  C_18
REMARK    6  A    between atoms: N_17  and  C_19
REMARK    7  A    between atoms: C_21  and  C_22
REMARK                            x       y       z     vdW  Elec       q    Type
REMARK                         _______ _______ _______ _____ _____    ______ ____
ROOT
ATOM      1  N   UNL     1       1.537   8.701  18.629  0.00  0.00    +0.000 N 
ATOM      2  C   UNL     1       1.586  10.039  18.294  0.00  0.00    +0.000 C 
ATOM      3  O   UNL     1       2.487  10.556  17.644  0.00  0.00    +0.000 OA
ATOM      4  N   UNL     1       0.496  10.809  18.767  0.00  0.00    +0.000 N 
ATOM      5  C   UNL     1       0.385  12.169  18.200  0.00  0.00    +0.000 C 
ATOM      6  C   UNL     1      -0.324  13.238  19.043  0.00  0.00    +0.000 C 
ATOM      7  O   UNL     1      -1.667  12.872  19.338  0.00  0.00    +0.000 OA
ATOM      8  C   UNL     1      -1.822  12.248  20.610  0.00  0.00    +0.000 C 
ATOM      9  C   UNL     1      -0.966  10.997  20.826  0.00  0.00    +0.000 C 
ATOM     10  C   UNL     1      -0.671  10.289  19.495  0.00  0.00    +0.000 C 
ATOM     11  H   UNL     1       0.622   8.351  18.807  0.00  0.00    +0.000 HD
ENDROOT
BRANCH   1  17
ATOM     12  C   UNL     1       3.470   4.250  19.877  0.00  0.00    +0.000 C 
ATOM     13  C   UNL     1       3.455   5.508  19.046  0.00  0.00    +0.000 A 
ATOM     14  C   UNL     1       4.387   5.629  18.006  0.00  0.00    +0.000 A 
ATOM     15  C   UNL     1       4.394   6.759  17.199  0.00  0.00    +0.000 A 
ATOM     16  C   UNL     1       3.464   7.777  17.409  0.00  0.00    +0.000 A 
ATOM     17  C   UNL     1       2.510   7.688  18.429  0.00  0.00    +0.000 A 
ATOM     18  C   UNL     1       2.524   6.554  19.288  0.00  0.00    +0.000 A 
ATOM     19  C   UNL     1       1.574   6.386  20.453  0.00  0.00    +0.000 C 
ENDBRANCH   1  17
BRANCH   9  20
ATOM     20  C   UNL     1       0.326  11.223  21.650  0.00  0.00    +0.000 C 
BRANCH  20  21
ATOM     21  N   UNL     1       0.522  10.310  22.793  0.00  0.00    +0.000 NA
ATOM     22  C   UNL     1      -0.740   9.738  23.264  0.00  0.00    +0.000 C 
ATOM     23  C   UNL     1       1.428   9.222  22.394  0.00  0.00    +0.000 C 
ENDBRANCH  20  21
ENDBRANCH   9  20
TORSDOF 3
ENDMDL
