MODEL 1
REMARK VINA RESULT:      -6.8      0.000      0.000
REMARK  Name = 
REMARK  7 active torsions:
REMARK  status: ('A' for Active; 'I' for Inactive)
REMARK    1  A    between atoms: C_1  and  O_2
REMARK    2  A    between atoms: O_2  and  C_3
REMARK    3  A    between atoms: C_3  and  C_5
REMARK    4  A    between atoms: C_7  and  C_8
REMARK    5  A    between atoms: C_8  and  O_10
REMARK    6  A    between atoms: O_10  and  C_11
REMARK    7  A    between atoms: C_15  and  C_16
REMARK                            x       y       z     vdW  Elec       q    Type
REMARK                         _______ _______ _______ _____ _____    ______ ____
ROOT
ATOM      1  C   UNL     1       5.057   5.881  17.880  0.00  0.00    +0.000 C 
ATOM      2  C   UNL     1       5.583   6.688  16.691  0.00  0.00    +0.000 C 
ATOM      3  C   UNL     1       5.758   5.660  15.560  0.00  0.00    +0.000 C 
ATOM      4  C   UNL     1       4.705   4.586  15.849  0.00  0.00    +0.000 C 
ATOM      5  O   UNL     1       5.221   3.264  15.989  0.00  0.00    +0.000 OA
ATOM      6  N   UNL     1       4.511   2.622  17.031  0.00  0.00    +0.000 NA
ATOM      7  C   UNL     1       3.920   3.539  17.727  0.00  0.00    +0.000 C 
ATOM      8  C   UNL     1       4.084   4.924  17.195  0.00  0.00    +0.000 C 
ENDROOT
BRANCH   7   9
ATOM      9  C   UNL     1       3.123   3.264  18.947  0.00  0.00    +0.000 A 
ATOM     10  C   UNL     1       3.722   2.586  20.016  0.00  0.00    +0.000 A 
ATOM     11  C   UNL     1       2.995   2.324  21.182  0.00  0.00    +0.000 A 
ATOM     12  C   UNL     1       1.671   2.745  21.282  0.00  0.00    +0.000 A 
ATOM     13 CL   UNL     1       0.773   2.427  22.714  0.00  0.00    +0.000 Cl
ATOM     14  C   UNL     1       1.065   3.423  20.226  0.00  0.00    +0.000 A 
ATOM     15  C   UNL     1       1.789   3.680  19.058  0.00  0.00    +0.000 A 
ENDBRANCH   7   9
BRANCH   1  16
ATOM     16  C   UNL     1       6.173   5.267  18.719  0.00  0.00    +0.000 C 
ATOM     17  O   UNL     1       6.142   4.175  19.262  0.00  0.00    +0.000 OA
BRANCH  16  19
ATOM     18  C   UNL     1       8.206   5.729  19.768  0.00  0.00    +0.000 C 
ATOM     19  O   UNL     1       7.192   6.163  18.861  0.00  0.00    +0.000 OA
ENDBRANCH  16  19
ENDBRANCH   1  16
BRANCH   3  20
ATOM     20  C   UNL     1       7.181   5.149  15.467  0.00  0.00    +0.000 C 
ATOM     21  O   UNL     1       7.748   4.516  16.349  0.00  0.00    +0.000 OA
BRANCH  20  22
ATOM     22  O   UNL     1       7.766   5.574  14.316  0.00  0.00    +0.000 OA
ATOM     23  C   UNL     1       7.330   4.873  13.151  0.00  0.00    +0.000 C 
ENDBRANCH  20  22
ENDBRANCH   3  20
TORSDOF 5
ENDMDL
MODEL 2
REMARK VINA RESULT:      -6.8      0.065      1.010
REMARK  Name = 
REMARK  7 active torsions:
REMARK  status: ('A' for Active; 'I' for Inactive)
REMARK    1  A    between atoms: C_1  and  O_2
REMARK    2  A    between atoms: O_2  and  C_3
REMARK    3  A    between atoms: C_3  and  C_5
REMARK    4  A    between atoms: C_7  and  C_8
REMARK    5  A    between atoms: C_8  and  O_10
REMARK    6  A    between atoms: O_10  and  C_11
REMARK    7  A    between atoms: C_15  and  C_16
REMARK                            x       y       z     vdW  Elec       q    Type
REMARK                         _______ _______ _______ _____ _____    ______ ____
ROOT
ATOM      1  C   UNL     1       5.062   5.885  17.851  0.00  0.00    +0.000 C 
ATOM      2  C   UNL     1       5.558   6.680  16.642  0.00  0.00    +0.000 C 
ATOM      3  C   UNL     1       5.743   5.636  15.527  0.00  0.00    +0.000 C 
ATOM      4  C   UNL     1       4.716   4.546  15.847  0.00  0.00    +0.000 C 
ATOM      5  O   UNL     1       5.260   3.238  16.005  0.00  0.00    +0.000 OA
ATOM      6  N   UNL     1       4.575   2.600  17.066  0.00  0.00    +0.000 NA
ATOM      7  C   UNL     1       3.972   3.516  17.752  0.00  0.00    +0.000 C 
ATOM      8  C   UNL     1       4.102   4.895  17.193  0.00  0.00    +0.000 C 
ENDROOT
BRANCH   7   9
ATOM      9  C   UNL     1       3.195   3.247  18.985  0.00  0.00    +0.000 A 
ATOM     10  C   UNL     1       1.849   3.631  19.043  0.00  0.00    +0.000 A 
ATOM     11  C   UNL     1       1.093   3.379  20.192  0.00  0.00    +0.000 A 
ATOM     12  C   UNL     1       1.678   2.738  21.281  0.00  0.00    +0.000 A 
ATOM     13 CL   UNL     1       0.752   2.424  22.695  0.00  0.00    +0.000 Cl
ATOM     14  C   UNL     1       3.015   2.348  21.233  0.00  0.00    +0.000 A 
ATOM     15  C   UNL     1       3.774   2.605  20.089  0.00  0.00    +0.000 A 
ENDBRANCH   7   9
BRANCH   1  16
ATOM     16  C   UNL     1       6.200   5.309  18.688  0.00  0.00    +0.000 C 
ATOM     17  O   UNL     1       6.193   4.232  19.261  0.00  0.00    +0.000 OA
BRANCH  16  19
ATOM     18  C   UNL     1       8.261   5.809  19.661  0.00  0.00    +0.000 C 
ATOM     19  O   UNL     1       7.209   6.222  18.788  0.00  0.00    +0.000 OA
ENDBRANCH  16  19
ENDBRANCH   1  16
BRANCH   3  20
ATOM     20  C   UNL     1       7.175   5.153  15.428  0.00  0.00    +0.000 C 
ATOM     21  O   UNL     1       7.755   4.523  16.303  0.00  0.00    +0.000 OA
BRANCH  20  22
ATOM     22  O   UNL     1       7.750   5.599  14.279  0.00  0.00    +0.000 OA
ATOM     23  C   UNL     1       7.344   4.885  13.112  0.00  0.00    +0.000 C 
ENDBRANCH  20  22
ENDBRANCH   3  20
TORSDOF 5
ENDMDL
MODEL 3
REMARK VINA RESULT:      -6.8      3.464      6.595
REMARK  Name = 
REMARK  7 active torsions:
REMARK  status: ('A' for Active; 'I' for Inactive)
REMARK    1  A    between atoms: C_1  and  O_2
REMARK    2  A    between atoms: O_2  and  C_3
REMARK    3  A    between atoms: C_3  and  C_5
REMARK    4  A    between atoms: C_7  and  C_8
REMARK    5  A    between atoms: C_8  and  O_10
REMARK    6  A    between atoms: O_10  and  C_11
REMARK    7  A    between atoms: C_15  and  C_16
REMARK                            x       y       z     vdW  Elec       q    Type
REMARK                         _______ _______ _______ _____ _____    ______ ____
ROOT
ATOM      1  C   UNL     1       2.982   4.746  17.635  0.00  0.00    +0.000 C 
ATOM      2  C   UNL     1       2.210   5.243  18.859  0.00  0.00    +0.000 C 
ATOM      3  C   UNL     1       3.222   5.188  20.016  0.00  0.00    +0.000 C 
ATOM      4  C   UNL     1       4.583   5.400  19.348  0.00  0.00    +0.000 C 
ATOM      5  O   UNL     1       5.534   4.364  19.583  0.00  0.00    +0.000 OA
ATOM      6  N   UNL     1       6.257   4.148  18.385  0.00  0.00    +0.000 NA
ATOM      7  C   UNL     1       5.581   4.679  17.418  0.00  0.00    +0.000 C 
ATOM      8  C   UNL     1       4.346   5.400  17.846  0.00  0.00    +0.000 C 
ENDROOT
BRANCH   7   9
ATOM      9  C   UNL     1       5.984   4.606  15.992  0.00  0.00    +0.000 A 
ATOM     10  C   UNL     1       7.219   5.141  15.603  0.00  0.00    +0.000 A 
ATOM     11  C   UNL     1       7.626   5.076  14.266  0.00  0.00    +0.000 A 
ATOM     12  C   UNL     1       6.802   4.471  13.320  0.00  0.00    +0.000 A 
ATOM     13 CL   UNL     1       7.299   4.386  11.676  0.00  0.00    +0.000 Cl
ATOM     14  C   UNL     1       5.573   3.933  13.696  0.00  0.00    +0.000 A 
ATOM     15  C   UNL     1       5.163   4.002  15.030  0.00  0.00    +0.000 A 
ENDBRANCH   7   9
BRANCH   1  16
ATOM     16  C   UNL     1       2.946   3.227  17.489  0.00  0.00    +0.000 C 
ATOM     17  O   UNL     1       3.917   2.491  17.433  0.00  0.00    +0.000 OA
BRANCH  16  19
ATOM     18  C   UNL     1       1.177   2.030  18.427  0.00  0.00    +0.000 C 
ATOM     19  O   UNL     1       1.658   2.809  17.330  0.00  0.00    +0.000 OA
ENDBRANCH  16  19
ENDBRANCH   1  16
BRANCH   3  20
ATOM     20  C   UNL     1       3.100   3.911  20.822  0.00  0.00    +0.000 C 
ATOM     21  O   UNL     1       3.802   2.922  20.660  0.00  0.00    +0.000 OA
BRANCH  20  22
ATOM     22  O   UNL     1       2.045   3.986  21.677  0.00  0.00    +0.000 OA
ATOM     23  C   UNL     1       1.332   2.758  21.826  0.00  0.00    +0.000 C 
ENDBRANCH  20  22
ENDBRANCH   3  20
TORSDOF 5
ENDMDL
MODEL 4
REMARK VINA RESULT:      -6.7      3.052      4.180
REMARK  Name = 
REMARK  7 active torsions:
REMARK  status: ('A' for Active; 'I' for Inactive)
REMARK    1  A    between atoms: C_1  and  O_2
REMARK    2  A    between atoms: O_2  and  C_3
REMARK    3  A    between atoms: C_3  and  C_5
REMARK    4  A    between atoms: C_7  and  C_8
REMARK    5  A    between atoms: C_8  and  O_10
REMARK    6  A    between atoms: O_10  and  C_11
REMARK    7  A    between atoms: C_15  and  C_16
REMARK                            x       y       z     vdW  Elec       q    Type
REMARK                         _______ _______ _______ _____ _____    ______ ____
ROOT
ATOM      1  C   UNL     1       5.287   5.129  18.396  0.00  0.00    +0.000 C 
ATOM      2  C   UNL     1       6.663   4.601  17.988  0.00  0.00    +0.000 C 
ATOM      3  C   UNL     1       6.918   5.191  16.591  0.00  0.00    +0.000 C 
ATOM      4  C   UNL     1       6.142   6.512  16.584  0.00  0.00    +0.000 C 
ATOM      5  O   UNL     1       5.182   6.636  15.538  0.00  0.00    +0.000 OA
ATOM      6  N   UNL     1       4.038   7.284  16.063  0.00  0.00    +0.000 NA
ATOM      7  C   UNL     1       4.101   7.206  17.353  0.00  0.00    +0.000 C 
ATOM      8  C   UNL     1       5.344   6.565  17.876  0.00  0.00    +0.000 C 
ENDROOT
BRANCH   7   9
ATOM      9  C   UNL     1       3.047   7.717  18.263  0.00  0.00    +0.000 A 
ATOM     10  C   UNL     1       2.313   8.850  17.891  0.00  0.00    +0.000 A 
ATOM     11  C   UNL     1       1.308   9.346  18.728  0.00  0.00    +0.000 A 
ATOM     12  C   UNL     1       1.032   8.706  19.934  0.00  0.00    +0.000 A 
ATOM     13 CL   UNL     1      -0.205   9.309  20.965  0.00  0.00    +0.000 Cl
ATOM     14  C   UNL     1       1.754   7.576  20.313  0.00  0.00    +0.000 A 
ATOM     15  C   UNL     1       2.762   7.083  19.481  0.00  0.00    +0.000 A 
ENDBRANCH   7   9
BRANCH   1  16
ATOM     16  C   UNL     1       4.144   4.248  17.902  0.00  0.00    +0.000 C 
ATOM     17  O   UNL     1       3.262   4.586  17.130  0.00  0.00    +0.000 OA
BRANCH  16  19
ATOM     18  C   UNL     1       3.256   2.092  18.003  0.00  0.00    +0.000 C 
ATOM     19  O   UNL     1       4.190   3.037  18.528  0.00  0.00    +0.000 OA
ENDBRANCH  16  19
ENDBRANCH   1  16
BRANCH   3  20
ATOM     20  C   UNL     1       6.544   4.227  15.485  0.00  0.00    +0.000 C 
ATOM     21  O   UNL     1       5.929   3.183  15.656  0.00  0.00    +0.000 OA
BRANCH  20  22
ATOM     22  O   UNL     1       7.070   4.634  14.299  0.00  0.00    +0.000 OA
ATOM     23  C   UNL     1       6.511   3.978  13.161  0.00  0.00    +0.000 C 
ENDBRANCH  20  22
ENDBRANCH   3  20
TORSDOF 5
ENDMDL
MODEL 5
REMARK VINA RESULT:      -6.7      3.069      4.108
REMARK  Name = 
REMARK  7 active torsions:
REMARK  status: ('A' for Active; 'I' for Inactive)
REMARK    1  A    between atoms: C_1  and  O_2
REMARK    2  A    between atoms: O_2  and  C_3
REMARK    3  A    between atoms: C_3  and  C_5
REMARK    4  A    between atoms: C_7  and  C_8
REMARK    5  A    between atoms: C_8  and  O_10
REMARK    6  A    between atoms: O_10  and  C_11
REMARK    7  A    between atoms: C_15  and  C_16
REMARK                            x       y       z     vdW  Elec       q    Type
REMARK                         _______ _______ _______ _____ _____    ______ ____
ROOT
ATOM      1  C   UNL     1       5.216   5.128  18.445  0.00  0.00    +0.000 C 
ATOM      2  C   UNL     1       6.595   4.578  18.074  0.00  0.00    +0.000 C 
ATOM      3  C   UNL     1       6.890   5.154  16.678  0.00  0.00    +0.000 C 
ATOM      4  C   UNL     1       6.132   6.484  16.643  0.00  0.00    +0.000 C 
ATOM      5  O   UNL     1       5.198   6.613  15.573  0.00  0.00    +0.000 OA
ATOM      6  N   UNL     1       4.051   7.279  16.066  0.00  0.00    +0.000 NA
ATOM      7  C   UNL     1       4.082   7.211  17.358  0.00  0.00    +0.000 C 
ATOM      8  C   UNL     1       5.304   6.558  17.916  0.00  0.00    +0.000 C 
ENDROOT
BRANCH   7   9
ATOM      9  C   UNL     1       3.015   7.743  18.239  0.00  0.00    +0.000 A 
ATOM     10  C   UNL     1       2.759   7.111  19.462  0.00  0.00    +0.000 A 
ATOM     11  C   UNL     1       1.764   7.600  20.315  0.00  0.00    +0.000 A 
ATOM     12  C   UNL     1       1.028   8.725  19.948  0.00  0.00    +0.000 A 
ATOM     13 CL   UNL     1      -0.194   9.331  20.994  0.00  0.00    +0.000 Cl
ATOM     14  C   UNL     1       1.276   9.364  18.735  0.00  0.00    +0.000 A 
ATOM     15  C   UNL     1       2.266   8.873  17.880  0.00  0.00    +0.000 A 
ENDBRANCH   7   9
BRANCH   1  16
ATOM     16  C   UNL     1       4.074   4.257  17.931  0.00  0.00    +0.000 C 
ATOM     17  O   UNL     1       3.198   4.609  17.158  0.00  0.00    +0.000 OA
BRANCH  16  19
ATOM     18  C   UNL     1       3.186   2.100  17.989  0.00  0.00    +0.000 C 
ATOM     19  O   UNL     1       4.113   3.037  18.539  0.00  0.00    +0.000 OA
ENDBRANCH  16  19
ENDBRANCH   1  16
BRANCH   3  20
ATOM     20  C   UNL     1       6.530   4.186  15.571  0.00  0.00    +0.000 C 
ATOM     21  O   UNL     1       5.889   3.156  15.735  0.00  0.00    +0.000 OA
BRANCH  20  22
ATOM     22  O   UNL     1       7.099   4.570  14.398  0.00  0.00    +0.000 OA
ATOM     23  C   UNL     1       6.494   3.990  13.242  0.00  0.00    +0.000 C 
ENDBRANCH  20  22
ENDBRANCH   3  20
TORSDOF 5
ENDMDL
MODEL 6
REMARK VINA RESULT:      -6.7      3.942      5.223
REMARK  Name = 
REMARK  7 active torsions:
REMARK  status: ('A' for Active; 'I' for Inactive)
REMARK    1  A    between atoms: C_1  and  O_2
REMARK    2  A    between atoms: O_2  and  C_3
REMARK    3  A    between atoms: C_3  and  C_5
REMARK    4  A    between atoms: C_7  and  C_8
REMARK    5  A    between atoms: C_8  and  O_10
REMARK    6  A    between atoms: O_10  and  C_11
REMARK    7  A    between atoms: C_15  and  C_16
REMARK                            x       y       z     vdW  Elec       q    Type
REMARK                         _______ _______ _______ _____ _____    ______ ____
ROOT
ATOM      1  C   UNL     1       3.060   4.824  19.957  0.00  0.00    +0.000 C 
ATOM      2  C   UNL     1       4.202   3.830  19.731  0.00  0.00    +0.000 C 
ATOM      3  C   UNL     1       4.846   4.259  18.402  0.00  0.00    +0.000 C 
ATOM      4  C   UNL     1       4.600   5.769  18.326  0.00  0.00    +0.000 C 
ATOM      5  O   UNL     1       3.906   6.204  17.159  0.00  0.00    +0.000 OA
ATOM      6  N   UNL     1       3.006   7.229  17.537  0.00  0.00    +0.000 NA
ATOM      7  C   UNL     1       2.852   7.162  18.820  0.00  0.00    +0.000 C 
ATOM      8  C   UNL     1       3.698   6.132  19.494  0.00  0.00    +0.000 C 
ENDROOT
BRANCH   7   9
ATOM      9  C   UNL     1       1.932   8.036  19.588  0.00  0.00    +0.000 A 
ATOM     10  C   UNL     1       1.411   9.184  18.977  0.00  0.00    +0.000 A 
ATOM     11  C   UNL     1       0.534  10.019  19.677  0.00  0.00    +0.000 A 
ATOM     12  C   UNL     1       0.171   9.703  20.985  0.00  0.00    +0.000 A 
ATOM     13 CL   UNL     1      -0.909  10.724  21.848  0.00  0.00    +0.000 Cl
ATOM     14  C   UNL     1       0.681   8.561  21.601  0.00  0.00    +0.000 A 
ATOM     15  C   UNL     1       1.562   7.730  20.905  0.00  0.00    +0.000 A 
ENDBRANCH   7   9
BRANCH   1  16
ATOM     16  C   UNL     1       1.761   4.397  19.281  0.00  0.00    +0.000 C 
ATOM     17  O   UNL     1       1.548   4.391  18.080  0.00  0.00    +0.000 OA
BRANCH  16  19
ATOM     18  C   UNL     1       1.141   2.956  21.009  0.00  0.00    +0.000 C 
ATOM     19  O   UNL     1       0.821   4.107  20.226  0.00  0.00    +0.000 OA
ENDBRANCH  16  19
ENDBRANCH   1  16
BRANCH   3  20
ATOM     20  C   UNL     1       4.314   3.467  17.226  0.00  0.00    +0.000 C 
ATOM     21  O   UNL     1       3.722   2.400  17.322  0.00  0.00    +0.000 OA
BRANCH  20  22
ATOM     22  O   UNL     1       4.672   4.056  16.054  0.00  0.00    +0.000 OA
ATOM     23  C   UNL     1       5.989   3.723  15.616  0.00  0.00    +0.000 C 
ENDBRANCH  20  22
ENDBRANCH   3  20
TORSDOF 5
ENDMDL
MODEL 7
REMARK VINA RESULT:      -6.7      3.908      5.135
REMARK  Name = 
REMARK  7 active torsions:
REMARK  status: ('A' for Active; 'I' for Inactive)
REMARK    1  A    between atoms: C_1  and  O_2
REMARK    2  A    between atoms: O_2  and  C_3
REMARK    3  A    between atoms: C_3  and  C_5
REMARK    4  A    between atoms: C_7  and  C_8
REMARK    5  A    between atoms: C_8  and  O_10
REMARK    6  A    between atoms: O_10  and  C_11
REMARK    7  A    between atoms: C_15  and  C_16
REMARK                            x       y       z     vdW  Elec       q    Type
REMARK                         _______ _______ _______ _____ _____    ______ ____
ROOT
ATOM      1  C   UNL     1       3.035   4.837  19.653  0.00  0.00    +0.000 C 
ATOM      2  C   UNL     1       4.174   3.827  19.499  0.00  0.00    +0.000 C 
ATOM      3  C   UNL     1       4.963   4.302  18.266  0.00  0.00    +0.000 C 
ATOM      4  C   UNL     1       4.755   5.820  18.238  0.00  0.00    +0.000 C 
ATOM      5  O   UNL     1       4.196   6.325  17.029  0.00  0.00    +0.000 OA
ATOM      6  N   UNL     1       3.281   7.352  17.361  0.00  0.00    +0.000 NA
ATOM      7  C   UNL     1       2.992   7.230  18.616  0.00  0.00    +0.000 C 
ATOM      8  C   UNL     1       3.742   6.150  19.323  0.00  0.00    +0.000 C 
ENDROOT
BRANCH   7   9
ATOM      9  C   UNL     1       2.013   8.089  19.326  0.00  0.00    +0.000 A 
ATOM     10  C   UNL     1       1.683   7.796  20.654  0.00  0.00    +0.000 A 
ATOM     11  C   UNL     1       0.770   8.597  21.348  0.00  0.00    +0.000 A 
ATOM     12  C   UNL     1       0.192   9.695  20.716  0.00  0.00    +0.000 A 
ATOM     13 CL   UNL     1      -0.929  10.685  21.565  0.00  0.00    +0.000 Cl
ATOM     14  C   UNL     1       0.516   9.999  19.395  0.00  0.00    +0.000 A 
ATOM     15  C   UNL     1       1.423   9.196  18.699  0.00  0.00    +0.000 A 
ENDBRANCH   7   9
BRANCH   1  16
ATOM     16  C   UNL     1       1.806   4.473  18.826  0.00  0.00    +0.000 C 
ATOM     17  O   UNL     1       1.538   4.903  17.716  0.00  0.00    +0.000 OA
BRANCH  16  19
ATOM     18  C   UNL     1       0.742   2.399  18.924  0.00  0.00    +0.000 C 
ATOM     19  O   UNL     1       0.985   3.659  19.550  0.00  0.00    +0.000 OA
ENDBRANCH  16  19
ENDBRANCH   1  16
BRANCH   3  20
ATOM     20  C   UNL     1       4.542   3.579  17.004  0.00  0.00    +0.000 C 
ATOM     21  O   UNL     1       3.914   2.529  16.986  0.00  0.00    +0.000 OA
BRANCH  20  22
ATOM     22  O   UNL     1       5.044   4.205  15.906  0.00  0.00    +0.000 OA
ATOM     23  C   UNL     1       6.386   3.834  15.590  0.00  0.00    +0.000 C 
ENDBRANCH  20  22
ENDBRANCH   3  20
TORSDOF 5
ENDMDL
MODEL 8
REMARK VINA RESULT:      -6.6      3.413      6.062
REMARK  Name = 
REMARK  7 active torsions:
REMARK  status: ('A' for Active; 'I' for Inactive)
REMARK    1  A    between atoms: C_1  and  O_2
REMARK    2  A    between atoms: O_2  and  C_3
REMARK    3  A    between atoms: C_3  and  C_5
REMARK    4  A    between atoms: C_7  and  C_8
REMARK    5  A    between atoms: C_8  and  O_10
REMARK    6  A    between atoms: O_10  and  C_11
REMARK    7  A    between atoms: C_15  and  C_16
REMARK                            x       y       z     vdW  Elec       q    Type
REMARK                         _______ _______ _______ _____ _____    ______ ____
ROOT
ATOM      1  C   UNL     1       4.770   4.099  19.461  0.00  0.00    +0.000 C 
ATOM      2  C   UNL     1       4.187   2.685  19.505  0.00  0.00    +0.000 C 
ATOM      3  C   UNL     1       3.809   2.365  18.048  0.00  0.00    +0.000 C 
ATOM      4  C   UNL     1       4.796   3.179  17.207  0.00  0.00    +0.000 C 
ATOM      5  O   UNL     1       4.193   4.079  16.280  0.00  0.00    +0.000 OA
ATOM      6  N   UNL     1       4.956   5.271  16.261  0.00  0.00    +0.000 NA
ATOM      7  C   UNL     1       5.691   5.283  17.327  0.00  0.00    +0.000 C 
ATOM      8  C   UNL     1       5.583   4.055  18.169  0.00  0.00    +0.000 C 
ENDROOT
BRANCH   7   9
ATOM      9  C   UNL     1       6.588   6.404  17.698  0.00  0.00    +0.000 A 
ATOM     10  C   UNL     1       7.602   6.186  18.638  0.00  0.00    +0.000 A 
ATOM     11  C   UNL     1       8.467   7.225  18.998  0.00  0.00    +0.000 A 
ATOM     12  C   UNL     1       8.323   8.480  18.412  0.00  0.00    +0.000 A 
ATOM     13 CL   UNL     1       9.385   9.760  18.848  0.00  0.00    +0.000 Cl
ATOM     14  C   UNL     1       7.319   8.708  17.472  0.00  0.00    +0.000 A 
ATOM     15  C   UNL     1       6.451   7.673  17.117  0.00  0.00    +0.000 A 
ENDBRANCH   7   9
BRANCH   1  16
ATOM     16  C   UNL     1       3.703   5.183  19.583  0.00  0.00    +0.000 C 
ATOM     17  O   UNL     1       3.694   6.248  18.989  0.00  0.00    +0.000 OA
BRANCH  16  19
ATOM     18  C   UNL     1       1.707   5.752  20.651  0.00  0.00    +0.000 C 
ATOM     19  O   UNL     1       2.793   4.831  20.537  0.00  0.00    +0.000 OA
ENDBRANCH  16  19
ENDBRANCH   1  16
BRANCH   3  20
ATOM     20  C   UNL     1       2.348   2.643  17.762  0.00  0.00    +0.000 C 
ATOM     21  O   UNL     1       1.946   3.493  16.979  0.00  0.00    +0.000 OA
BRANCH  20  22
ATOM     22  O   UNL     1       1.553   1.887  18.565  0.00  0.00    +0.000 OA
ATOM     23  C   UNL     1       0.486   2.614  19.175  0.00  0.00    +0.000 C 
ENDBRANCH  20  22
ENDBRANCH   3  20
TORSDOF 5
ENDMDL
MODEL 9
REMARK VINA RESULT:      -6.6      3.410      6.130
REMARK  Name = 
REMARK  7 active torsions:
REMARK  status: ('A' for Active; 'I' for Inactive)
REMARK    1  A    between atoms: C_1  and  O_2
REMARK    2  A    between atoms: O_2  and  C_3
REMARK    3  A    between atoms: C_3  and  C_5
REMARK    4  A    between atoms: C_7  and  C_8
REMARK    5  A    between atoms: C_8  and  O_10
REMARK    6  A    between atoms: O_10  and  C_11
REMARK    7  A    between atoms: C_15  and  C_16
REMARK                            x       y       z     vdW  Elec       q    Type
REMARK                         _______ _______ _______ _____ _____    ______ ____
ROOT
ATOM      1  C   UNL     1       4.808   4.021  19.435  0.00  0.00    +0.000 C 
ATOM      2  C   UNL     1       4.201   2.617  19.446  0.00  0.00    +0.000 C 
ATOM      3  C   UNL     1       3.791   2.350  17.987  0.00  0.00    +0.000 C 
ATOM      4  C   UNL     1       4.777   3.173  17.154  0.00  0.00    +0.000 C 
ATOM      5  O   UNL     1       4.174   4.111  16.266  0.00  0.00    +0.000 OA
ATOM      6  N   UNL     1       4.957   5.290  16.271  0.00  0.00    +0.000 NA
ATOM      7  C   UNL     1       5.711   5.256  17.322  0.00  0.00    +0.000 C 
ATOM      8  C   UNL     1       5.597   4.004  18.127  0.00  0.00    +0.000 C 
ENDROOT
BRANCH   7   9
ATOM      9  C   UNL     1       6.635   6.349  17.711  0.00  0.00    +0.000 A 
ATOM     10  C   UNL     1       6.506   7.603  17.102  0.00  0.00    +0.000 A 
ATOM     11  C   UNL     1       7.359   8.653  17.459  0.00  0.00    +0.000 A 
ATOM     12  C   UNL     1       8.336   8.451  18.430  0.00  0.00    +0.000 A 
ATOM     13 CL   UNL     1       9.386   9.738  18.875  0.00  0.00    +0.000 Cl
ATOM     14  C   UNL     1       8.472   7.208  19.046  0.00  0.00    +0.000 A 
ATOM     15  C   UNL     1       7.625   6.157  18.686  0.00  0.00    +0.000 A 
ENDBRANCH   7   9
BRANCH   1  16
ATOM     16  C   UNL     1       3.763   5.119  19.611  0.00  0.00    +0.000 C 
ATOM     17  O   UNL     1       3.732   6.180  19.010  0.00  0.00    +0.000 OA
BRANCH  16  19
ATOM     18  C   UNL     1       1.707   5.559  20.622  0.00  0.00    +0.000 C 
ATOM     19  O   UNL     1       2.907   4.785  20.620  0.00  0.00    +0.000 OA
ENDBRANCH  16  19
ENDBRANCH   1  16
BRANCH   3  20
ATOM     20  C   UNL     1       2.330   2.662  17.737  0.00  0.00    +0.000 C 
ATOM     21  O   UNL     1       1.929   3.566  17.016  0.00  0.00    +0.000 OA
BRANCH  20  22
ATOM     22  O   UNL     1       1.535   1.863  18.498  0.00  0.00    +0.000 OA
ATOM     23  C   UNL     1       0.480   2.560  19.163  0.00  0.00    +0.000 C 
ENDBRANCH  20  22
ENDBRANCH   3  20
TORSDOF 5
ENDMDL
