MODEL 1
REMARK VINA RESULT:      -7.8      0.000      0.000
REMARK  Name = 
REMARK  4 active torsions:
REMARK  status: ('A' for Active; 'I' for Inactive)
REMARK    1  A    between atoms: O_1  and  C_2
REMARK    2  A    between atoms: C_2  and  C_3
REMARK    3  A    between atoms: C_2  and  C_16
REMARK    4  A    between atoms: C_3  and  C_4
REMARK                            x       y       z     vdW  Elec       q    Type
REMARK                         _______ _______ _______ _____ _____    ______ ____
ROOT
ATOM      1  C   UNL     1       5.060   4.838  18.495  0.00  0.00    +0.000 C 
ATOM      2  C   UNL     1       3.996   5.921  18.730  0.00  0.00    +0.000 A 
ATOM      3  C   UNL     1       3.227   6.176  19.853  0.00  0.00    +0.000 A 
ATOM      4  C   UNL     1       2.288   7.211  19.793  0.00  0.00    +0.000 A 
ATOM      5  C   UNL     1       2.145   7.994  18.632  0.00  0.00    +0.000 A 
ATOM      6  C   UNL     1       2.953   7.773  17.516  0.00  0.00    +0.000 A 
ATOM      7  C   UNL     1       3.870   6.745  17.585  0.00  0.00    +0.000 A 
ATOM      8  C   UNL     1       4.841   6.304  16.640  0.00  0.00    +0.000 A 
ATOM      9  C   UNL     1       5.379   6.492  15.398  0.00  0.00    +0.000 A 
ATOM     10  N   UNL     1       6.380   5.559  15.180  0.00  0.00    +0.000 NA
ATOM     11  C   UNL     1       6.444   4.818  16.274  0.00  0.00    +0.000 A 
ATOM     12  N   UNL     1       5.539   5.252  17.170  0.00  0.00    +0.000 N 
ENDROOT
BRANCH   1  13
ATOM     13  C   UNL     1       4.513   3.404  18.415  0.00  0.00    +0.000 C 
BRANCH  13  14
ATOM     14  C   UNL     1       4.176   2.738  19.754  0.00  0.00    +0.000 C 
BRANCH  14  15
ATOM     15  C   UNL     1       2.846   1.933  19.724  0.00  0.00    +0.000 C 
ATOM     16  C   UNL     1       2.034   2.133  21.024  0.00  0.00    +0.000 C 
ATOM     17  C   UNL     1       1.371   3.509  21.110  0.00  0.00    +0.000 C 
ATOM     18  C   UNL     1       0.507   3.804  19.889  0.00  0.00    +0.000 C 
ATOM     19  C   UNL     1       1.261   3.592  18.580  0.00  0.00    +0.000 C 
ATOM     20  C   UNL     1       1.931   2.221  18.520  0.00  0.00    +0.000 C 
ENDBRANCH  14  15
BRANCH  14  21
ATOM     21  O   UNL     1       5.223   1.821  20.081  0.00  0.00    +0.000 OA
ATOM     22  H   UNL     1       6.045   2.098  19.645  0.00  0.00    +0.000 HD
ENDBRANCH  14  21
ENDBRANCH  13  14
ENDBRANCH   1  13
TORSDOF 4
ENDMDL
MODEL 2
REMARK VINA RESULT:      -7.4      2.036      3.144
REMARK  Name = 
REMARK  4 active torsions:
REMARK  status: ('A' for Active; 'I' for Inactive)
REMARK    1  A    between atoms: O_1  and  C_2
REMARK    2  A    between atoms: C_2  and  C_3
REMARK    3  A    between atoms: C_2  and  C_16
REMARK    4  A    between atoms: C_3  and  C_4
REMARK                            x       y       z     vdW  Elec       q    Type
REMARK                         _______ _______ _______ _____ _____    ______ ____
ROOT
ATOM      1  C   UNL     1       5.357   3.525  16.660  0.00  0.00    +0.000 C 
ATOM      2  C   UNL     1       6.134   4.528  17.526  0.00  0.00    +0.000 A 
ATOM      3  C   UNL     1       6.160   4.673  18.904  0.00  0.00    +0.000 A 
ATOM      4  C   UNL     1       6.929   5.707  19.447  0.00  0.00    +0.000 A 
ATOM      5  C   UNL     1       7.682   6.562  18.622  0.00  0.00    +0.000 A 
ATOM      6  C   UNL     1       7.699   6.388  17.237  0.00  0.00    +0.000 A 
ATOM      7  C   UNL     1       6.931   5.370  16.712  0.00  0.00    +0.000 A 
ATOM      8  C   UNL     1       6.771   4.928  15.367  0.00  0.00    +0.000 A 
ATOM      9  C   UNL     1       7.120   5.128  14.061  0.00  0.00    +0.000 A 
ATOM     10  N   UNL     1       6.472   4.200  13.261  0.00  0.00    +0.000 NA
ATOM     11  C   UNL     1       5.742   3.452  14.072  0.00  0.00    +0.000 A 
ATOM     12  N   UNL     1       5.912   3.861  15.343  0.00  0.00    +0.000 N 
ENDROOT
BRANCH   1  13
ATOM     13  C   UNL     1       3.835   3.734  16.641  0.00  0.00    +0.000 C 
BRANCH  13  14
ATOM     14  C   UNL     1       3.051   3.065  17.776  0.00  0.00    +0.000 C 
BRANCH  14  15
ATOM     15  C   UNL     1       1.820   3.891  18.244  0.00  0.00    +0.000 C 
ATOM     16  C   UNL     1       0.882   3.052  19.140  0.00  0.00    +0.000 C 
ATOM     17  C   UNL     1       1.445   2.819  20.544  0.00  0.00    +0.000 C 
ATOM     18  C   UNL     1       1.815   4.127  21.235  0.00  0.00    +0.000 C 
ATOM     19  C   UNL     1       2.720   5.002  20.373  0.00  0.00    +0.000 C 
ATOM     20  C   UNL     1       2.152   5.207  18.971  0.00  0.00    +0.000 C 
ENDBRANCH  14  15
BRANCH  14  21
ATOM     21  O   UNL     1       2.566   1.802  17.311  0.00  0.00    +0.000 OA
ATOM     22  H   UNL     1       1.814   1.944  16.714  0.00  0.00    +0.000 HD
ENDBRANCH  14  21
ENDBRANCH  13  14
ENDBRANCH   1  13
TORSDOF 4
ENDMDL
MODEL 3
REMARK VINA RESULT:      -7.4      2.036      3.605
REMARK  Name = 
REMARK  4 active torsions:
REMARK  status: ('A' for Active; 'I' for Inactive)
REMARK    1  A    between atoms: O_1  and  C_2
REMARK    2  A    between atoms: C_2  and  C_3
REMARK    3  A    between atoms: C_2  and  C_16
REMARK    4  A    between atoms: C_3  and  C_4
REMARK                            x       y       z     vdW  Elec       q    Type
REMARK                         _______ _______ _______ _____ _____    ______ ____
ROOT
ATOM      1  C   UNL     1       4.546   4.230  17.312  0.00  0.00    +0.000 C 
ATOM      2  C   UNL     1       5.267   4.304  15.958  0.00  0.00    +0.000 A 
ATOM      3  C   UNL     1       4.795   4.017  14.688  0.00  0.00    +0.000 A 
ATOM      4  C   UNL     1       5.681   4.127  13.611  0.00  0.00    +0.000 A 
ATOM      5  C   UNL     1       7.010   4.547  13.805  0.00  0.00    +0.000 A 
ATOM      6  C   UNL     1       7.476   4.885  15.077  0.00  0.00    +0.000 A 
ATOM      7  C   UNL     1       6.595   4.765  16.131  0.00  0.00    +0.000 A 
ATOM      8  C   UNL     1       6.760   5.062  17.515  0.00  0.00    +0.000 A 
ATOM      9  C   UNL     1       7.615   5.509  18.483  0.00  0.00    +0.000 A 
ATOM     10  N   UNL     1       6.972   5.502  19.710  0.00  0.00    +0.000 NA
ATOM     11  C   UNL     1       5.746   5.057  19.486  0.00  0.00    +0.000 A 
ATOM     12  N   UNL     1       5.589   4.797  18.175  0.00  0.00    +0.000 N 
ENDROOT
BRANCH   1  13
ATOM     13  C   UNL     1       4.209   2.807  17.786  0.00  0.00    +0.000 C 
BRANCH  13  14
ATOM     14  C   UNL     1       4.110   2.610  19.303  0.00  0.00    +0.000 C 
BRANCH  14  15
ATOM     15  C   UNL     1       2.706   2.134  19.772  0.00  0.00    +0.000 C 
ATOM     16  C   UNL     1       2.410   2.581  21.221  0.00  0.00    +0.000 C 
ATOM     17  C   UNL     1       2.104   4.076  21.335  0.00  0.00    +0.000 C 
ATOM     18  C   UNL     1       0.974   4.500  20.403  0.00  0.00    +0.000 C 
ATOM     19  C   UNL     1       1.210   4.053  18.964  0.00  0.00    +0.000 C 
ATOM     20  C   UNL     1       1.533   2.564  18.872  0.00  0.00    +0.000 C 
ENDBRANCH  14  15
BRANCH  14  21
ATOM     21  O   UNL     1       5.053   1.609  19.693  0.00  0.00    +0.000 OA
ATOM     22  H   UNL     1       5.004   0.860  19.078  0.00  0.00    +0.000 HD
ENDBRANCH  14  21
ENDBRANCH  13  14
ENDBRANCH   1  13
TORSDOF 4
ENDMDL
MODEL 4
REMARK VINA RESULT:      -7.3      1.932      3.899
REMARK  Name = 
REMARK  4 active torsions:
REMARK  status: ('A' for Active; 'I' for Inactive)
REMARK    1  A    between atoms: O_1  and  C_2
REMARK    2  A    between atoms: C_2  and  C_3
REMARK    3  A    between atoms: C_2  and  C_16
REMARK    4  A    between atoms: C_3  and  C_4
REMARK                            x       y       z     vdW  Elec       q    Type
REMARK                         _______ _______ _______ _____ _____    ______ ____
ROOT
ATOM      1  C   UNL     1       4.642   4.152  16.899  0.00  0.00    +0.000 C 
ATOM      2  C   UNL     1       5.475   4.344  15.623  0.00  0.00    +0.000 A 
ATOM      3  C   UNL     1       5.126   4.135  14.298  0.00  0.00    +0.000 A 
ATOM      4  C   UNL     1       6.098   4.348  13.315  0.00  0.00    +0.000 A 
ATOM      5  C   UNL     1       7.388   4.794  13.655  0.00  0.00    +0.000 A 
ATOM      6  C   UNL     1       7.729   5.055  14.983  0.00  0.00    +0.000 A 
ATOM      7  C   UNL     1       6.765   4.833  15.945  0.00  0.00    +0.000 A 
ATOM      8  C   UNL     1       6.798   5.036  17.354  0.00  0.00    +0.000 A 
ATOM      9  C   UNL     1       7.549   5.439  18.423  0.00  0.00    +0.000 A 
ATOM     10  N   UNL     1       6.802   5.325  19.584  0.00  0.00    +0.000 NA
ATOM     11  C   UNL     1       5.618   4.859  19.222  0.00  0.00    +0.000 A 
ATOM     12  N   UNL     1       5.586   4.688  17.887  0.00  0.00    +0.000 N 
ENDROOT
BRANCH   1  13
ATOM     13  C   UNL     1       4.318   2.690  17.242  0.00  0.00    +0.000 C 
BRANCH  13  14
ATOM     14  C   UNL     1       3.328   2.473  18.392  0.00  0.00    +0.000 C 
BRANCH  14  15
ATOM     15  C   UNL     1       1.926   3.091  18.122  0.00  0.00    +0.000 C 
ATOM     16  C   UNL     1       0.864   2.534  19.096  0.00  0.00    +0.000 C 
ATOM     17  C   UNL     1       1.001   3.095  20.513  0.00  0.00    +0.000 C 
ATOM     18  C   UNL     1       0.993   4.620  20.527  0.00  0.00    +0.000 C 
ATOM     19  C   UNL     1       2.009   5.214  19.556  0.00  0.00    +0.000 C 
ATOM     20  C   UNL     1       1.870   4.629  18.153  0.00  0.00    +0.000 C 
ENDBRANCH  14  15
BRANCH  14  21
ATOM     21  O   UNL     1       3.147   1.067  18.577  0.00  0.00    +0.000 OA
ATOM     22  H   UNL     1       2.655   0.702  17.825  0.00  0.00    +0.000 HD
ENDBRANCH  14  21
ENDBRANCH  13  14
ENDBRANCH   1  13
TORSDOF 4
ENDMDL
MODEL 5
REMARK VINA RESULT:      -7.0      2.128      5.063
REMARK  Name = 
REMARK  4 active torsions:
REMARK  status: ('A' for Active; 'I' for Inactive)
REMARK    1  A    between atoms: O_1  and  C_2
REMARK    2  A    between atoms: C_2  and  C_3
REMARK    3  A    between atoms: C_2  and  C_16
REMARK    4  A    between atoms: C_3  and  C_4
REMARK                            x       y       z     vdW  Elec       q    Type
REMARK                         _______ _______ _______ _____ _____    ______ ____
ROOT
ATOM      1  C   UNL     1       2.721   4.833  18.211  0.00  0.00    +0.000 C 
ATOM      2  C   UNL     1       2.313   6.207  18.761  0.00  0.00    +0.000 A 
ATOM      3  C   UNL     1       2.231   7.430  18.115  0.00  0.00    +0.000 A 
ATOM      4  C   UNL     1       1.868   8.554  18.865  0.00  0.00    +0.000 A 
ATOM      5  C   UNL     1       1.563   8.444  20.234  0.00  0.00    +0.000 A 
ATOM      6  C   UNL     1       1.595   7.207  20.878  0.00  0.00    +0.000 A 
ATOM      7  C   UNL     1       1.962   6.107  20.130  0.00  0.00    +0.000 A 
ATOM      8  C   UNL     1       2.053   4.731  20.487  0.00  0.00    +0.000 A 
ATOM      9  C   UNL     1       1.913   3.810  21.487  0.00  0.00    +0.000 A 
ATOM     10  N   UNL     1       2.226   2.549  21.003  0.00  0.00    +0.000 NA
ATOM     11  C   UNL     1       2.550   2.708  19.730  0.00  0.00    +0.000 A 
ATOM     12  N   UNL     1       2.444   4.007  19.393  0.00  0.00    +0.000 N 
ENDROOT
BRANCH   1  13
ATOM     13  C   UNL     1       4.206   4.705  17.835  0.00  0.00    +0.000 C 
BRANCH  13  14
ATOM     14  C   UNL     1       4.501   4.078  16.468  0.00  0.00    +0.000 C 
BRANCH  14  15
ATOM     15  C   UNL     1       5.478   4.922  15.602  0.00  0.00    +0.000 C 
ATOM     16  C   UNL     1       5.277   6.437  15.834  0.00  0.00    +0.000 C 
ATOM     17  C   UNL     1       5.826   6.913  17.180  0.00  0.00    +0.000 C 
ATOM     18  C   UNL     1       7.291   6.533  17.366  0.00  0.00    +0.000 C 
ATOM     19  C   UNL     1       7.541   5.049  17.118  0.00  0.00    +0.000 C 
ATOM     20  C   UNL     1       6.970   4.587  15.780  0.00  0.00    +0.000 C 
ENDBRANCH  14  15
BRANCH  14  21
ATOM     21  O   UNL     1       5.109   2.800  16.675  0.00  0.00    +0.000 OA
ATOM     22  H   UNL     1       5.363   2.420  15.819  0.00  0.00    +0.000 HD
ENDBRANCH  14  21
ENDBRANCH  13  14
ENDBRANCH   1  13
TORSDOF 4
ENDMDL
MODEL 6
REMARK VINA RESULT:      -6.9      2.306      5.188
REMARK  Name = 
REMARK  4 active torsions:
REMARK  status: ('A' for Active; 'I' for Inactive)
REMARK    1  A    between atoms: O_1  and  C_2
REMARK    2  A    between atoms: C_2  and  C_3
REMARK    3  A    between atoms: C_2  and  C_16
REMARK    4  A    between atoms: C_3  and  C_4
REMARK                            x       y       z     vdW  Elec       q    Type
REMARK                         _______ _______ _______ _____ _____    ______ ____
ROOT
ATOM      1  C   UNL     1       3.510   4.342  18.437  0.00  0.00    +0.000 C 
ATOM      2  C   UNL     1       2.968   5.762  18.657  0.00  0.00    +0.000 A 
ATOM      3  C   UNL     1       2.945   6.845  17.792  0.00  0.00    +0.000 A 
ATOM      4  C   UNL     1       2.425   8.056  18.260  0.00  0.00    +0.000 A 
ATOM      5  C   UNL     1       1.910   8.169  19.564  0.00  0.00    +0.000 A 
ATOM      6  C   UNL     1       1.885   7.068  20.422  0.00  0.00    +0.000 A 
ATOM      7  C   UNL     1       2.407   5.881  19.952  0.00  0.00    +0.000 A 
ATOM      8  C   UNL     1       2.491   4.599  20.566  0.00  0.00    +0.000 A 
ATOM      9  C   UNL     1       2.228   3.859  21.685  0.00  0.00    +0.000 A 
ATOM     10  N   UNL     1       2.661   2.557  21.493  0.00  0.00    +0.000 NA
ATOM     11  C   UNL     1       3.178   2.511  20.277  0.00  0.00    +0.000 A 
ATOM     12  N   UNL     1       3.079   3.720  19.694  0.00  0.00    +0.000 N 
ENDROOT
BRANCH   1  13
ATOM     13  C   UNL     1       5.040   4.248  18.318  0.00  0.00    +0.000 C 
BRANCH  13  14
ATOM     14  C   UNL     1       5.609   4.321  16.897  0.00  0.00    +0.000 C 
BRANCH  14  15
ATOM     15  C   UNL     1       7.138   4.606  16.861  0.00  0.00    +0.000 C 
ATOM     16  C   UNL     1       7.447   5.950  16.164  0.00  0.00    +0.000 C 
ATOM     17  C   UNL     1       7.093   7.165  17.023  0.00  0.00    +0.000 C 
ATOM     18  C   UNL     1       7.757   7.108  18.395  0.00  0.00    +0.000 C 
ATOM     19  C   UNL     1       7.501   5.785  19.109  0.00  0.00    +0.000 C 
ATOM     20  C   UNL     1       7.842   4.584  18.229  0.00  0.00    +0.000 C 
ENDBRANCH  14  15
BRANCH  14  21
ATOM     21  O   UNL     1       5.394   3.062  16.255  0.00  0.00    +0.000 OA
ATOM     22  H   UNL     1       5.189   3.208  15.318  0.00  0.00    +0.000 HD
ENDBRANCH  14  21
ENDBRANCH  13  14
ENDBRANCH   1  13
TORSDOF 4
ENDMDL
MODEL 7
REMARK VINA RESULT:      -6.8      2.280      3.959
REMARK  Name = 
REMARK  4 active torsions:
REMARK  status: ('A' for Active; 'I' for Inactive)
REMARK    1  A    between atoms: O_1  and  C_2
REMARK    2  A    between atoms: C_2  and  C_3
REMARK    3  A    between atoms: C_2  and  C_16
REMARK    4  A    between atoms: C_3  and  C_4
REMARK                            x       y       z     vdW  Elec       q    Type
REMARK                         _______ _______ _______ _____ _____    ______ ____
ROOT
ATOM      1  C   UNL     1       4.477   4.688  17.095  0.00  0.00    +0.000 C 
ATOM      2  C   UNL     1       5.297   4.653  15.797  0.00  0.00    +0.000 A 
ATOM      3  C   UNL     1       4.876   4.477  14.488  0.00  0.00    +0.000 A 
ATOM      4  C   UNL     1       5.844   4.443  13.480  0.00  0.00    +0.000 A 
ATOM      5  C   UNL     1       7.208   4.613  13.777  0.00  0.00    +0.000 A 
ATOM      6  C   UNL     1       7.633   4.841  15.087  0.00  0.00    +0.000 A 
ATOM      7  C   UNL     1       6.670   4.864  16.075  0.00  0.00    +0.000 A 
ATOM      8  C   UNL     1       6.783   5.104  17.474  0.00  0.00    +0.000 A 
ATOM      9  C   UNL     1       7.631   5.373  18.512  0.00  0.00    +0.000 A 
ATOM     10  N   UNL     1       6.908   5.463  19.691  0.00  0.00    +0.000 NA
ATOM     11  C   UNL     1       5.643   5.249  19.369  0.00  0.00    +0.000 A 
ATOM     12  N   UNL     1       5.539   5.043  18.044  0.00  0.00    +0.000 N 
ENDROOT
BRANCH   1  13
ATOM     13  C   UNL     1       3.857   3.342  17.502  0.00  0.00    +0.000 C 
BRANCH  13  14
ATOM     14  C   UNL     1       2.328   3.256  17.430  0.00  0.00    +0.000 C 
BRANCH  14  15
ATOM     15  C   UNL     1       1.719   2.252  18.449  0.00  0.00    +0.000 C 
ATOM     16  C   UNL     1       2.787   1.728  19.436  0.00  0.00    +0.000 C 
ATOM     17  C   UNL     1       3.196   2.767  20.481  0.00  0.00    +0.000 C 
ATOM     18  C   UNL     1       1.993   3.320  21.238  0.00  0.00    +0.000 C 
ATOM     19  C   UNL     1       0.900   3.824  20.301  0.00  0.00    +0.000 C 
ATOM     20  C   UNL     1       0.518   2.781  19.253  0.00  0.00    +0.000 C 
ENDBRANCH  14  15
BRANCH  14  21
ATOM     21  O   UNL     1       1.787   4.546  17.725  0.00  0.00    +0.000 OA
ATOM     22  H   UNL     1       2.480   5.110  18.103  0.00  0.00    +0.000 HD
ENDBRANCH  14  21
ENDBRANCH  13  14
ENDBRANCH   1  13
TORSDOF 4
ENDMDL
MODEL 8
REMARK VINA RESULT:      -6.8      2.597      5.317
REMARK  Name = 
REMARK  4 active torsions:
REMARK  status: ('A' for Active; 'I' for Inactive)
REMARK    1  A    between atoms: O_1  and  C_2
REMARK    2  A    between atoms: C_2  and  C_3
REMARK    3  A    between atoms: C_2  and  C_16
REMARK    4  A    between atoms: C_3  and  C_4
REMARK                            x       y       z     vdW  Elec       q    Type
REMARK                         _______ _______ _______ _____ _____    ______ ____
ROOT
ATOM      1  C   UNL     1       3.117   4.436  17.447  0.00  0.00    +0.000 C 
ATOM      2  C   UNL     1       2.690   5.633  18.309  0.00  0.00    +0.000 A 
ATOM      3  C   UNL     1       2.762   6.990  18.037  0.00  0.00    +0.000 A 
ATOM      4  C   UNL     1       2.337   7.887  19.022  0.00  0.00    +0.000 A 
ATOM      5  C   UNL     1       1.821   7.428  20.248  0.00  0.00    +0.000 A 
ATOM      6  C   UNL     1       1.699   6.062  20.507  0.00  0.00    +0.000 A 
ATOM      7  C   UNL     1       2.128   5.187  19.531  0.00  0.00    +0.000 A 
ATOM      8  C   UNL     1       2.103   3.763  19.486  0.00  0.00    +0.000 A 
ATOM      9  C   UNL     1       1.771   2.616  20.150  0.00  0.00    +0.000 A 
ATOM     10  N   UNL     1       2.099   1.517  19.371  0.00  0.00    +0.000 NA
ATOM     11  C   UNL     1       2.622   1.996  18.254  0.00  0.00    +0.000 A 
ATOM     12  N   UNL     1       2.626   3.341  18.293  0.00  0.00    +0.000 N 
ENDROOT
BRANCH   1  13
ATOM     13  C   UNL     1       4.635   4.291  17.254  0.00  0.00    +0.000 C 
BRANCH  13  14
ATOM     14  C   UNL     1       5.367   5.531  16.730  0.00  0.00    +0.000 C 
BRANCH  14  15
ATOM     15  C   UNL     1       6.912   5.360  16.683  0.00  0.00    +0.000 C 
ATOM     16  C   UNL     1       7.622   6.699  16.384  0.00  0.00    +0.000 C 
ATOM     17  C   UNL     1       7.617   7.658  17.577  0.00  0.00    +0.000 C 
ATOM     18  C   UNL     1       8.198   7.012  18.830  0.00  0.00    +0.000 C 
ATOM     19  C   UNL     1       7.545   5.671  19.148  0.00  0.00    +0.000 C 
ATOM     20  C   UNL     1       7.542   4.735  17.941  0.00  0.00    +0.000 C 
ENDBRANCH  14  15
BRANCH  14  21
ATOM     21  O   UNL     1       4.925   5.790  15.396  0.00  0.00    +0.000 OA
ATOM     22  H   UNL     1       4.468   6.646  15.366  0.00  0.00    +0.000 HD
ENDBRANCH  14  21
ENDBRANCH  13  14
ENDBRANCH   1  13
TORSDOF 4
ENDMDL
MODEL 9
REMARK VINA RESULT:      -6.7      2.164      4.212
REMARK  Name = 
REMARK  4 active torsions:
REMARK  status: ('A' for Active; 'I' for Inactive)
REMARK    1  A    between atoms: O_1  and  C_2
REMARK    2  A    between atoms: C_2  and  C_3
REMARK    3  A    between atoms: C_2  and  C_16
REMARK    4  A    between atoms: C_3  and  C_4
REMARK                            x       y       z     vdW  Elec       q    Type
REMARK                         _______ _______ _______ _____ _____    ______ ____
ROOT
ATOM      1  C   UNL     1       4.694   4.518  16.294  0.00  0.00    +0.000 C 
ATOM      2  C   UNL     1       5.401   4.347  14.942  0.00  0.00    +0.000 A 
ATOM      3  C   UNL     1       4.970   3.703  13.793  0.00  0.00    +0.000 A 
ATOM      4  C   UNL     1       5.835   3.655  12.695  0.00  0.00    +0.000 A 
ATOM      5  C   UNL     1       7.100   4.269  12.741  0.00  0.00    +0.000 A 
ATOM      6  C   UNL     1       7.519   4.962  13.878  0.00  0.00    +0.000 A 
ATOM      7  C   UNL     1       6.660   4.996  14.957  0.00  0.00    +0.000 A 
ATOM      8  C   UNL     1       6.786   5.640  16.221  0.00  0.00    +0.000 A 
ATOM      9  C   UNL     1       7.577   6.410  17.026  0.00  0.00    +0.000 A 
ATOM     10  N   UNL     1       6.939   6.625  18.237  0.00  0.00    +0.000 NA
ATOM     11  C   UNL     1       5.780   5.992  18.165  0.00  0.00    +0.000 A 
ATOM     12  N   UNL     1       5.658   5.402  16.961  0.00  0.00    +0.000 N 
ENDROOT
BRANCH   1  13
ATOM     13  C   UNL     1       4.540   3.224  17.108  0.00  0.00    +0.000 C 
BRANCH  13  14
ATOM     14  C   UNL     1       3.169   2.997  17.756  0.00  0.00    +0.000 C 
BRANCH  14  15
ATOM     15  C   UNL     1       2.808   4.069  18.824  0.00  0.00    +0.000 C 
ATOM     16  C   UNL     1       1.281   4.158  19.043  0.00  0.00    +0.000 C 
ATOM     17  C   UNL     1       0.719   2.973  19.830  0.00  0.00    +0.000 C 
ATOM     18  C   UNL     1       1.440   2.777  21.159  0.00  0.00    +0.000 C 
ATOM     19  C   UNL     1       2.955   2.711  20.994  0.00  0.00    +0.000 C 
ATOM     20  C   UNL     1       3.495   3.892  20.190  0.00  0.00    +0.000 C 
ENDBRANCH  14  15
BRANCH  14  21
ATOM     21  O   UNL     1       2.169   3.056  16.736  0.00  0.00    +0.000 OA
ATOM     22  H   UNL     1       1.654   2.233  16.740  0.00  0.00    +0.000 HD
ENDBRANCH  14  21
ENDBRANCH  13  14
ENDBRANCH   1  13
TORSDOF 4
ENDMDL
