MODEL 1
REMARK VINA RESULT:      -7.1      0.000      0.000
REMARK  Name = 
REMARK  12 active torsions:
REMARK  status: ('A' for Active; 'I' for Inactive)
REMARK    1  A    between atoms: C_1  and  C_2
REMARK    2  A    between atoms: C_2  and  O_3
REMARK    3  A    between atoms: O_3  and  C_4
REMARK    4  A    between atoms: C_4  and  C_5
REMARK    5  A    between atoms: C_5  and  C_6
REMARK    6  A    between atoms: C_6  and  N_7
REMARK    7  A    between atoms: N_10  and  C_11
REMARK    8  A    between atoms: C_11  and  C_12
REMARK    9  A    between atoms: C_11  and  C_19
REMARK   10  A    between atoms: C_12  and  C_13
REMARK   11  A    between atoms: C_19  and  O_21
REMARK   12  A    between atoms: O_21  and  C_22
REMARK                            x       y       z     vdW  Elec       q    Type
REMARK                         _______ _______ _______ _____ _____    ______ ____
ROOT
ATOM      1  N   UNL     1       6.128   4.327  14.351  0.00  0.00    +0.000 N 
ATOM      2  C   UNL     1       6.188   5.080  15.490  0.00  0.00    +0.000 C 
ATOM      3  O   UNL     1       7.082   5.875  15.753  0.00  0.00    +0.000 OA
ATOM      4  N   UNL     1       5.124   4.884  16.324  0.00  0.00    +0.000 N 
ATOM      5  H   UNL     1       5.198   4.071  14.048  0.00  0.00    +0.000 HD
ATOM      6  H   UNL     1       4.749   3.941  16.332  0.00  0.00    +0.000 HD
ENDROOT
BRANCH   1   7
ATOM      7  C   UNL     1       7.130   4.538  13.310  0.00  0.00    +0.000 C 
BRANCH   7   8
ATOM      8  C   UNL     1       6.806   3.794  12.010  0.00  0.00    +0.000 C 
BRANCH   8   9
ATOM      9  C   UNL     1       5.555   2.932  12.178  0.00  0.00    +0.000 C 
BRANCH   9  10
ATOM     10  O   UNL     1       4.417   3.700  11.800  0.00  0.00    +0.000 OA
BRANCH  10  12
ATOM     11  C   UNL     1       3.125   4.010   9.826  0.00  0.00    +0.000 C 
ATOM     12  C   UNL     1       3.570   3.018  10.883  0.00  0.00    +0.000 C 
ENDBRANCH  10  12
ENDBRANCH   9  10
ENDBRANCH   8   9
ENDBRANCH   7   8
ENDBRANCH   1   7
BRANCH   4  13
ATOM     13  C   UNL     1       5.069   5.590  17.615  0.00  0.00    +0.000 C 
BRANCH  13  14
ATOM     14  C   UNL     1       5.440   4.646  18.755  0.00  0.00    +0.000 C 
ATOM     15  O   UNL     1       6.037   4.987  19.769  0.00  0.00    +0.000 OA
BRANCH  14  16
ATOM     16  O   UNL     1       4.972   3.384  18.514  0.00  0.00    +0.000 OA
ATOM     17  C   UNL     1       4.569   2.665  19.681  0.00  0.00    +0.000 C 
ENDBRANCH  14  16
ENDBRANCH  13  14
BRANCH  13  18
ATOM     18  C   UNL     1       3.727   6.291  17.878  0.00  0.00    +0.000 C 
BRANCH  18  19
ATOM     19  C   UNL     1       2.635   5.482  18.545  0.00  0.00    +0.000 A 
ATOM     20  C   UNL     1       1.930   4.493  17.841  0.00  0.00    +0.000 A 
ATOM     21  C   UNL     1       1.084   3.609  18.517  0.00  0.00    +0.000 A 
ATOM     22  C   UNL     1       0.905   3.728  19.893  0.00  0.00    +0.000 A 
ATOM     23  C   UNL     1       1.538   4.757  20.587  0.00  0.00    +0.000 A 
ATOM     24  C   UNL     1       2.396   5.630  19.917  0.00  0.00    +0.000 A 
ENDBRANCH  18  19
ENDBRANCH  13  18
ENDBRANCH   4  13
TORSDOF 10
ENDMDL
MODEL 2
REMARK VINA RESULT:      -6.8      1.482      2.101
REMARK  Name = 
REMARK  12 active torsions:
REMARK  status: ('A' for Active; 'I' for Inactive)
REMARK    1  A    between atoms: C_1  and  C_2
REMARK    2  A    between atoms: C_2  and  O_3
REMARK    3  A    between atoms: O_3  and  C_4
REMARK    4  A    between atoms: C_4  and  C_5
REMARK    5  A    between atoms: C_5  and  C_6
REMARK    6  A    between atoms: C_6  and  N_7
REMARK    7  A    between atoms: N_10  and  C_11
REMARK    8  A    between atoms: C_11  and  C_12
REMARK    9  A    between atoms: C_11  and  C_19
REMARK   10  A    between atoms: C_12  and  C_13
REMARK   11  A    between atoms: C_19  and  O_21
REMARK   12  A    between atoms: O_21  and  C_22
REMARK                            x       y       z     vdW  Elec       q    Type
REMARK                         _______ _______ _______ _____ _____    ______ ____
ROOT
ATOM      1  N   UNL     1       6.018   3.674  14.567  0.00  0.00    +0.000 N 
ATOM      2  C   UNL     1       5.953   4.661  15.510  0.00  0.00    +0.000 C 
ATOM      3  O   UNL     1       6.368   5.802  15.353  0.00  0.00    +0.000 OA
ATOM      4  N   UNL     1       5.344   4.264  16.667  0.00  0.00    +0.000 N 
ATOM      5  H   UNL     1       5.296   2.968  14.626  0.00  0.00    +0.000 HD
ATOM      6  H   UNL     1       5.498   3.295  16.926  0.00  0.00    +0.000 HD
ENDROOT
BRANCH   1   7
ATOM      7  C   UNL     1       6.519   3.999  13.235  0.00  0.00    +0.000 C 
BRANCH   7   8
ATOM      8  C   UNL     1       6.082   2.989  12.169  0.00  0.00    +0.000 C 
BRANCH   8   9
ATOM      9  C   UNL     1       7.253   2.625  11.258  0.00  0.00    +0.000 C 
BRANCH   9  10
ATOM     10  O   UNL     1       7.122   1.260  10.871  0.00  0.00    +0.000 OA
BRANCH  10  12
ATOM     11  C   UNL     1       6.021  -0.803  11.308  0.00  0.00    +0.000 C 
ATOM     12  C   UNL     1       5.864   0.703  11.229  0.00  0.00    +0.000 C 
ENDBRANCH  10  12
ENDBRANCH   9  10
ENDBRANCH   8   9
ENDBRANCH   7   8
ENDBRANCH   1   7
BRANCH   4  13
ATOM     13  C   UNL     1       5.240   5.203  17.796  0.00  0.00    +0.000 C 
BRANCH  13  14
ATOM     14  C   UNL     1       5.576   4.500  19.108  0.00  0.00    +0.000 C 
ATOM     15  O   UNL     1       5.128   3.410  19.442  0.00  0.00    +0.000 OA
BRANCH  14  16
ATOM     16  O   UNL     1       6.480   5.226  19.832  0.00  0.00    +0.000 OA
ATOM     17  C   UNL     1       7.544   5.790  19.064  0.00  0.00    +0.000 C 
ENDBRANCH  14  16
ENDBRANCH  13  14
BRANCH  13  18
ATOM     18  C   UNL     1       3.884   5.924  17.874  0.00  0.00    +0.000 C 
BRANCH  18  19
ATOM     19  C   UNL     1       2.733   5.179  18.515  0.00  0.00    +0.000 A 
ATOM     20  C   UNL     1       2.108   4.105  17.861  0.00  0.00    +0.000 A 
ATOM     21  C   UNL     1       1.201   3.290  18.544  0.00  0.00    +0.000 A 
ATOM     22  C   UNL     1       0.880   3.562  19.872  0.00  0.00    +0.000 A 
ATOM     23  C   UNL     1       1.434   4.673  20.504  0.00  0.00    +0.000 A 
ATOM     24  C   UNL     1       2.353   5.478  19.830  0.00  0.00    +0.000 A 
ENDBRANCH  18  19
ENDBRANCH  13  18
ENDBRANCH   4  13
TORSDOF 10
ENDMDL
MODEL 3
REMARK VINA RESULT:      -6.8      1.243      1.866
REMARK  Name = 
REMARK  12 active torsions:
REMARK  status: ('A' for Active; 'I' for Inactive)
REMARK    1  A    between atoms: C_1  and  C_2
REMARK    2  A    between atoms: C_2  and  O_3
REMARK    3  A    between atoms: O_3  and  C_4
REMARK    4  A    between atoms: C_4  and  C_5
REMARK    5  A    between atoms: C_5  and  C_6
REMARK    6  A    between atoms: C_6  and  N_7
REMARK    7  A    between atoms: N_10  and  C_11
REMARK    8  A    between atoms: C_11  and  C_12
REMARK    9  A    between atoms: C_11  and  C_19
REMARK   10  A    between atoms: C_12  and  C_13
REMARK   11  A    between atoms: C_19  and  O_21
REMARK   12  A    between atoms: O_21  and  C_22
REMARK                            x       y       z     vdW  Elec       q    Type
REMARK                         _______ _______ _______ _____ _____    ______ ____
ROOT
ATOM      1  N   UNL     1       6.928   4.119  14.421  0.00  0.00    +0.000 N 
ATOM      2  C   UNL     1       5.988   4.623  15.275  0.00  0.00    +0.000 C 
ATOM      3  O   UNL     1       5.534   5.760  15.218  0.00  0.00    +0.000 OA
ATOM      4  N   UNL     1       5.564   3.720  16.208  0.00  0.00    +0.000 N 
ATOM      5  H   UNL     1       6.896   3.118  14.281  0.00  0.00    +0.000 HD
ATOM      6  H   UNL     1       6.271   3.065  16.527  0.00  0.00    +0.000 HD
ENDROOT
BRANCH   1   7
ATOM      7  C   UNL     1       7.368   4.932  13.291  0.00  0.00    +0.000 C 
BRANCH   7   8
ATOM      8  C   UNL     1       7.056   4.290  11.936  0.00  0.00    +0.000 C 
BRANCH   8   9
ATOM      9  C   UNL     1       6.099   3.110  12.105  0.00  0.00    +0.000 C 
BRANCH   9  10
ATOM     10  O   UNL     1       4.762   3.600  12.089  0.00  0.00    +0.000 OA
BRANCH  10  12
ATOM     11  C   UNL     1       3.358   3.988  10.208  0.00  0.00    +0.000 C 
ATOM     12  C   UNL     1       3.943   2.938  11.132  0.00  0.00    +0.000 C 
ENDBRANCH  10  12
ENDBRANCH   9  10
ENDBRANCH   8   9
ENDBRANCH   7   8
ENDBRANCH   1   7
BRANCH   4  13
ATOM     13  C   UNL     1       4.585   4.129  17.229  0.00  0.00    +0.000 C 
BRANCH  13  14
ATOM     14  C   UNL     1       5.290   4.800  18.404  0.00  0.00    +0.000 C 
ATOM     15  O   UNL     1       6.369   4.441  18.859  0.00  0.00    +0.000 OA
BRANCH  14  16
ATOM     16  O   UNL     1       4.579   5.881  18.845  0.00  0.00    +0.000 OA
ATOM     17  C   UNL     1       3.874   6.588  17.823  0.00  0.00    +0.000 C 
ENDBRANCH  14  16
ENDBRANCH  13  14
BRANCH  13  18
ATOM     18  C   UNL     1       3.669   2.987  17.697  0.00  0.00    +0.000 C 
BRANCH  18  19
ATOM     19  C   UNL     1       2.911   3.187  18.992  0.00  0.00    +0.000 A 
ATOM     20  C   UNL     1       1.669   3.843  19.014  0.00  0.00    +0.000 A 
ATOM     21  C   UNL     1       0.881   3.830  20.167  0.00  0.00    +0.000 A 
ATOM     22  C   UNL     1       1.340   3.196  21.320  0.00  0.00    +0.000 A 
ATOM     23  C   UNL     1       2.605   2.612  21.332  0.00  0.00    +0.000 A 
ATOM     24  C   UNL     1       3.387   2.609  20.176  0.00  0.00    +0.000 A 
ENDBRANCH  18  19
ENDBRANCH  13  18
ENDBRANCH   4  13
TORSDOF 10
ENDMDL
MODEL 4
REMARK VINA RESULT:      -6.7      1.538      2.345
REMARK  Name = 
REMARK  12 active torsions:
REMARK  status: ('A' for Active; 'I' for Inactive)
REMARK    1  A    between atoms: C_1  and  C_2
REMARK    2  A    between atoms: C_2  and  O_3
REMARK    3  A    between atoms: O_3  and  C_4
REMARK    4  A    between atoms: C_4  and  C_5
REMARK    5  A    between atoms: C_5  and  C_6
REMARK    6  A    between atoms: C_6  and  N_7
REMARK    7  A    between atoms: N_10  and  C_11
REMARK    8  A    between atoms: C_11  and  C_12
REMARK    9  A    between atoms: C_11  and  C_19
REMARK   10  A    between atoms: C_12  and  C_13
REMARK   11  A    between atoms: C_19  and  O_21
REMARK   12  A    between atoms: O_21  and  C_22
REMARK                            x       y       z     vdW  Elec       q    Type
REMARK                         _______ _______ _______ _____ _____    ______ ____
ROOT
ATOM      1  N   UNL     1       5.720   3.906  14.583  0.00  0.00    +0.000 N 
ATOM      2  C   UNL     1       5.866   4.919  15.490  0.00  0.00    +0.000 C 
ATOM      3  O   UNL     1       5.948   6.106  15.200  0.00  0.00    +0.000 OA
ATOM      4  N   UNL     1       5.886   4.486  16.785  0.00  0.00    +0.000 N 
ATOM      5  H   UNL     1       5.241   3.083  14.924  0.00  0.00    +0.000 HD
ATOM      6  H   UNL     1       6.319   3.580  16.931  0.00  0.00    +0.000 HD
ENDROOT
BRANCH   1   7
ATOM      7  C   UNL     1       5.546   4.238  13.173  0.00  0.00    +0.000 C 
BRANCH   7   8
ATOM      8  C   UNL     1       6.017   3.124  12.234  0.00  0.00    +0.000 C 
BRANCH   8   9
ATOM      9  C   UNL     1       4.848   2.578  11.414  0.00  0.00    +0.000 C 
BRANCH   9  10
ATOM     10  O   UNL     1       3.994   3.661  11.060  0.00  0.00    +0.000 OA
BRANCH  10  12
ATOM     11  C   UNL     1       2.705   4.609   9.299  0.00  0.00    +0.000 C 
ATOM     12  C   UNL     1       3.084   3.329  10.018  0.00  0.00    +0.000 C 
ENDBRANCH  10  12
ENDBRANCH   9  10
ENDBRANCH   8   9
ENDBRANCH   7   8
ENDBRANCH   1   7
BRANCH   4  13
ATOM     13  C   UNL     1       6.084   5.456  17.876  0.00  0.00    +0.000 C 
BRANCH  13  14
ATOM     14  C   UNL     1       7.544   5.472  18.316  0.00  0.00    +0.000 C 
ATOM     15  O   UNL     1       8.267   4.483  18.352  0.00  0.00    +0.000 OA
BRANCH  14  16
ATOM     16  O   UNL     1       7.949   6.743  18.617  0.00  0.00    +0.000 OA
ATOM     17  C   UNL     1       7.663   7.713  17.608  0.00  0.00    +0.000 C 
ENDBRANCH  14  16
ENDBRANCH  13  14
BRANCH  13  18
ATOM     18  C   UNL     1       5.137   5.244  19.068  0.00  0.00    +0.000 C 
BRANCH  18  19
ATOM     19  C   UNL     1       3.916   4.377  18.844  0.00  0.00    +0.000 A 
ATOM     20  C   UNL     1       2.745   4.904  18.277  0.00  0.00    +0.000 A 
ATOM     21  C   UNL     1       1.709   4.057  17.875  0.00  0.00    +0.000 A 
ATOM     22  C   UNL     1       1.816   2.681  18.070  0.00  0.00    +0.000 A 
ATOM     23  C   UNL     1       2.940   2.157  18.705  0.00  0.00    +0.000 A 
ATOM     24  C   UNL     1       3.983   3.000  19.092  0.00  0.00    +0.000 A 
ENDBRANCH  18  19
ENDBRANCH  13  18
ENDBRANCH   4  13
TORSDOF 10
ENDMDL
MODEL 5
REMARK VINA RESULT:      -6.7      0.468      1.128
REMARK  Name = 
REMARK  12 active torsions:
REMARK  status: ('A' for Active; 'I' for Inactive)
REMARK    1  A    between atoms: C_1  and  C_2
REMARK    2  A    between atoms: C_2  and  O_3
REMARK    3  A    between atoms: O_3  and  C_4
REMARK    4  A    between atoms: C_4  and  C_5
REMARK    5  A    between atoms: C_5  and  C_6
REMARK    6  A    between atoms: C_6  and  N_7
REMARK    7  A    between atoms: N_10  and  C_11
REMARK    8  A    between atoms: C_11  and  C_12
REMARK    9  A    between atoms: C_11  and  C_19
REMARK   10  A    between atoms: C_12  and  C_13
REMARK   11  A    between atoms: C_19  and  O_21
REMARK   12  A    between atoms: O_21  and  C_22
REMARK                            x       y       z     vdW  Elec       q    Type
REMARK                         _______ _______ _______ _____ _____    ______ ____
ROOT
ATOM      1  N   UNL     1       5.784   4.402  14.352  0.00  0.00    +0.000 N 
ATOM      2  C   UNL     1       5.773   5.187  15.472  0.00  0.00    +0.000 C 
ATOM      3  O   UNL     1       6.613   6.040  15.732  0.00  0.00    +0.000 OA
ATOM      4  N   UNL     1       4.702   4.952  16.286  0.00  0.00    +0.000 N 
ATOM      5  H   UNL     1       4.878   4.084  14.036  0.00  0.00    +0.000 HD
ATOM      6  H   UNL     1       4.382   3.989  16.312  0.00  0.00    +0.000 HD
ENDROOT
BRANCH   1   7
ATOM      7  C   UNL     1       6.797   4.643  13.329  0.00  0.00    +0.000 C 
BRANCH   7   8
ATOM      8  C   UNL     1       6.737   3.632  12.180  0.00  0.00    +0.000 C 
BRANCH   8   9
ATOM      9  C   UNL     1       5.375   2.940  12.140  0.00  0.00    +0.000 C 
BRANCH   9  10
ATOM     10  O   UNL     1       4.437   3.814  11.519  0.00  0.00    +0.000 OA
BRANCH  10  12
ATOM     11  C   UNL     1       2.898   4.109   9.729  0.00  0.00    +0.000 C 
ATOM     12  C   UNL     1       3.483   3.123  10.721  0.00  0.00    +0.000 C 
ENDBRANCH  10  12
ENDBRANCH   9  10
ENDBRANCH   8   9
ENDBRANCH   7   8
ENDBRANCH   1   7
BRANCH   4  13
ATOM     13  C   UNL     1       4.575   5.687  17.556  0.00  0.00    +0.000 C 
BRANCH  13  14
ATOM     14  C   UNL     1       5.278   4.934  18.681  0.00  0.00    +0.000 C 
ATOM     15  O   UNL     1       5.827   5.472  19.636  0.00  0.00    +0.000 OA
BRANCH  14  16
ATOM     16  O   UNL     1       5.170   3.583  18.504  0.00  0.00    +0.000 OA
ATOM     17  C   UNL     1       4.742   2.863  19.661  0.00  0.00    +0.000 C 
ENDBRANCH  14  16
ENDBRANCH  13  14
BRANCH  13  18
ATOM     18  C   UNL     1       3.123   6.029  17.927  0.00  0.00    +0.000 C 
BRANCH  18  19
ATOM     19  C   UNL     1       2.325   4.976  18.665  0.00  0.00    +0.000 A 
ATOM     20  C   UNL     1       2.022   5.117  20.029  0.00  0.00    +0.000 A 
ATOM     21  C   UNL     1       1.108   4.258  20.644  0.00  0.00    +0.000 A 
ATOM     22  C   UNL     1       0.517   3.228  19.914  0.00  0.00    +0.000 A 
ATOM     23  C   UNL     1       0.872   3.031  18.582  0.00  0.00    +0.000 A 
ATOM     24  C   UNL     1       1.772   3.899  17.961  0.00  0.00    +0.000 A 
ENDBRANCH  18  19
ENDBRANCH  13  18
ENDBRANCH   4  13
TORSDOF 10
ENDMDL
MODEL 6
REMARK VINA RESULT:      -6.7      4.746      7.024
REMARK  Name = 
REMARK  12 active torsions:
REMARK  status: ('A' for Active; 'I' for Inactive)
REMARK    1  A    between atoms: C_1  and  C_2
REMARK    2  A    between atoms: C_2  and  O_3
REMARK    3  A    between atoms: O_3  and  C_4
REMARK    4  A    between atoms: C_4  and  C_5
REMARK    5  A    between atoms: C_5  and  C_6
REMARK    6  A    between atoms: C_6  and  N_7
REMARK    7  A    between atoms: N_10  and  C_11
REMARK    8  A    between atoms: C_11  and  C_12
REMARK    9  A    between atoms: C_11  and  C_19
REMARK   10  A    between atoms: C_12  and  C_13
REMARK   11  A    between atoms: C_19  and  O_21
REMARK   12  A    between atoms: O_21  and  C_22
REMARK                            x       y       z     vdW  Elec       q    Type
REMARK                         _______ _______ _______ _____ _____    ______ ____
ROOT
ATOM      1  N   UNL     1       7.919   9.030  17.711  0.00  0.00    +0.000 N 
ATOM      2  C   UNL     1       7.635   7.705  17.891  0.00  0.00    +0.000 C 
ATOM      3  O   UNL     1       8.184   6.980  18.712  0.00  0.00    +0.000 OA
ATOM      4  N   UNL     1       6.640   7.249  17.073  0.00  0.00    +0.000 N 
ATOM      5  H   UNL     1       7.157   9.594  17.361  0.00  0.00    +0.000 HD
ATOM      6  H   UNL     1       6.607   7.677  16.153  0.00  0.00    +0.000 HD
ENDROOT
BRANCH   1   7
ATOM      7  C   UNL     1       8.865   9.679  18.612  0.00  0.00    +0.000 C 
BRANCH   7   8
ATOM      8  C   UNL     1       9.322  11.053  18.111  0.00  0.00    +0.000 C 
BRANCH   8   9
ATOM      9  C   UNL     1      10.695  11.408  18.681  0.00  0.00    +0.000 C 
BRANCH   9  10
ATOM     10  O   UNL     1      11.465  12.035  17.660  0.00  0.00    +0.000 OA
BRANCH  10  12
ATOM     11  C   UNL     1      11.443  14.410  17.804  0.00  0.00    +0.000 C 
ATOM     12  C   UNL     1      10.836  13.196  17.129  0.00  0.00    +0.000 C 
ENDBRANCH  10  12
ENDBRANCH   9  10
ENDBRANCH   8   9
ENDBRANCH   7   8
ENDBRANCH   1   7
BRANCH   4  13
ATOM     13  C   UNL     1       6.252   5.830  17.116  0.00  0.00    +0.000 C 
BRANCH  13  14
ATOM     14  C   UNL     1       7.078   5.021  16.121  0.00  0.00    +0.000 C 
ATOM     15  O   UNL     1       7.903   4.171  16.436  0.00  0.00    +0.000 OA
BRANCH  14  16
ATOM     16  O   UNL     1       6.738   5.336  14.835  0.00  0.00    +0.000 OA
ATOM     17  C   UNL     1       6.448   4.212  14.003  0.00  0.00    +0.000 C 
ENDBRANCH  14  16
ENDBRANCH  13  14
BRANCH  13  18
ATOM     18  C   UNL     1       4.745   5.596  16.920  0.00  0.00    +0.000 C 
BRANCH  18  19
ATOM     19  C   UNL     1       4.120   4.424  17.647  0.00  0.00    +0.000 A 
ATOM     20  C   UNL     1       3.046   3.712  17.088  0.00  0.00    +0.000 A 
ATOM     21  C   UNL     1       2.622   2.508  17.657  0.00  0.00    +0.000 A 
ATOM     22  C   UNL     1       3.240   2.023  18.808  0.00  0.00    +0.000 A 
ATOM     23  C   UNL     1       4.253   2.763  19.414  0.00  0.00    +0.000 A 
ATOM     24  C   UNL     1       4.689   3.957  18.838  0.00  0.00    +0.000 A 
ENDBRANCH  18  19
ENDBRANCH  13  18
ENDBRANCH   4  13
TORSDOF 10
ENDMDL
MODEL 7
REMARK VINA RESULT:      -6.6      4.436      7.000
REMARK  Name = 
REMARK  12 active torsions:
REMARK  status: ('A' for Active; 'I' for Inactive)
REMARK    1  A    between atoms: C_1  and  C_2
REMARK    2  A    between atoms: C_2  and  O_3
REMARK    3  A    between atoms: O_3  and  C_4
REMARK    4  A    between atoms: C_4  and  C_5
REMARK    5  A    between atoms: C_5  and  C_6
REMARK    6  A    between atoms: C_6  and  N_7
REMARK    7  A    between atoms: N_10  and  C_11
REMARK    8  A    between atoms: C_11  and  C_12
REMARK    9  A    between atoms: C_11  and  C_19
REMARK   10  A    between atoms: C_12  and  C_13
REMARK   11  A    between atoms: C_19  and  O_21
REMARK   12  A    between atoms: O_21  and  C_22
REMARK                            x       y       z     vdW  Elec       q    Type
REMARK                         _______ _______ _______ _____ _____    ______ ____
ROOT
ATOM      1  N   UNL     1       7.882   8.553  17.384  0.00  0.00    +0.000 N 
ATOM      2  C   UNL     1       7.473   7.258  17.536  0.00  0.00    +0.000 C 
ATOM      3  O   UNL     1       7.746   6.549  18.496  0.00  0.00    +0.000 OA
ATOM      4  N   UNL     1       6.688   6.815  16.509  0.00  0.00    +0.000 N 
ATOM      5  H   UNL     1       7.273   9.139  16.830  0.00  0.00    +0.000 HD
ATOM      6  H   UNL     1       6.918   7.193  15.595  0.00  0.00    +0.000 HD
ENDROOT
BRANCH   1   7
ATOM      7  C   UNL     1       8.611   9.197  18.472  0.00  0.00    +0.000 C 
BRANCH   7   8
ATOM      8  C   UNL     1       9.025  10.635  18.146  0.00  0.00    +0.000 C 
BRANCH   8   9
ATOM      9  C   UNL     1       9.671  11.301  19.360  0.00  0.00    +0.000 C 
BRANCH   9  10
ATOM     10  O   UNL     1      10.523  12.349  18.907  0.00  0.00    +0.000 OA
BRANCH  10  12
ATOM     11  C   UNL     1      11.301  13.346  16.892  0.00  0.00    +0.000 C 
ATOM     12  C   UNL     1      10.079  12.933  17.688  0.00  0.00    +0.000 C 
ENDBRANCH  10  12
ENDBRANCH   9  10
ENDBRANCH   8   9
ENDBRANCH   7   8
ENDBRANCH   1   7
BRANCH   4  13
ATOM     13  C   UNL     1       6.208   5.423  16.505  0.00  0.00    +0.000 C 
BRANCH  13  14
ATOM     14  C   UNL     1       6.650   4.709  15.232  0.00  0.00    +0.000 C 
ATOM     15  O   UNL     1       6.151   3.672  14.812  0.00  0.00    +0.000 OA
BRANCH  14  16
ATOM     16  O   UNL     1       7.641   5.408  14.601  0.00  0.00    +0.000 OA
ATOM     17  C   UNL     1       7.797   5.099  13.215  0.00  0.00    +0.000 C 
ENDBRANCH  14  16
ENDBRANCH  13  14
BRANCH  13  18
ATOM     18  C   UNL     1       4.692   5.295  16.726  0.00  0.00    +0.000 C 
BRANCH  18  19
ATOM     19  C   UNL     1       4.202   4.114  17.539  0.00  0.00    +0.000 A 
ATOM     20  C   UNL     1       4.804   3.774  18.762  0.00  0.00    +0.000 A 
ATOM     21  C   UNL     1       4.212   2.829  19.603  0.00  0.00    +0.000 A 
ATOM     22  C   UNL     1       3.037   2.187  19.217  0.00  0.00    +0.000 A 
ATOM     23  C   UNL     1       2.477   2.460  17.970  0.00  0.00    +0.000 A 
ATOM     24  C   UNL     1       3.057   3.416  17.136  0.00  0.00    +0.000 A 
ENDBRANCH  18  19
ENDBRANCH  13  18
ENDBRANCH   4  13
TORSDOF 10
ENDMDL
MODEL 8
REMARK VINA RESULT:      -6.4      1.645      2.439
REMARK  Name = 
REMARK  12 active torsions:
REMARK  status: ('A' for Active; 'I' for Inactive)
REMARK    1  A    between atoms: C_1  and  C_2
REMARK    2  A    between atoms: C_2  and  O_3
REMARK    3  A    between atoms: O_3  and  C_4
REMARK    4  A    between atoms: C_4  and  C_5
REMARK    5  A    between atoms: C_5  and  C_6
REMARK    6  A    between atoms: C_6  and  N_7
REMARK    7  A    between atoms: N_10  and  C_11
REMARK    8  A    between atoms: C_11  and  C_12
REMARK    9  A    between atoms: C_11  and  C_19
REMARK   10  A    between atoms: C_12  and  C_13
REMARK   11  A    between atoms: C_19  and  O_21
REMARK   12  A    between atoms: O_21  and  C_22
REMARK                            x       y       z     vdW  Elec       q    Type
REMARK                         _______ _______ _______ _____ _____    ______ ____
ROOT
ATOM      1  N   UNL     1       6.584   3.697  14.839  0.00  0.00    +0.000 N 
ATOM      2  C   UNL     1       6.347   4.765  15.658  0.00  0.00    +0.000 C 
ATOM      3  O   UNL     1       6.039   5.885  15.270  0.00  0.00    +0.000 OA
ATOM      4  N   UNL     1       6.459   4.463  16.986  0.00  0.00    +0.000 N 
ATOM      5  H   UNL     1       6.394   2.789  15.241  0.00  0.00    +0.000 HD
ATOM      6  H   UNL     1       7.163   3.769  17.213  0.00  0.00    +0.000 HD
ENDROOT
BRANCH   1   7
ATOM      7  C   UNL     1       6.365   3.844  13.403  0.00  0.00    +0.000 C 
BRANCH   7   8
ATOM      8  C   UNL     1       4.902   3.638  12.998  0.00  0.00    +0.000 C 
BRANCH   8   9
ATOM      9  C   UNL     1       4.792   3.346  11.502  0.00  0.00    +0.000 C 
BRANCH   9  10
ATOM     10  O   UNL     1       3.488   2.841  11.230  0.00  0.00    +0.000 OA
BRANCH  10  12
ATOM     11  C   UNL     1       2.884   4.465   9.600  0.00  0.00    +0.000 C 
ATOM     12  C   UNL     1       3.112   2.990   9.866  0.00  0.00    +0.000 C 
ENDBRANCH  10  12
ENDBRANCH   9  10
ENDBRANCH   8   9
ENDBRANCH   7   8
ENDBRANCH   1   7
BRANCH   4  13
ATOM     13  C   UNL     1       6.277   5.522  17.993  0.00  0.00    +0.000 C 
BRANCH  13  14
ATOM     14  C   UNL     1       7.608   5.860  18.657  0.00  0.00    +0.000 C 
ATOM     15  O   UNL     1       8.134   5.185  19.534  0.00  0.00    +0.000 OA
BRANCH  14  16
ATOM     16  O   UNL     1       8.155   6.986  18.107  0.00  0.00    +0.000 OA
ATOM     17  C   UNL     1       7.203   7.936  17.625  0.00  0.00    +0.000 C 
ENDBRANCH  14  16
ENDBRANCH  13  14
BRANCH  13  18
ATOM     18  C   UNL     1       5.192   5.202  19.034  0.00  0.00    +0.000 C 
BRANCH  18  19
ATOM     19  C   UNL     1       4.068   4.281  18.610  0.00  0.00    +0.000 A 
ATOM     20  C   UNL     1       4.006   2.953  19.063  0.00  0.00    +0.000 A 
ATOM     21  C   UNL     1       2.860   2.184  18.847  0.00  0.00    +0.000 A 
ATOM     22  C   UNL     1       1.782   2.718  18.145  0.00  0.00    +0.000 A 
ATOM     23  C   UNL     1       1.866   4.007  17.623  0.00  0.00    +0.000 A 
ATOM     24  C   UNL     1       3.003   4.783  17.852  0.00  0.00    +0.000 A 
ENDBRANCH  18  19
ENDBRANCH  13  18
ENDBRANCH   4  13
TORSDOF 10
ENDMDL
MODEL 9
REMARK VINA RESULT:      -6.4      1.393      1.915
REMARK  Name = 
REMARK  12 active torsions:
REMARK  status: ('A' for Active; 'I' for Inactive)
REMARK    1  A    between atoms: C_1  and  C_2
REMARK    2  A    between atoms: C_2  and  O_3
REMARK    3  A    between atoms: O_3  and  C_4
REMARK    4  A    between atoms: C_4  and  C_5
REMARK    5  A    between atoms: C_5  and  C_6
REMARK    6  A    between atoms: C_6  and  N_7
REMARK    7  A    between atoms: N_10  and  C_11
REMARK    8  A    between atoms: C_11  and  C_12
REMARK    9  A    between atoms: C_11  and  C_19
REMARK   10  A    between atoms: C_12  and  C_13
REMARK   11  A    between atoms: C_19  and  O_21
REMARK   12  A    between atoms: O_21  and  C_22
REMARK                            x       y       z     vdW  Elec       q    Type
REMARK                         _______ _______ _______ _____ _____    ______ ____
ROOT
ATOM      1  N   UNL     1       7.086   4.172  14.368  0.00  0.00    +0.000 N 
ATOM      2  C   UNL     1       6.117   4.666  15.195  0.00  0.00    +0.000 C 
ATOM      3  O   UNL     1       5.653   5.797  15.127  0.00  0.00    +0.000 OA
ATOM      4  N   UNL     1       5.676   3.756  16.115  0.00  0.00    +0.000 N 
ATOM      5  H   UNL     1       7.068   3.171  14.226  0.00  0.00    +0.000 HD
ATOM      6  H   UNL     1       6.380   3.108  16.453  0.00  0.00    +0.000 HD
ENDROOT
BRANCH   1   7
ATOM      7  C   UNL     1       7.549   4.991  13.252  0.00  0.00    +0.000 C 
BRANCH   7   8
ATOM      8  C   UNL     1       7.026   4.505  11.896  0.00  0.00    +0.000 C 
BRANCH   8   9
ATOM      9  C   UNL     1       6.965   2.978  11.857  0.00  0.00    +0.000 C 
BRANCH   9  10
ATOM     10  O   UNL     1       5.604   2.572  11.966  0.00  0.00    +0.000 OA
BRANCH  10  12
ATOM     11  C   UNL     1       3.550   3.040  10.861  0.00  0.00    +0.000 C 
ATOM     12  C   UNL     1       4.690   3.622  11.674  0.00  0.00    +0.000 C 
ENDBRANCH  10  12
ENDBRANCH   9  10
ENDBRANCH   8   9
ENDBRANCH   7   8
ENDBRANCH   1   7
BRANCH   4  13
ATOM     13  C   UNL     1       4.664   4.155  17.108  0.00  0.00    +0.000 C 
BRANCH  13  14
ATOM     14  C   UNL     1       5.319   4.899  18.267  0.00  0.00    +0.000 C 
ATOM     15  O   UNL     1       4.794   5.819  18.883  0.00  0.00    +0.000 OA
BRANCH  14  16
ATOM     16  O   UNL     1       6.546   4.370  18.555  0.00  0.00    +0.000 OA
ATOM     17  C   UNL     1       7.602   5.328  18.641  0.00  0.00    +0.000 C 
ENDBRANCH  14  16
ENDBRANCH  13  14
BRANCH  13  18
ATOM     18  C   UNL     1       3.797   2.987  17.605  0.00  0.00    +0.000 C 
BRANCH  18  19
ATOM     19  C   UNL     1       3.010   3.197  18.882  0.00  0.00    +0.000 A 
ATOM     20  C   UNL     1       1.750   3.817  18.867  0.00  0.00    +0.000 A 
ATOM     21  C   UNL     1       0.943   3.809  20.007  0.00  0.00    +0.000 A 
ATOM     22  C   UNL     1       1.400   3.216  21.183  0.00  0.00    +0.000 A 
ATOM     23  C   UNL     1       2.680   2.670  21.230  0.00  0.00    +0.000 A 
ATOM     24  C   UNL     1       3.482   2.661  20.088  0.00  0.00    +0.000 A 
ENDBRANCH  18  19
ENDBRANCH  13  18
ENDBRANCH   4  13
TORSDOF 10
ENDMDL
