MODEL 1
REMARK VINA RESULT:      -7.1      0.000      0.000
REMARK  Name = 
REMARK  7 active torsions:
REMARK  status: ('A' for Active; 'I' for Inactive)
REMARK    1  A    between atoms: C_1  and  C_2
REMARK    2  A    between atoms: C_2  and  C_3
REMARK    3  A    between atoms: C_5  and  C_6
REMARK    4  A    between atoms: N_8  and  C_9
REMARK    5  A    between atoms: C_9  and  C_10
REMARK    6  A    between atoms: C_16  and  C_17
REMARK    7  A    between atoms: C_16  and  C_18
REMARK                            x       y       z     vdW  Elec       q    Type
REMARK                         _______ _______ _______ _____ _____    ______ ____
ROOT
ATOM      1  C   UNL     1       5.511   4.365  18.452  0.00  0.00    +0.000 C 
ATOM      2  O   UNL     1       6.359   4.704  19.265  0.00  0.00    +0.000 OA
ATOM      3  N   UNL     1       5.681   4.425  17.091  0.00  0.00    +0.000 N 
ATOM      4  H   UNL     1       4.913   4.201  16.476  0.00  0.00    +0.000 HD
ENDROOT
BRANCH   1   9
ATOM      5  C   UNL     1       1.216   4.609  20.566  0.00  0.00    +0.000 C 
ATOM      6  C   UNL     1       1.890   3.868  19.404  0.00  0.00    +0.000 C 
ATOM      7  C   UNL     1       0.867   3.603  18.296  0.00  0.00    +0.000 C 
ATOM      8  C   UNL     1       3.057   4.650  18.898  0.00  0.00    +0.000 C 
ATOM      9  C   UNL     1       4.169   3.904  18.879  0.00  0.00    +0.000 C 
ATOM     10  C   UNL     1       3.860   2.493  19.304  0.00  0.00    +0.000 C 
ATOM     11  C   UNL     1       4.797   1.938  20.387  0.00  0.00    +0.000 C 
ATOM     12  C   UNL     1       3.814   1.512  18.122  0.00  0.00    +0.000 C 
ATOM     13  N   UNL     1       2.471   2.584  19.868  0.00  0.00    +0.000 NA
ATOM     14  H   UNL     1       2.545   2.612  20.885  0.00  0.00    +0.000 HD
ENDBRANCH   1   9
BRANCH   3  15
ATOM     15  C   UNL     1       6.917   4.829  16.457  0.00  0.00    +0.000 C 
BRANCH  15  16
ATOM     16  C   UNL     1       6.869   4.591  14.966  0.00  0.00    +0.000 A 
ATOM     17  C   UNL     1       5.926   3.719  14.399  0.00  0.00    +0.000 A 
ATOM     18  C   UNL     1       5.881   3.522  13.016  0.00  0.00    +0.000 A 
ATOM     19  C   UNL     1       6.776   4.192  12.184  0.00  0.00    +0.000 A 
ATOM     20  C   UNL     1       7.714   5.064  12.734  0.00  0.00    +0.000 A 
ATOM     21  C   UNL     1       7.760   5.263  14.115  0.00  0.00    +0.000 A 
ENDBRANCH  15  16
ENDBRANCH   3  15
TORSDOF 3
ENDMDL
MODEL 2
REMARK VINA RESULT:      -7.1      0.228      1.128
REMARK  Name = 
REMARK  7 active torsions:
REMARK  status: ('A' for Active; 'I' for Inactive)
REMARK    1  A    between atoms: C_1  and  C_2
REMARK    2  A    between atoms: C_2  and  C_3
REMARK    3  A    between atoms: C_5  and  C_6
REMARK    4  A    between atoms: N_8  and  C_9
REMARK    5  A    between atoms: C_9  and  C_10
REMARK    6  A    between atoms: C_16  and  C_17
REMARK    7  A    between atoms: C_16  and  C_18
REMARK                            x       y       z     vdW  Elec       q    Type
REMARK                         _______ _______ _______ _____ _____    ______ ____
ROOT
ATOM      1  C   UNL     1       5.506   4.355  18.268  0.00  0.00    +0.000 C 
ATOM      2  O   UNL     1       6.472   4.412  19.015  0.00  0.00    +0.000 OA
ATOM      3  N   UNL     1       5.529   4.733  16.949  0.00  0.00    +0.000 N 
ATOM      4  H   UNL     1       4.676   4.732  16.408  0.00  0.00    +0.000 HD
ENDROOT
BRANCH   1   9
ATOM      5  C   UNL     1       1.300   4.693  20.543  0.00  0.00    +0.000 C 
ATOM      6  C   UNL     1       1.919   3.924  19.369  0.00  0.00    +0.000 C 
ATOM      7  C   UNL     1       0.850   3.654  18.306  0.00  0.00    +0.000 C 
ATOM      8  C   UNL     1       3.075   4.681  18.804  0.00  0.00    +0.000 C 
ATOM      9  C   UNL     1       4.176   3.920  18.755  0.00  0.00    +0.000 C 
ATOM     10  C   UNL     1       3.866   2.520  19.215  0.00  0.00    +0.000 C 
ATOM     11  C   UNL     1       4.837   1.971  20.270  0.00  0.00    +0.000 C 
ATOM     12  C   UNL     1       3.761   1.521  18.053  0.00  0.00    +0.000 C 
ATOM     13  N   UNL     1       2.501   2.640  19.832  0.00  0.00    +0.000 NA
ATOM     14  H   UNL     1       2.615   2.684  20.844  0.00  0.00    +0.000 HD
ENDBRANCH   1   9
BRANCH   3  15
ATOM     15  C   UNL     1       6.725   5.173  16.263  0.00  0.00    +0.000 C 
BRANCH  15  16
ATOM     16  C   UNL     1       6.703   4.765  14.810  0.00  0.00    +0.000 A 
ATOM     17  C   UNL     1       7.653   5.258  13.901  0.00  0.00    +0.000 A 
ATOM     18  C   UNL     1       7.631   4.858  12.562  0.00  0.00    +0.000 A 
ATOM     19  C   UNL     1       6.662   3.962  12.115  0.00  0.00    +0.000 A 
ATOM     20  C   UNL     1       5.715   3.461  13.007  0.00  0.00    +0.000 A 
ATOM     21  C   UNL     1       5.736   3.859  14.346  0.00  0.00    +0.000 A 
ENDBRANCH  15  16
ENDBRANCH   3  15
TORSDOF 3
ENDMDL
MODEL 3
REMARK VINA RESULT:      -7.1      4.002      7.632
REMARK  Name = 
REMARK  7 active torsions:
REMARK  status: ('A' for Active; 'I' for Inactive)
REMARK    1  A    between atoms: C_1  and  C_2
REMARK    2  A    between atoms: C_2  and  C_3
REMARK    3  A    between atoms: C_5  and  C_6
REMARK    4  A    between atoms: N_8  and  C_9
REMARK    5  A    between atoms: C_9  and  C_10
REMARK    6  A    between atoms: C_16  and  C_17
REMARK    7  A    between atoms: C_16  and  C_18
REMARK                            x       y       z     vdW  Elec       q    Type
REMARK                         _______ _______ _______ _____ _____    ______ ____
ROOT
ATOM      1  C   UNL     1       2.454   6.931  18.931  0.00  0.00    +0.000 C 
ATOM      2  O   UNL     1       2.903   7.391  17.891  0.00  0.00    +0.000 OA
ATOM      3  N   UNL     1       1.821   7.678  19.894  0.00  0.00    +0.000 N 
ATOM      4  H   UNL     1       1.542   7.248  20.763  0.00  0.00    +0.000 HD
ENDROOT
BRANCH   1   9
ATOM      5  C   UNL     1       2.178   2.973  21.620  0.00  0.00    +0.000 C 
ATOM      6  C   UNL     1       2.227   3.359  20.136  0.00  0.00    +0.000 C 
ATOM      7  C   UNL     1       1.415   2.355  19.313  0.00  0.00    +0.000 C 
ATOM      8  C   UNL     1       1.727   4.753  19.946  0.00  0.00    +0.000 C 
ATOM      9  C   UNL     1       2.616   5.500  19.277  0.00  0.00    +0.000 C 
ATOM     10  C   UNL     1       3.798   4.663  18.866  0.00  0.00    +0.000 C 
ATOM     11  C   UNL     1       5.161   5.278  19.216  0.00  0.00    +0.000 C 
ATOM     12  C   UNL     1       3.776   4.293  17.375  0.00  0.00    +0.000 C 
ATOM     13  N   UNL     1       3.627   3.392  19.649  0.00  0.00    +0.000 NA
ATOM     14  H   UNL     1       4.249   3.433  20.456  0.00  0.00    +0.000 HD
ENDBRANCH   1   9
BRANCH   3  15
ATOM     15  C   UNL     1       1.541   9.090  19.754  0.00  0.00    +0.000 C 
BRANCH  15  16
ATOM     16  C   UNL     1       0.700   9.596  20.902  0.00  0.00    +0.000 A 
ATOM     17  C   UNL     1       0.746   8.981  22.163  0.00  0.00    +0.000 A 
ATOM     18  C   UNL     1      -0.024   9.470  23.222  0.00  0.00    +0.000 A 
ATOM     19  C   UNL     1      -0.848  10.578  23.034  0.00  0.00    +0.000 A 
ATOM     20  C   UNL     1      -0.900  11.201  21.788  0.00  0.00    +0.000 A 
ATOM     21  C   UNL     1      -0.130  10.714  20.730  0.00  0.00    +0.000 A 
ENDBRANCH  15  16
ENDBRANCH   3  15
TORSDOF 3
ENDMDL
MODEL 4
REMARK VINA RESULT:      -7.1      4.040      7.702
REMARK  Name = 
REMARK  7 active torsions:
REMARK  status: ('A' for Active; 'I' for Inactive)
REMARK    1  A    between atoms: C_1  and  C_2
REMARK    2  A    between atoms: C_2  and  C_3
REMARK    3  A    between atoms: C_5  and  C_6
REMARK    4  A    between atoms: N_8  and  C_9
REMARK    5  A    between atoms: C_9  and  C_10
REMARK    6  A    between atoms: C_16  and  C_17
REMARK    7  A    between atoms: C_16  and  C_18
REMARK                            x       y       z     vdW  Elec       q    Type
REMARK                         _______ _______ _______ _____ _____    ______ ____
ROOT
ATOM      1  C   UNL     1       2.395   6.988  18.978  0.00  0.00    +0.000 C 
ATOM      2  O   UNL     1       2.812   7.437  17.921  0.00  0.00    +0.000 OA
ATOM      3  N   UNL     1       1.813   7.748  19.963  0.00  0.00    +0.000 N 
ATOM      4  H   UNL     1       1.559   7.325  20.843  0.00  0.00    +0.000 HD
ENDROOT
BRANCH   1   9
ATOM      5  C   UNL     1       2.105   3.032  21.670  0.00  0.00    +0.000 C 
ATOM      6  C   UNL     1       2.135   3.418  20.185  0.00  0.00    +0.000 C 
ATOM      7  C   UNL     1       1.295   2.427  19.375  0.00  0.00    +0.000 C 
ATOM      8  C   UNL     1       1.653   4.820  20.005  0.00  0.00    +0.000 C 
ATOM      9  C   UNL     1       2.541   5.554  19.321  0.00  0.00    +0.000 C 
ATOM     10  C   UNL     1       3.704   4.700  18.890  0.00  0.00    +0.000 C 
ATOM     11  C   UNL     1       5.081   5.295  19.218  0.00  0.00    +0.000 C 
ATOM     12  C   UNL     1       3.652   4.332  17.400  0.00  0.00    +0.000 C 
ATOM     13  N   UNL     1       3.527   3.431  19.675  0.00  0.00    +0.000 NA
ATOM     14  H   UNL     1       4.163   3.462  20.472  0.00  0.00    +0.000 HD
ENDBRANCH   1   9
BRANCH   3  15
ATOM     15  C   UNL     1       1.556   9.166  19.831  0.00  0.00    +0.000 C 
BRANCH  15  16
ATOM     16  C   UNL     1       0.700   9.673  20.967  0.00  0.00    +0.000 A 
ATOM     17  C   UNL     1      -0.197  10.737  20.783  0.00  0.00    +0.000 A 
ATOM     18  C   UNL     1      -0.996  11.185  21.838  0.00  0.00    +0.000 A 
ATOM     19  C   UNL     1      -0.911  10.575  23.088  0.00  0.00    +0.000 A 
ATOM     20  C   UNL     1      -0.029   9.514  23.284  0.00  0.00    +0.000 A 
ATOM     21  C   UNL     1       0.771   9.065  22.230  0.00  0.00    +0.000 A 
ENDBRANCH  15  16
ENDBRANCH   3  15
TORSDOF 3
ENDMDL
MODEL 5
REMARK VINA RESULT:      -7.0      0.964      1.263
REMARK  Name = 
REMARK  7 active torsions:
REMARK  status: ('A' for Active; 'I' for Inactive)
REMARK    1  A    between atoms: C_1  and  C_2
REMARK    2  A    between atoms: C_2  and  C_3
REMARK    3  A    between atoms: C_5  and  C_6
REMARK    4  A    between atoms: N_8  and  C_9
REMARK    5  A    between atoms: C_9  and  C_10
REMARK    6  A    between atoms: C_16  and  C_17
REMARK    7  A    between atoms: C_16  and  C_18
REMARK                            x       y       z     vdW  Elec       q    Type
REMARK                         _______ _______ _______ _____ _____    ______ ____
ROOT
ATOM      1  C   UNL     1       5.287   4.398  18.516  0.00  0.00    +0.000 C 
ATOM      2  O   UNL     1       6.295   4.441  19.206  0.00  0.00    +0.000 OA
ATOM      3  N   UNL     1       5.215   4.862  17.226  0.00  0.00    +0.000 N 
ATOM      4  H   UNL     1       4.331   4.865  16.738  0.00  0.00    +0.000 HD
ENDROOT
BRANCH   1   9
ATOM      5  C   UNL     1       2.136   2.956  21.828  0.00  0.00    +0.000 C 
ATOM      6  C   UNL     1       2.133   3.552  20.414  0.00  0.00    +0.000 C 
ATOM      7  C   UNL     1       0.902   4.444  20.231  0.00  0.00    +0.000 C 
ATOM      8  C   UNL     1       3.397   4.307  20.167  0.00  0.00    +0.000 C 
ATOM      9  C   UNL     1       4.004   3.883  19.051  0.00  0.00    +0.000 C 
ATOM     10  C   UNL     1       3.169   2.834  18.366  0.00  0.00    +0.000 C 
ATOM     11  C   UNL     1       3.939   1.563  17.981  0.00  0.00    +0.000 C 
ATOM     12  C   UNL     1       2.430   3.373  17.132  0.00  0.00    +0.000 C 
ATOM     13  N   UNL     1       2.131   2.477  19.393  0.00  0.00    +0.000 NA
ATOM     14  H   UNL     1       2.416   1.606  19.839  0.00  0.00    +0.000 HD
ENDBRANCH   1   9
BRANCH   3  15
ATOM     15  C   UNL     1       6.351   5.390  16.502  0.00  0.00    +0.000 C 
BRANCH  15  16
ATOM     16  C   UNL     1       6.392   4.860  15.088  0.00  0.00    +0.000 A 
ATOM     17  C   UNL     1       5.385   4.011  14.600  0.00  0.00    +0.000 A 
ATOM     18  C   UNL     1       5.426   3.542  13.285  0.00  0.00    +0.000 A 
ATOM     19  C   UNL     1       6.470   3.915  12.441  0.00  0.00    +0.000 A 
ATOM     20  C   UNL     1       7.474   4.760  12.911  0.00  0.00    +0.000 A 
ATOM     21  C   UNL     1       7.434   5.231  14.225  0.00  0.00    +0.000 A 
ENDBRANCH  15  16
ENDBRANCH   3  15
TORSDOF 3
ENDMDL
MODEL 6
REMARK VINA RESULT:      -7.0      1.065      1.741
REMARK  Name = 
REMARK  7 active torsions:
REMARK  status: ('A' for Active; 'I' for Inactive)
REMARK    1  A    between atoms: C_1  and  C_2
REMARK    2  A    between atoms: C_2  and  C_3
REMARK    3  A    between atoms: C_5  and  C_6
REMARK    4  A    between atoms: N_8  and  C_9
REMARK    5  A    between atoms: C_9  and  C_10
REMARK    6  A    between atoms: C_16  and  C_17
REMARK    7  A    between atoms: C_16  and  C_18
REMARK                            x       y       z     vdW  Elec       q    Type
REMARK                         _______ _______ _______ _____ _____    ______ ____
ROOT
ATOM      1  C   UNL     1       5.149   4.347  18.480  0.00  0.00    +0.000 C 
ATOM      2  O   UNL     1       6.235   4.078  18.970  0.00  0.00    +0.000 OA
ATOM      3  N   UNL     1       4.974   5.179  17.402  0.00  0.00    +0.000 N 
ATOM      4  H   UNL     1       4.043   5.419  17.094  0.00  0.00    +0.000 HD
ENDROOT
BRANCH   1   9
ATOM      5  C   UNL     1       2.101   2.967  21.913  0.00  0.00    +0.000 C 
ATOM      6  C   UNL     1       2.055   3.518  20.482  0.00  0.00    +0.000 C 
ATOM      7  C   UNL     1       0.807   4.386  20.301  0.00  0.00    +0.000 C 
ATOM      8  C   UNL     1       3.302   4.282  20.180  0.00  0.00    +0.000 C 
ATOM      9  C   UNL     1       3.887   3.831  19.062  0.00  0.00    +0.000 C 
ATOM     10  C   UNL     1       3.051   2.749  18.432  0.00  0.00    +0.000 C 
ATOM     11  C   UNL     1       3.830   1.477  18.068  0.00  0.00    +0.000 C 
ATOM     12  C   UNL     1       2.275   3.239  17.200  0.00  0.00    +0.000 C 
ATOM     13  N   UNL     1       2.044   2.411  19.495  0.00  0.00    +0.000 NA
ATOM     14  H   UNL     1       2.353   1.558  19.962  0.00  0.00    +0.000 HD
ENDBRANCH   1   9
BRANCH   3  15
ATOM     15  C   UNL     1       6.069   5.778  16.669  0.00  0.00    +0.000 C 
BRANCH  15  16
ATOM     16  C   UNL     1       6.220   5.151  15.304  0.00  0.00    +0.000 A 
ATOM     17  C   UNL     1       7.359   5.387  14.517  0.00  0.00    +0.000 A 
ATOM     18  C   UNL     1       7.493   4.785  13.263  0.00  0.00    +0.000 A 
ATOM     19  C   UNL     1       6.494   3.942  12.780  0.00  0.00    +0.000 A 
ATOM     20  C   UNL     1       5.361   3.696  13.552  0.00  0.00    +0.000 A 
ATOM     21  C   UNL     1       5.225   4.296  14.807  0.00  0.00    +0.000 A 
ENDBRANCH  15  16
ENDBRANCH   3  15
TORSDOF 3
ENDMDL
MODEL 7
REMARK VINA RESULT:      -7.0      3.431      6.706
REMARK  Name = 
REMARK  7 active torsions:
REMARK  status: ('A' for Active; 'I' for Inactive)
REMARK    1  A    between atoms: C_1  and  C_2
REMARK    2  A    between atoms: C_2  and  C_3
REMARK    3  A    between atoms: C_5  and  C_6
REMARK    4  A    between atoms: N_8  and  C_9
REMARK    5  A    between atoms: C_9  and  C_10
REMARK    6  A    between atoms: C_16  and  C_17
REMARK    7  A    between atoms: C_16  and  C_18
REMARK                            x       y       z     vdW  Elec       q    Type
REMARK                         _______ _______ _______ _____ _____    ______ ____
ROOT
ATOM      1  C   UNL     1       3.720   6.525  17.805  0.00  0.00    +0.000 C 
ATOM      2  O   UNL     1       4.396   7.080  16.951  0.00  0.00    +0.000 OA
ATOM      3  N   UNL     1       2.671   7.117  18.464  0.00  0.00    +0.000 N 
ATOM      4  H   UNL     1       2.203   6.627  19.212  0.00  0.00    +0.000 HD
ENDROOT
BRANCH   1   9
ATOM      5  C   UNL     1       3.328   2.553  20.460  0.00  0.00    +0.000 C 
ATOM      6  C   UNL     1       3.783   2.961  19.052  0.00  0.00    +0.000 C 
ATOM      7  C   UNL     1       3.485   1.829  18.064  0.00  0.00    +0.000 C 
ATOM      8  C   UNL     1       3.122   4.235  18.642  0.00  0.00    +0.000 C 
ATOM      9  C   UNL     1       4.024   5.147  18.257  0.00  0.00    +0.000 C 
ATOM     10  C   UNL     1       5.410   4.559  18.290  0.00  0.00    +0.000 C 
ATOM     11  C   UNL     1       6.445   5.421  19.028  0.00  0.00    +0.000 C 
ATOM     12  C   UNL     1       5.943   4.211  16.892  0.00  0.00    +0.000 C 
ATOM     13  N   UNL     1       5.234   3.269  19.040  0.00  0.00    +0.000 NA
ATOM     14  H   UNL     1       5.541   3.418  20.001  0.00  0.00    +0.000 HD
ENDBRANCH   1   9
BRANCH   3  15
ATOM     15  C   UNL     1       2.192   8.450  18.169  0.00  0.00    +0.000 C 
BRANCH  15  16
ATOM     16  C   UNL     1       1.348   8.989  19.298  0.00  0.00    +0.000 A 
ATOM     17  C   UNL     1       0.492  10.086  19.108  0.00  0.00    +0.000 A 
ATOM     18  C   UNL     1      -0.297  10.564  20.157  0.00  0.00    +0.000 A 
ATOM     19  C   UNL     1      -0.242   9.953  21.409  0.00  0.00    +0.000 A 
ATOM     20  C   UNL     1       0.600   8.860  21.611  0.00  0.00    +0.000 A 
ATOM     21  C   UNL     1       1.389   8.381  20.562  0.00  0.00    +0.000 A 
ENDBRANCH  15  16
ENDBRANCH   3  15
TORSDOF 3
ENDMDL
MODEL 8
REMARK VINA RESULT:      -7.0      3.432      6.756
REMARK  Name = 
REMARK  7 active torsions:
REMARK  status: ('A' for Active; 'I' for Inactive)
REMARK    1  A    between atoms: C_1  and  C_2
REMARK    2  A    between atoms: C_2  and  C_3
REMARK    3  A    between atoms: C_5  and  C_6
REMARK    4  A    between atoms: N_8  and  C_9
REMARK    5  A    between atoms: C_9  and  C_10
REMARK    6  A    between atoms: C_16  and  C_17
REMARK    7  A    between atoms: C_16  and  C_18
REMARK                            x       y       z     vdW  Elec       q    Type
REMARK                         _______ _______ _______ _____ _____    ______ ____
ROOT
ATOM      1  C   UNL     1       3.645   6.522  17.922  0.00  0.00    +0.000 C 
ATOM      2  O   UNL     1       4.307   7.095  17.069  0.00  0.00    +0.000 OA
ATOM      3  N   UNL     1       2.597   7.096  18.599  0.00  0.00    +0.000 N 
ATOM      4  H   UNL     1       2.140   6.593  19.345  0.00  0.00    +0.000 HD
ENDROOT
BRANCH   1   9
ATOM      5  C   UNL     1       3.326   2.519  20.541  0.00  0.00    +0.000 C 
ATOM      6  C   UNL     1       3.752   2.945  19.129  0.00  0.00    +0.000 C 
ATOM      7  C   UNL     1       3.441   1.823  18.135  0.00  0.00    +0.000 C 
ATOM      8  C   UNL     1       3.075   4.219  18.746  0.00  0.00    +0.000 C 
ATOM      9  C   UNL     1       3.965   5.141  18.353  0.00  0.00    +0.000 C 
ATOM     10  C   UNL     1       5.354   4.561  18.354  0.00  0.00    +0.000 C 
ATOM     11  C   UNL     1       6.399   5.420  19.080  0.00  0.00    +0.000 C 
ATOM     12  C   UNL     1       5.862   4.231  16.942  0.00  0.00    +0.000 C 
ATOM     13  N   UNL     1       5.200   3.261  19.093  0.00  0.00    +0.000 NA
ATOM     14  H   UNL     1       5.525   3.402  20.049  0.00  0.00    +0.000 HD
ENDBRANCH   1   9
BRANCH   3  15
ATOM     15  C   UNL     1       2.104   8.429  18.326  0.00  0.00    +0.000 C 
BRANCH  15  16
ATOM     16  C   UNL     1       1.285   8.955  19.480  0.00  0.00    +0.000 A 
ATOM     17  C   UNL     1       1.366   8.371  20.755  0.00  0.00    +0.000 A 
ATOM     18  C   UNL     1       0.616   8.880  21.819  0.00  0.00    +0.000 A 
ATOM     19  C   UNL     1      -0.221   9.977  21.624  0.00  0.00    +0.000 A 
ATOM     20  C   UNL     1      -0.307  10.569  20.365  0.00  0.00    +0.000 A 
ATOM     21  C   UNL     1       0.442  10.062  19.301  0.00  0.00    +0.000 A 
ENDBRANCH  15  16
ENDBRANCH   3  15
TORSDOF 3
ENDMDL
MODEL 9
REMARK VINA RESULT:      -7.0      6.430      8.654
REMARK  Name = 
REMARK  7 active torsions:
REMARK  status: ('A' for Active; 'I' for Inactive)
REMARK    1  A    between atoms: C_1  and  C_2
REMARK    2  A    between atoms: C_2  and  C_3
REMARK    3  A    between atoms: C_5  and  C_6
REMARK    4  A    between atoms: N_8  and  C_9
REMARK    5  A    between atoms: C_9  and  C_10
REMARK    6  A    between atoms: C_16  and  C_17
REMARK    7  A    between atoms: C_16  and  C_18
REMARK                            x       y       z     vdW  Elec       q    Type
REMARK                         _______ _______ _______ _____ _____    ______ ____
ROOT
ATOM      1  C   UNL     1       0.609   9.940  18.742  0.00  0.00    +0.000 C 
ATOM      2  O   UNL     1       0.996  10.199  19.872  0.00  0.00    +0.000 OA
ATOM      3  N   UNL     1       1.303   9.162  17.849  0.00  0.00    +0.000 N 
ATOM      4  H   UNL     1       0.963   9.049  16.906  0.00  0.00    +0.000 HD
ENDROOT
BRANCH   1   9
ATOM      5  C   UNL     1      -2.833  10.806  15.521  0.00  0.00    +0.000 C 
ATOM      6  C   UNL     1      -2.665  10.755  17.045  0.00  0.00    +0.000 C 
ATOM      7  C   UNL     1      -3.969  10.283  17.694  0.00  0.00    +0.000 C 
ATOM      8  C   UNL     1      -1.519   9.871  17.411  0.00  0.00    +0.000 C 
ATOM      9  C   UNL     1      -0.649  10.510  18.205  0.00  0.00    +0.000 C 
ATOM     10  C   UNL     1      -1.154  11.890  18.532  0.00  0.00    +0.000 C 
ATOM     11  C   UNL     1      -0.125  13.009  18.314  0.00  0.00    +0.000 C 
ATOM     12  C   UNL     1      -1.723  11.994  19.956  0.00  0.00    +0.000 C 
ATOM     13  N   UNL     1      -2.295  12.090  17.575  0.00  0.00    +0.000 NA
ATOM     14  H   UNL     1      -1.960  12.664  16.802  0.00  0.00    +0.000 HD
ENDBRANCH   1   9
BRANCH   3  15
ATOM     15  C   UNL     1       2.545   8.492  18.169  0.00  0.00    +0.000 C 
BRANCH  15  16
ATOM     16  C   UNL     1       2.294   7.101  18.701  0.00  0.00    +0.000 A 
ATOM     17  C   UNL     1       2.287   5.986  17.847  0.00  0.00    +0.000 A 
ATOM     18  C   UNL     1       2.070   4.703  18.355  0.00  0.00    +0.000 A 
ATOM     19  C   UNL     1       1.859   4.516  19.720  0.00  0.00    +0.000 A 
ATOM     20  C   UNL     1       1.867   5.614  20.579  0.00  0.00    +0.000 A 
ATOM     21  C   UNL     1       2.085   6.897  20.074  0.00  0.00    +0.000 A 
ENDBRANCH  15  16
ENDBRANCH   3  15
TORSDOF 3
ENDMDL
