MODEL 1
REMARK VINA RESULT:      -6.8      0.000      0.000
REMARK  Name = 
REMARK  5 active torsions:
REMARK  status: ('A' for Active; 'I' for Inactive)
REMARK    1  A    between atoms: C_1  and  C_2
REMARK    2  A    between atoms: N_4  and  C_5
REMARK    3  A    between atoms: N_12  and  N_13
REMARK    4  A    between atoms: N_13  and  C_14
REMARK    5  A    between atoms: C_14  and  N_15
REMARK                            x       y       z     vdW  Elec       q    Type
REMARK                         _______ _______ _______ _____ _____    ______ ____
ROOT
ATOM      1  C   UNL     1       4.643   4.146  16.749  0.00  0.00    +0.000 A 
ATOM      2  C   UNL     1       4.667   2.859  17.291  0.00  0.00    +0.000 A 
ATOM      3  C   UNL     1       3.986   2.572  18.467  0.00  0.00    +0.000 A 
ATOM      4  C   UNL     1       3.267   3.578  19.112  0.00  0.00    +0.000 A 
ATOM      5  C   UNL     1       3.253   4.891  18.632  0.00  0.00    +0.000 A 
ATOM      6  C   UNL     1       3.974   5.170  17.449  0.00  0.00    +0.000 A 
ATOM      7  C   UNL     1       2.456   5.990  19.301  0.00  0.00    +0.000 C 
ATOM      8  N   UNL     1       2.700   7.233  18.983  0.00  0.00    +0.000 NA
ATOM      9  C   UNL     1       1.383   5.544  20.291  0.00  0.00    +0.000 C 
ATOM     10  C   UNL     1       1.973   4.620  21.326  0.00  0.00    +0.000 C 
ATOM     11  S   UNL     1       2.402   3.094  20.567  0.00  0.00    +0.000 S 
ATOM     12  O   UNL     1       3.353   2.426  21.432  0.00  0.00    +0.000 OA
ATOM     13  O   UNL     1       1.181   2.448  20.128  0.00  0.00    +0.000 OA
ENDROOT
BRANCH   1  17
ATOM     14  C   UNL     1       6.976   4.963  13.890  0.00  0.00    +0.000 C 
ATOM     15  C   UNL     1       6.622   4.625  15.313  0.00  0.00    +0.000 C 
ATOM     16  O   UNL     1       7.506   4.521  16.159  0.00  0.00    +0.000 OA
ATOM     17  N   UNL     1       5.258   4.442  15.510  0.00  0.00    +0.000 N 
ATOM     18  H   UNL     1       4.679   4.381  14.683  0.00  0.00    +0.000 HD
ENDBRANCH   1  17
BRANCH   8  19
ATOM     19  N   UNL     1       1.948   8.223  19.560  0.00  0.00    +0.000 N 
ATOM     20  H   UNL     1       1.717   8.223  20.543  0.00  0.00    +0.000 HD
BRANCH  19  21
ATOM     21  C   UNL     1       1.411   9.259  18.857  0.00  0.00    +0.000 C 
ATOM     22  S   UNL     1       0.196  10.195  19.493  0.00  0.00    +0.000 S 
BRANCH  21  23
ATOM     23  N   UNL     1       1.910   9.486  17.626  0.00  0.00    +0.000 N 
ATOM     24  H   UNL     1       2.322   8.705  17.132  0.00  0.00    +0.000 HD
ATOM     25  H   UNL     1       1.841  10.396  17.197  0.00  0.00    +0.000 HD
ENDBRANCH  21  23
ENDBRANCH  19  21
ENDBRANCH   8  19
TORSDOF 4
ENDMDL
MODEL 2
REMARK VINA RESULT:      -6.8      2.789      5.906
REMARK  Name = 
REMARK  5 active torsions:
REMARK  status: ('A' for Active; 'I' for Inactive)
REMARK    1  A    between atoms: C_1  and  C_2
REMARK    2  A    between atoms: N_4  and  C_5
REMARK    3  A    between atoms: N_12  and  N_13
REMARK    4  A    between atoms: N_13  and  C_14
REMARK    5  A    between atoms: C_14  and  N_15
REMARK                            x       y       z     vdW  Elec       q    Type
REMARK                         _______ _______ _______ _____ _____    ______ ____
ROOT
ATOM      1  C   UNL     1       1.897   6.682  20.390  0.00  0.00    +0.000 A 
ATOM      2  C   UNL     1       1.103   5.630  20.851  0.00  0.00    +0.000 A 
ATOM      3  C   UNL     1       1.194   4.368  20.277  0.00  0.00    +0.000 A 
ATOM      4  C   UNL     1       2.090   4.148  19.230  0.00  0.00    +0.000 A 
ATOM      5  C   UNL     1       2.870   5.183  18.705  0.00  0.00    +0.000 A 
ATOM      6  C   UNL     1       2.744   6.466  19.285  0.00  0.00    +0.000 A 
ATOM      7  C   UNL     1       3.869   4.959  17.591  0.00  0.00    +0.000 C 
ATOM      8  N   UNL     1       4.355   5.993  16.959  0.00  0.00    +0.000 NA
ATOM      9  C   UNL     1       4.261   3.510  17.311  0.00  0.00    +0.000 C 
ATOM     10  C   UNL     1       3.032   2.665  17.092  0.00  0.00    +0.000 C 
ATOM     11  S   UNL     1       2.158   2.503  18.609  0.00  0.00    +0.000 S 
ATOM     12  O   UNL     1       0.801   2.104  18.294  0.00  0.00    +0.000 OA
ATOM     13  O   UNL     1       2.985   1.746  19.528  0.00  0.00    +0.000 OA
ENDROOT
BRANCH   1  17
ATOM     14  C   UNL     1       1.043   9.975  22.038  0.00  0.00    +0.000 C 
ATOM     15  C   UNL     1       0.745   8.626  21.441  0.00  0.00    +0.000 C 
ATOM     16  O   UNL     1      -0.412   8.220  21.385  0.00  0.00    +0.000 OA
ATOM     17  N   UNL     1       1.883   7.952  21.014  0.00  0.00    +0.000 N 
ATOM     18  H   UNL     1       2.776   8.336  21.294  0.00  0.00    +0.000 HD
ENDBRANCH   1  17
BRANCH   8  19
ATOM     19  N   UNL     1       5.290   5.789  15.978  0.00  0.00    +0.000 N 
ATOM     20  H   UNL     1       5.041   5.480  15.049  0.00  0.00    +0.000 HD
BRANCH  19  21
ATOM     21  C   UNL     1       6.629   5.936  16.179  0.00  0.00    +0.000 C 
ATOM     22  S   UNL     1       7.219   6.781  17.480  0.00  0.00    +0.000 S 
BRANCH  21  23
ATOM     23  N   UNL     1       7.448   5.367  15.272  0.00  0.00    +0.000 N 
ATOM     24  H   UNL     1       7.830   5.956  14.545  0.00  0.00    +0.000 HD
ATOM     25  H   UNL     1       7.701   4.392  15.339  0.00  0.00    +0.000 HD
ENDBRANCH  21  23
ENDBRANCH  19  21
ENDBRANCH   8  19
TORSDOF 4
ENDMDL
MODEL 3
REMARK VINA RESULT:      -6.8      2.497      5.564
REMARK  Name = 
REMARK  5 active torsions:
REMARK  status: ('A' for Active; 'I' for Inactive)
REMARK    1  A    between atoms: C_1  and  C_2
REMARK    2  A    between atoms: N_4  and  C_5
REMARK    3  A    between atoms: N_12  and  N_13
REMARK    4  A    between atoms: N_13  and  C_14
REMARK    5  A    between atoms: C_14  and  N_15
REMARK                            x       y       z     vdW  Elec       q    Type
REMARK                         _______ _______ _______ _____ _____    ______ ____
ROOT
ATOM      1  C   UNL     1       1.885   7.239  19.902  0.00  0.00    +0.000 A 
ATOM      2  C   UNL     1       1.237   6.308  20.715  0.00  0.00    +0.000 A 
ATOM      3  C   UNL     1       1.511   4.951  20.598  0.00  0.00    +0.000 A 
ATOM      4  C   UNL     1       2.445   4.513  19.659  0.00  0.00    +0.000 A 
ATOM      5  C   UNL     1       3.083   5.405  18.791  0.00  0.00    +0.000 A 
ATOM      6  C   UNL     1       2.772   6.778  18.908  0.00  0.00    +0.000 A 
ATOM      7  C   UNL     1       4.121   4.954  17.786  0.00  0.00    +0.000 C 
ATOM      8  N   UNL     1       4.470   5.769  16.827  0.00  0.00    +0.000 NA
ATOM      9  C   UNL     1       4.713   3.564  17.999  0.00  0.00    +0.000 C 
ATOM     10  C   UNL     1       3.616   2.536  18.117  0.00  0.00    +0.000 C 
ATOM     11  S   UNL     1       2.749   2.780  19.627  0.00  0.00    +0.000 S 
ATOM     12  O   UNL     1       1.466   2.119  19.508  0.00  0.00    +0.000 OA
ATOM     13  O   UNL     1       3.658   2.498  20.720  0.00  0.00    +0.000 OA
ENDROOT
BRANCH   1  17
ATOM     14  C   UNL     1       1.138  10.926  19.532  0.00  0.00    +0.000 C 
ATOM     15  C   UNL     1       1.210   9.492  19.079  0.00  0.00    +0.000 C 
ATOM     16  O   UNL     1       0.852   9.186  17.946  0.00  0.00    +0.000 OA
ATOM     17  N   UNL     1       1.687   8.631  20.061  0.00  0.00    +0.000 N 
ATOM     18  H   UNL     1       1.767   9.003  20.998  0.00  0.00    +0.000 HD
ENDBRANCH   1  17
BRANCH   8  19
ATOM     19  N   UNL     1       5.439   5.373  15.943  0.00  0.00    +0.000 N 
ATOM     20  H   UNL     1       5.245   4.755  15.169  0.00  0.00    +0.000 HD
BRANCH  19  21
ATOM     21  C   UNL     1       6.748   5.736  16.056  0.00  0.00    +0.000 C 
ATOM     22  S   UNL     1       7.281   6.656  17.330  0.00  0.00    +0.000 S 
BRANCH  21  23
ATOM     23  N   UNL     1       7.583   5.316  15.086  0.00  0.00    +0.000 N 
ATOM     24  H   UNL     1       8.577   5.363  15.265  0.00  0.00    +0.000 HD
ATOM     25  H   UNL     1       7.227   4.932  14.223  0.00  0.00    +0.000 HD
ENDBRANCH  21  23
ENDBRANCH  19  21
ENDBRANCH   8  19
TORSDOF 4
ENDMDL
MODEL 4
REMARK VINA RESULT:      -6.8      2.603      5.574
REMARK  Name = 
REMARK  5 active torsions:
REMARK  status: ('A' for Active; 'I' for Inactive)
REMARK    1  A    between atoms: C_1  and  C_2
REMARK    2  A    between atoms: N_4  and  C_5
REMARK    3  A    between atoms: N_12  and  N_13
REMARK    4  A    between atoms: N_13  and  C_14
REMARK    5  A    between atoms: C_14  and  N_15
REMARK                            x       y       z     vdW  Elec       q    Type
REMARK                         _______ _______ _______ _____ _____    ______ ____
ROOT
ATOM      1  C   UNL     1       2.245   7.279  19.535  0.00  0.00    +0.000 A 
ATOM      2  C   UNL     1       1.382   6.738  20.489  0.00  0.00    +0.000 A 
ATOM      3  C   UNL     1       1.400   5.378  20.773  0.00  0.00    +0.000 A 
ATOM      4  C   UNL     1       2.292   4.544  20.100  0.00  0.00    +0.000 A 
ATOM      5  C   UNL     1       3.142   5.033  19.103  0.00  0.00    +0.000 A 
ATOM      6  C   UNL     1       3.091   6.415  18.811  0.00  0.00    +0.000 A 
ATOM      7  C   UNL     1       4.138   4.151  18.383  0.00  0.00    +0.000 C 
ATOM      8  N   UNL     1       4.697   4.589  17.287  0.00  0.00    +0.000 NA
ATOM      9  C   UNL     1       4.442   2.801  19.029  0.00  0.00    +0.000 C 
ATOM     10  C   UNL     1       3.164   2.044  19.292  0.00  0.00    +0.000 C 
ATOM     11  S   UNL     1       2.264   2.848  20.570  0.00  0.00    +0.000 S 
ATOM     12  O   UNL     1       0.889   2.400  20.487  0.00  0.00    +0.000 OA
ATOM     13  O   UNL     1       3.030   2.745  21.796  0.00  0.00    +0.000 OA
ENDROOT
BRANCH   1  17
ATOM     14  C   UNL     1       1.933  10.812  18.230  0.00  0.00    +0.000 C 
ATOM     15  C   UNL     1       1.653   9.334  18.257  0.00  0.00    +0.000 C 
ATOM     16  O   UNL     1       0.899   8.835  17.425  0.00  0.00    +0.000 OA
ATOM     17  N   UNL     1       2.305   8.671  19.290  0.00  0.00    +0.000 N 
ATOM     18  H   UNL     1       2.742   9.245  19.999  0.00  0.00    +0.000 HD
ENDBRANCH   1  17
BRANCH   8  19
ATOM     19  N   UNL     1       5.628   3.805  16.660  0.00  0.00    +0.000 N 
ATOM     20  H   UNL     1       5.549   2.799  16.619  0.00  0.00    +0.000 HD
BRANCH  19  21
ATOM     21  C   UNL     1       6.758   4.301  16.082  0.00  0.00    +0.000 C 
ATOM     22  S   UNL     1       6.797   4.713  14.474  0.00  0.00    +0.000 S 
BRANCH  21  23
ATOM     23  N   UNL     1       7.838   4.440  16.876  0.00  0.00    +0.000 N 
ATOM     24  H   UNL     1       7.906   5.277  17.439  0.00  0.00    +0.000 HD
ATOM     25  H   UNL     1       8.538   3.715  16.934  0.00  0.00    +0.000 HD
ENDBRANCH  21  23
ENDBRANCH  19  21
ENDBRANCH   8  19
TORSDOF 4
ENDMDL
MODEL 5
REMARK VINA RESULT:      -6.7      3.732      4.981
REMARK  Name = 
REMARK  5 active torsions:
REMARK  status: ('A' for Active; 'I' for Inactive)
REMARK    1  A    between atoms: C_1  and  C_2
REMARK    2  A    between atoms: N_4  and  C_5
REMARK    3  A    between atoms: N_12  and  N_13
REMARK    4  A    between atoms: N_13  and  C_14
REMARK    5  A    between atoms: C_14  and  N_15
REMARK                            x       y       z     vdW  Elec       q    Type
REMARK                         _______ _______ _______ _____ _____    ______ ____
ROOT
ATOM      1  C   UNL     1       5.408   4.250  14.290  0.00  0.00    +0.000 A 
ATOM      2  C   UNL     1       6.714   4.741  14.335  0.00  0.00    +0.000 A 
ATOM      3  C   UNL     1       7.287   5.125  15.540  0.00  0.00    +0.000 A 
ATOM      4  C   UNL     1       6.551   5.019  16.720  0.00  0.00    +0.000 A 
ATOM      5  C   UNL     1       5.224   4.578  16.718  0.00  0.00    +0.000 A 
ATOM      6  C   UNL     1       4.650   4.215  15.478  0.00  0.00    +0.000 A 
ATOM      7  C   UNL     1       4.418   4.427  17.990  0.00  0.00    +0.000 C 
ATOM      8  N   UNL     1       3.122   4.286  17.906  0.00  0.00    +0.000 NA
ATOM      9  C   UNL     1       5.207   4.417  19.296  0.00  0.00    +0.000 C 
ATOM     10  C   UNL     1       6.099   5.630  19.382  0.00  0.00    +0.000 C 
ATOM     11  S   UNL     1       7.388   5.489  18.195  0.00  0.00    +0.000 S 
ATOM     12  O   UNL     1       7.932   6.814  17.978  0.00  0.00    +0.000 OA
ATOM     13  O   UNL     1       8.228   4.369  18.571  0.00  0.00    +0.000 OA
ENDROOT
BRANCH   1  17
ATOM     14  C   UNL     1       4.653   2.795  10.885  0.00  0.00    +0.000 C 
ATOM     15  C   UNL     1       5.530   3.167  12.049  0.00  0.00    +0.000 C 
ATOM     16  O   UNL     1       6.731   2.916  12.020  0.00  0.00    +0.000 OA
ATOM     17  N   UNL     1       4.833   3.773  13.089  0.00  0.00    +0.000 N 
ATOM     18  H   UNL     1       3.823   3.744  13.041  0.00  0.00    +0.000 HD
ENDBRANCH   1  17
BRANCH   8  19
ATOM     19  N   UNL     1       2.401   4.108  19.057  0.00  0.00    +0.000 N 
ATOM     20  H   UNL     1       2.133   4.879  19.652  0.00  0.00    +0.000 HD
BRANCH  19  21
ATOM     21  C   UNL     1       2.025   2.884  19.523  0.00  0.00    +0.000 C 
ATOM     22  S   UNL     1       1.702   2.635  21.132  0.00  0.00    +0.000 S 
BRANCH  21  23
ATOM     23  N   UNL     1       1.930   1.890  18.618  0.00  0.00    +0.000 N 
ATOM     24  H   UNL     1       2.784   1.555  18.193  0.00  0.00    +0.000 HD
ATOM     25  H   UNL     1       1.039   1.469  18.400  0.00  0.00    +0.000 HD
ENDBRANCH  21  23
ENDBRANCH  19  21
ENDBRANCH   8  19
TORSDOF 4
ENDMDL
MODEL 6
REMARK VINA RESULT:      -6.7      3.245      5.758
REMARK  Name = 
REMARK  5 active torsions:
REMARK  status: ('A' for Active; 'I' for Inactive)
REMARK    1  A    between atoms: C_1  and  C_2
REMARK    2  A    between atoms: N_4  and  C_5
REMARK    3  A    between atoms: N_12  and  N_13
REMARK    4  A    between atoms: N_13  and  C_14
REMARK    5  A    between atoms: C_14  and  N_15
REMARK                            x       y       z     vdW  Elec       q    Type
REMARK                         _______ _______ _______ _____ _____    ______ ____
ROOT
ATOM      1  C   UNL     1       1.803   6.216  20.505  0.00  0.00    +0.000 A 
ATOM      2  C   UNL     1       1.101   5.011  20.431  0.00  0.00    +0.000 A 
ATOM      3  C   UNL     1       1.574   3.959  19.658  0.00  0.00    +0.000 A 
ATOM      4  C   UNL     1       2.766   4.106  18.948  0.00  0.00    +0.000 A 
ATOM      5  C   UNL     1       3.478   5.310  18.954  0.00  0.00    +0.000 A 
ATOM      6  C   UNL     1       2.966   6.377  19.726  0.00  0.00    +0.000 A 
ATOM      7  C   UNL     1       4.788   5.479  18.215  0.00  0.00    +0.000 C 
ATOM      8  N   UNL     1       5.256   6.683  18.025  0.00  0.00    +0.000 NA
ATOM      9  C   UNL     1       5.489   4.198  17.771  0.00  0.00    +0.000 C 
ATOM     10  C   UNL     1       4.546   3.331  16.974  0.00  0.00    +0.000 C 
ATOM     11  S   UNL     1       3.299   2.696  18.039  0.00  0.00    +0.000 S 
ATOM     12  O   UNL     1       2.189   2.272  17.211  0.00  0.00    +0.000 OA
ATOM     13  O   UNL     1       3.930   1.803  18.991  0.00  0.00    +0.000 OA
ENDROOT
BRANCH   1  17
ATOM     14  C   UNL     1       0.716   9.478  22.073  0.00  0.00    +0.000 C 
ATOM     15  C   UNL     1       1.105   8.568  20.940  0.00  0.00    +0.000 C 
ATOM     16  O   UNL     1       1.135   8.995  19.790  0.00  0.00    +0.000 OA
ATOM     17  N   UNL     1       1.385   7.269  21.351  0.00  0.00    +0.000 N 
ATOM     18  H   UNL     1       1.140   7.027  22.302  0.00  0.00    +0.000 HD
ENDBRANCH   1  17
BRANCH   8  19
ATOM     19  N   UNL     1       6.463   6.831  17.392  0.00  0.00    +0.000 N 
ATOM     20  H   UNL     1       6.610   6.545  16.434  0.00  0.00    +0.000 HD
BRANCH  19  21
ATOM     21  C   UNL     1       7.573   7.329  18.005  0.00  0.00    +0.000 C 
ATOM     22  S   UNL     1       8.098   8.877  17.717  0.00  0.00    +0.000 S 
BRANCH  21  23
ATOM     23  N   UNL     1       8.223   6.505  18.851  0.00  0.00    +0.000 N 
ATOM     24  H   UNL     1       8.853   5.821  18.453  0.00  0.00    +0.000 HD
ATOM     25  H   UNL     1       8.112   6.594  19.850  0.00  0.00    +0.000 HD
ENDBRANCH  21  23
ENDBRANCH  19  21
ENDBRANCH   8  19
TORSDOF 4
ENDMDL
MODEL 7
REMARK VINA RESULT:      -6.6      4.003      5.188
REMARK  Name = 
REMARK  5 active torsions:
REMARK  status: ('A' for Active; 'I' for Inactive)
REMARK    1  A    between atoms: C_1  and  C_2
REMARK    2  A    between atoms: N_4  and  C_5
REMARK    3  A    between atoms: N_12  and  N_13
REMARK    4  A    between atoms: N_13  and  C_14
REMARK    5  A    between atoms: C_14  and  N_15
REMARK                            x       y       z     vdW  Elec       q    Type
REMARK                         _______ _______ _______ _____ _____    ______ ____
ROOT
ATOM      1  C   UNL     1       6.317   3.786  14.228  0.00  0.00    +0.000 A 
ATOM      2  C   UNL     1       7.080   4.954  14.278  0.00  0.00    +0.000 A 
ATOM      3  C   UNL     1       7.128   5.722  15.434  0.00  0.00    +0.000 A 
ATOM      4  C   UNL     1       6.407   5.322  16.559  0.00  0.00    +0.000 A 
ATOM      5  C   UNL     1       5.591   4.186  16.540  0.00  0.00    +0.000 A 
ATOM      6  C   UNL     1       5.536   3.432  15.346  0.00  0.00    +0.000 A 
ATOM      7  C   UNL     1       4.825   3.718  17.758  0.00  0.00    +0.000 C 
ATOM      8  N   UNL     1       3.876   2.833  17.609  0.00  0.00    +0.000 NA
ATOM      9  C   UNL     1       5.255   4.308  19.099  0.00  0.00    +0.000 C 
ATOM     10  C   UNL     1       5.266   5.815  19.032  0.00  0.00    +0.000 C 
ATOM     11  S   UNL     1       6.575   6.341  17.983  0.00  0.00    +0.000 S 
ATOM     12  O   UNL     1       6.290   7.702  17.576  0.00  0.00    +0.000 OA
ATOM     13  O   UNL     1       7.830   5.976  18.609  0.00  0.00    +0.000 OA
ENDROOT
BRANCH   1  17
ATOM     14  C   UNL     1       5.603   1.897  11.033  0.00  0.00    +0.000 C 
ATOM     15  C   UNL     1       5.345   2.926  12.100  0.00  0.00    +0.000 C 
ATOM     16  O   UNL     1       4.360   3.654  12.029  0.00  0.00    +0.000 OA
ATOM     17  N   UNL     1       6.320   2.943  13.092  0.00  0.00    +0.000 N 
ATOM     18  H   UNL     1       7.163   2.411  12.915  0.00  0.00    +0.000 HD
ENDBRANCH   1  17
BRANCH   8  19
ATOM     19  N   UNL     1       3.212   2.382  18.719  0.00  0.00    +0.000 N 
ATOM     20  H   UNL     1       3.646   1.774  19.399  0.00  0.00    +0.000 HD
BRANCH  19  21
ATOM     21  C   UNL     1       1.906   2.670  18.978  0.00  0.00    +0.000 C 
ATOM     22  S   UNL     1       1.473   4.026  19.833  0.00  0.00    +0.000 S 
BRANCH  21  23
ATOM     23  N   UNL     1       0.986   1.804  18.509  0.00  0.00    +0.000 N 
ATOM     24  H   UNL     1       0.046   2.147  18.360  0.00  0.00    +0.000 HD
ATOM     25  H   UNL     1       1.236   0.853  18.280  0.00  0.00    +0.000 HD
ENDBRANCH  21  23
ENDBRANCH  19  21
ENDBRANCH   8  19
TORSDOF 4
ENDMDL
MODEL 8
REMARK VINA RESULT:      -6.5      3.513      4.709
REMARK  Name = 
REMARK  5 active torsions:
REMARK  status: ('A' for Active; 'I' for Inactive)
REMARK    1  A    between atoms: C_1  and  C_2
REMARK    2  A    between atoms: N_4  and  C_5
REMARK    3  A    between atoms: N_12  and  N_13
REMARK    4  A    between atoms: N_13  and  C_14
REMARK    5  A    between atoms: C_14  and  N_15
REMARK                            x       y       z     vdW  Elec       q    Type
REMARK                         _______ _______ _______ _____ _____    ______ ____
ROOT
ATOM      1  C   UNL     1       5.383   4.257  14.301  0.00  0.00    +0.000 A 
ATOM      2  C   UNL     1       6.626   4.890  14.325  0.00  0.00    +0.000 A 
ATOM      3  C   UNL     1       7.216   5.253  15.529  0.00  0.00    +0.000 A 
ATOM      4  C   UNL     1       6.560   4.981  16.729  0.00  0.00    +0.000 A 
ATOM      5  C   UNL     1       5.291   4.391  16.753  0.00  0.00    +0.000 A 
ATOM      6  C   UNL     1       4.697   4.052  15.516  0.00  0.00    +0.000 A 
ATOM      7  C   UNL     1       4.576   4.060  18.044  0.00  0.00    +0.000 C 
ATOM      8  N   UNL     1       3.302   3.777  18.008  0.00  0.00    +0.000 NA
ATOM      9  C   UNL     1       5.429   4.050  19.310  0.00  0.00    +0.000 C 
ATOM     10  C   UNL     1       6.183   5.349  19.447  0.00  0.00    +0.000 C 
ATOM     11  S   UNL     1       7.416   5.440  18.196  0.00  0.00    +0.000 S 
ATOM     12  O   UNL     1       7.797   6.831  18.056  0.00  0.00    +0.000 OA
ATOM     13  O   UNL     1       8.394   4.401  18.449  0.00  0.00    +0.000 OA
ENDROOT
BRANCH   1  17
ATOM     14  C   UNL     1       4.605   2.826  10.890  0.00  0.00    +0.000 C 
ATOM     15  C   UNL     1       5.484   3.163  12.064  0.00  0.00    +0.000 C 
ATOM     16  O   UNL     1       6.673   2.860  12.050  0.00  0.00    +0.000 OA
ATOM     17  N   UNL     1       4.802   3.801  13.095  0.00  0.00    +0.000 N 
ATOM     18  H   UNL     1       3.792   3.817  13.035  0.00  0.00    +0.000 HD
ENDBRANCH   1  17
BRANCH   8  19
ATOM     19  N   UNL     1       2.666   3.437  19.173  0.00  0.00    +0.000 N 
ATOM     20  H   UNL     1       2.790   2.537  19.614  0.00  0.00    +0.000 HD
BRANCH  19  21
ATOM     21  C   UNL     1       1.782   4.257  19.809  0.00  0.00    +0.000 C 
ATOM     22  S   UNL     1       2.126   5.859  20.072  0.00  0.00    +0.000 S 
BRANCH  21  23
ATOM     23  N   UNL     1       0.622   3.705  20.214  0.00  0.00    +0.000 N 
ATOM     24  H   UNL     1      -0.082   3.517  19.512  0.00  0.00    +0.000 HD
ATOM     25  H   UNL     1       0.475   3.452  21.180  0.00  0.00    +0.000 HD
ENDBRANCH  21  23
ENDBRANCH  19  21
ENDBRANCH   8  19
TORSDOF 4
ENDMDL
MODEL 9
REMARK VINA RESULT:      -6.2      2.575      2.798
REMARK  Name = 
REMARK  5 active torsions:
REMARK  status: ('A' for Active; 'I' for Inactive)
REMARK    1  A    between atoms: C_1  and  C_2
REMARK    2  A    between atoms: N_4  and  C_5
REMARK    3  A    between atoms: N_12  and  N_13
REMARK    4  A    between atoms: N_13  and  C_14
REMARK    5  A    between atoms: C_14  and  N_15
REMARK                            x       y       z     vdW  Elec       q    Type
REMARK                         _______ _______ _______ _____ _____    ______ ____
ROOT
ATOM      1  C   UNL     1       5.787   6.333  17.381  0.00  0.00    +0.000 A 
ATOM      2  C   UNL     1       5.973   5.085  16.783  0.00  0.00    +0.000 A 
ATOM      3  C   UNL     1       5.069   4.054  16.998  0.00  0.00    +0.000 A 
ATOM      4  C   UNL     1       3.960   4.265  17.817  0.00  0.00    +0.000 A 
ATOM      5  C   UNL     1       3.758   5.483  18.475  0.00  0.00    +0.000 A 
ATOM      6  C   UNL     1       4.704   6.513  18.264  0.00  0.00    +0.000 A 
ATOM      7  C   UNL     1       2.547   5.744  19.344  0.00  0.00    +0.000 C 
ATOM      8  N   UNL     1       2.552   6.775  20.144  0.00  0.00    +0.000 NA
ATOM      9  C   UNL     1       1.378   4.775  19.186  0.00  0.00    +0.000 C 
ATOM     10  C   UNL     1       1.846   3.352  19.353  0.00  0.00    +0.000 C 
ATOM     11  S   UNL     1       2.854   2.907  17.983  0.00  0.00    +0.000 S 
ATOM     12  O   UNL     1       3.641   1.755  18.372  0.00  0.00    +0.000 OA
ATOM     13  O   UNL     1       2.024   2.901  16.794  0.00  0.00    +0.000 OA
ENDROOT
BRANCH   1  17
ATOM     14  C   UNL     1       8.474   8.991  17.339  0.00  0.00    +0.000 C 
ATOM     15  C   UNL     1       7.778   7.758  17.847  0.00  0.00    +0.000 C 
ATOM     16  O   UNL     1       8.231   7.149  18.812  0.00  0.00    +0.000 OA
ATOM     17  N   UNL     1       6.647   7.423  17.111  0.00  0.00    +0.000 N 
ATOM     18  H   UNL     1       6.507   7.914  16.237  0.00  0.00    +0.000 HD
ENDBRANCH   1  17
BRANCH   8  19
ATOM     19  N   UNL     1       1.438   7.031  20.899  0.00  0.00    +0.000 N 
ATOM     20  H   UNL     1       0.959   6.309  21.419  0.00  0.00    +0.000 HD
BRANCH  19  21
ATOM     21  C   UNL     1       0.854   8.260  20.979  0.00  0.00    +0.000 C 
ATOM     22  S   UNL     1      -0.146   8.660  22.242  0.00  0.00    +0.000 S 
BRANCH  21  23
ATOM     23  N   UNL     1       1.125   9.129  19.986  0.00  0.00    +0.000 N 
ATOM     24  H   UNL     1       1.493  10.036  20.239  0.00  0.00    +0.000 HD
ATOM     25  H   UNL     1       0.999   8.870  19.019  0.00  0.00    +0.000 HD
ENDBRANCH  21  23
ENDBRANCH  19  21
ENDBRANCH   8  19
TORSDOF 4
ENDMDL
