MODEL 1
REMARK VINA RESULT:      -6.6      0.000      0.000
REMARK  Name = 
REMARK  1 active torsions:
REMARK  status: ('A' for Active; 'I' for Inactive)
REMARK    1  A    between atoms: N_5  and  C_6
REMARK                            x       y       z     vdW  Elec       q    Type
REMARK                         _______ _______ _______ _____ _____    ______ ____
ROOT
ATOM      1  O   UNL     1       7.836   7.879  17.067  0.00  0.00    +0.000 OA
ATOM      2  C   UNL     1       7.049   7.018  17.421  0.00  0.00    +0.000 C 
ATOM      3  N   UNL     1       5.721   7.008  17.167  0.00  0.00    +0.000 N 
ATOM      4  C   UNL     1       4.953   6.060  17.773  0.00  0.00    +0.000 C 
ATOM      5  N   UNL     1       3.668   6.177  17.697  0.00  0.00    +0.000 NA
ATOM      6  C   UNL     1       5.795   5.011  18.449  0.00  0.00    +0.000 C 
ATOM      7  S   UNL     1       7.487   5.649  18.413  0.00  0.00    +0.000 S 
ATOM      8  H   UNL     1       5.290   7.787  16.693  0.00  0.00    +0.000 HD
ENDROOT
BRANCH   5   9
ATOM      9  C   UNL     1       2.776   5.346  18.396  0.00  0.00    +0.000 A 
ATOM     10  C   UNL     1       2.509   5.682  19.732  0.00  0.00    +0.000 A 
ATOM     11  C   UNL     1       1.681   4.884  20.526  0.00  0.00    +0.000 A 
ATOM     12  C   UNL     1       1.123   3.736  19.984  0.00  0.00    +0.000 A 
ATOM     13  F   UNL     1       0.363   2.942  20.749  0.00  0.00    +0.000 F 
ATOM     14  C   UNL     1       1.334   3.405  18.653  0.00  0.00    +0.000 A 
ATOM     15  C   UNL     1       2.126   4.233  17.853  0.00  0.00    +0.000 A 
ENDBRANCH   5   9
TORSDOF 1
ENDMDL
MODEL 2
REMARK VINA RESULT:      -6.5      2.051      2.232
REMARK  Name = 
REMARK  1 active torsions:
REMARK  status: ('A' for Active; 'I' for Inactive)
REMARK    1  A    between atoms: N_5  and  C_6
REMARK                            x       y       z     vdW  Elec       q    Type
REMARK                         _______ _______ _______ _____ _____    ______ ____
ROOT
ATOM      1  O   UNL     1       7.488   5.358  15.411  0.00  0.00    +0.000 OA
ATOM      2  C   UNL     1       6.883   5.099  16.437  0.00  0.00    +0.000 C 
ATOM      3  N   UNL     1       5.980   4.105  16.593  0.00  0.00    +0.000 N 
ATOM      4  C   UNL     1       5.270   4.051  17.755  0.00  0.00    +0.000 C 
ATOM      5  N   UNL     1       4.270   3.235  17.820  0.00  0.00    +0.000 NA
ATOM      6  C   UNL     1       5.816   5.004  18.784  0.00  0.00    +0.000 C 
ATOM      7  S   UNL     1       7.012   6.036  17.904  0.00  0.00    +0.000 S 
ATOM      8  H   UNL     1       5.713   3.535  15.804  0.00  0.00    +0.000 HD
ENDROOT
BRANCH   5   9
ATOM      9  C   UNL     1       3.381   3.193  18.907  0.00  0.00    +0.000 A 
ATOM     10  C   UNL     1       3.830   2.554  20.072  0.00  0.00    +0.000 A 
ATOM     11  C   UNL     1       2.998   2.410  21.185  0.00  0.00    +0.000 A 
ATOM     12  C   UNL     1       1.701   2.900  21.129  0.00  0.00    +0.000 A 
ATOM     13  F   UNL     1       0.881   2.729  22.175  0.00  0.00    +0.000 F 
ATOM     14  C   UNL     1       1.245   3.576  20.006  0.00  0.00    +0.000 A 
ATOM     15  C   UNL     1       2.099   3.755  18.915  0.00  0.00    +0.000 A 
ENDBRANCH   5   9
TORSDOF 1
ENDMDL
MODEL 3
REMARK VINA RESULT:      -6.5      1.864      1.979
REMARK  Name = 
REMARK  1 active torsions:
REMARK  status: ('A' for Active; 'I' for Inactive)
REMARK    1  A    between atoms: N_5  and  C_6
REMARK                            x       y       z     vdW  Elec       q    Type
REMARK                         _______ _______ _______ _____ _____    ______ ____
ROOT
ATOM      1  O   UNL     1       7.465   5.550  14.818  0.00  0.00    +0.000 OA
ATOM      2  C   UNL     1       6.828   5.040  15.723  0.00  0.00    +0.000 C 
ATOM      3  N   UNL     1       5.589   4.508  15.616  0.00  0.00    +0.000 N 
ATOM      4  C   UNL     1       4.948   4.126  16.756  0.00  0.00    +0.000 C 
ATOM      5  N   UNL     1       3.697   3.815  16.675  0.00  0.00    +0.000 NA
ATOM      6  C   UNL     1       5.870   4.147  17.946  0.00  0.00    +0.000 C 
ATOM      7  S   UNL     1       7.375   4.974  17.380  0.00  0.00    +0.000 S 
ATOM      8  H   UNL     1       5.088   4.563  14.742  0.00  0.00    +0.000 HD
ENDROOT
BRANCH   5   9
ATOM      9  C   UNL     1       2.896   3.545  17.798  0.00  0.00    +0.000 A 
ATOM     10  C   UNL     1       2.379   4.650  18.492  0.00  0.00    +0.000 A 
ATOM     11  C   UNL     1       1.621   4.484  19.653  0.00  0.00    +0.000 A 
ATOM     12  C   UNL     1       1.385   3.203  20.132  0.00  0.00    +0.000 A 
ATOM     13  F   UNL     1       0.696   3.035  21.268  0.00  0.00    +0.000 F 
ATOM     14  C   UNL     1       1.845   2.092  19.441  0.00  0.00    +0.000 A 
ATOM     15  C   UNL     1       2.564   2.265  18.255  0.00  0.00    +0.000 A 
ENDBRANCH   5   9
TORSDOF 1
ENDMDL
MODEL 4
REMARK VINA RESULT:      -6.5      4.439      6.092
REMARK  Name = 
REMARK  1 active torsions:
REMARK  status: ('A' for Active; 'I' for Inactive)
REMARK    1  A    between atoms: N_5  and  C_6
REMARK                            x       y       z     vdW  Elec       q    Type
REMARK                         _______ _______ _______ _____ _____    ______ ____
ROOT
ATOM      1  O   UNL     1       1.809   2.407  21.942  0.00  0.00    +0.000 OA
ATOM      2  C   UNL     1       2.341   3.155  21.140  0.00  0.00    +0.000 C 
ATOM      3  N   UNL     1       3.474   2.896  20.447  0.00  0.00    +0.000 N 
ATOM      4  C   UNL     1       4.029   3.901  19.714  0.00  0.00    +0.000 C 
ATOM      5  N   UNL     1       5.211   3.717  19.226  0.00  0.00    +0.000 NA
ATOM      6  C   UNL     1       3.111   5.090  19.618  0.00  0.00    +0.000 C 
ATOM      7  S   UNL     1       1.774   4.769  20.791  0.00  0.00    +0.000 S 
ATOM      8  H   UNL     1       3.986   2.043  20.616  0.00  0.00    +0.000 HD
ENDROOT
BRANCH   5   9
ATOM      9  C   UNL     1       5.942   4.726  18.577  0.00  0.00    +0.000 A 
ATOM     10  C   UNL     1       6.968   5.341  19.311  0.00  0.00    +0.000 A 
ATOM     11  C   UNL     1       7.711   6.394  18.772  0.00  0.00    +0.000 A 
ATOM     12  C   UNL     1       7.421   6.844  17.492  0.00  0.00    +0.000 A 
ATOM     13  F   UNL     1       8.099   7.880  16.983  0.00  0.00    +0.000 F 
ATOM     14  C   UNL     1       6.443   6.224  16.727  0.00  0.00    +0.000 A 
ATOM     15  C   UNL     1       5.735   5.142  17.257  0.00  0.00    +0.000 A 
ENDBRANCH   5   9
TORSDOF 1
ENDMDL
MODEL 5
REMARK VINA RESULT:      -6.4      0.237      1.303
REMARK  Name = 
REMARK  1 active torsions:
REMARK  status: ('A' for Active; 'I' for Inactive)
REMARK    1  A    between atoms: N_5  and  C_6
REMARK                            x       y       z     vdW  Elec       q    Type
REMARK                         _______ _______ _______ _____ _____    ______ ____
ROOT
ATOM      1  O   UNL     1       7.863   7.908  17.080  0.00  0.00    +0.000 OA
ATOM      2  C   UNL     1       7.087   7.038  17.435  0.00  0.00    +0.000 C 
ATOM      3  N   UNL     1       5.753   7.029  17.211  0.00  0.00    +0.000 N 
ATOM      4  C   UNL     1       5.001   6.068  17.815  0.00  0.00    +0.000 C 
ATOM      5  N   UNL     1       3.714   6.183  17.770  0.00  0.00    +0.000 NA
ATOM      6  C   UNL     1       5.860   5.009  18.452  0.00  0.00    +0.000 C 
ATOM      7  S   UNL     1       7.549   5.652  18.390  0.00  0.00    +0.000 S 
ATOM      8  H   UNL     1       5.310   7.817  16.761  0.00  0.00    +0.000 HD
ENDROOT
BRANCH   5   9
ATOM      9  C   UNL     1       2.840   5.337  18.473  0.00  0.00    +0.000 A 
ATOM     10  C   UNL     1       2.304   4.248  17.768  0.00  0.00    +0.000 A 
ATOM     11  C   UNL     1       1.381   3.385  18.364  0.00  0.00    +0.000 A 
ATOM     12  C   UNL     1       0.983   3.616  19.673  0.00  0.00    +0.000 A 
ATOM     13  F   UNL     1       0.067   2.820  20.239  0.00  0.00    +0.000 F 
ATOM     14  C   UNL     1       1.532   4.657  20.408  0.00  0.00    +0.000 A 
ATOM     15  C   UNL     1       2.488   5.489  19.819  0.00  0.00    +0.000 A 
ENDBRANCH   5   9
TORSDOF 1
ENDMDL
MODEL 6
REMARK VINA RESULT:      -6.4      1.898      2.257
REMARK  Name = 
REMARK  1 active torsions:
REMARK  status: ('A' for Active; 'I' for Inactive)
REMARK    1  A    between atoms: N_5  and  C_6
REMARK                            x       y       z     vdW  Elec       q    Type
REMARK                         _______ _______ _______ _____ _____    ______ ____
ROOT
ATOM      1  O   UNL     1       7.407   5.372  14.752  0.00  0.00    +0.000 OA
ATOM      2  C   UNL     1       6.801   4.941  15.718  0.00  0.00    +0.000 C 
ATOM      3  N   UNL     1       5.562   4.398  15.696  0.00  0.00    +0.000 N 
ATOM      4  C   UNL     1       4.959   4.115  16.884  0.00  0.00    +0.000 C 
ATOM      5  N   UNL     1       3.707   3.795  16.870  0.00  0.00    +0.000 NA
ATOM      6  C   UNL     1       5.917   4.243  18.038  0.00  0.00    +0.000 C 
ATOM      7  S   UNL     1       7.399   5.021  17.356  0.00  0.00    +0.000 S 
ATOM      8  H   UNL     1       5.034   4.375  14.837  0.00  0.00    +0.000 HD
ENDROOT
BRANCH   5   9
ATOM      9  C   UNL     1       2.943   3.621  18.037  0.00  0.00    +0.000 A 
ATOM     10  C   UNL     1       2.728   2.302  18.465  0.00  0.00    +0.000 A 
ATOM     11  C   UNL     1       1.933   2.025  19.580  0.00  0.00    +0.000 A 
ATOM     12  C   UNL     1       1.340   3.074  20.268  0.00  0.00    +0.000 A 
ATOM     13  F   UNL     1       0.543   2.817  21.312  0.00  0.00    +0.000 F 
ATOM     14  C   UNL     1       1.574   4.390  19.894  0.00  0.00    +0.000 A 
ATOM     15  C   UNL     1       2.406   4.660  18.805  0.00  0.00    +0.000 A 
ENDBRANCH   5   9
TORSDOF 1
ENDMDL
MODEL 7
REMARK VINA RESULT:      -6.4      0.919      1.057
REMARK  Name = 
REMARK  1 active torsions:
REMARK  status: ('A' for Active; 'I' for Inactive)
REMARK    1  A    between atoms: N_5  and  C_6
REMARK                            x       y       z     vdW  Elec       q    Type
REMARK                         _______ _______ _______ _____ _____    ______ ____
ROOT
ATOM      1  O   UNL     1       7.981   8.123  17.198  0.00  0.00    +0.000 OA
ATOM      2  C   UNL     1       7.289   7.159  17.475  0.00  0.00    +0.000 C 
ATOM      3  N   UNL     1       6.116   6.832  16.886  0.00  0.00    +0.000 N 
ATOM      4  C   UNL     1       5.383   5.817  17.421  0.00  0.00    +0.000 C 
ATOM      5  N   UNL     1       4.177   5.643  16.991  0.00  0.00    +0.000 NA
ATOM      6  C   UNL     1       6.160   5.062  18.467  0.00  0.00    +0.000 C 
ATOM      7  S   UNL     1       7.649   6.043  18.768  0.00  0.00    +0.000 S 
ATOM      8  H   UNL     1       5.714   7.439  16.187  0.00  0.00    +0.000 HD
ENDROOT
BRANCH   5   9
ATOM      9  C   UNL     1       3.280   4.726  17.562  0.00  0.00    +0.000 A 
ATOM     10  C   UNL     1       2.428   5.211  18.567  0.00  0.00    +0.000 A 
ATOM     11  C   UNL     1       1.542   4.363  19.236  0.00  0.00    +0.000 A 
ATOM     12  C   UNL     1       1.513   3.016  18.904  0.00  0.00    +0.000 A 
ATOM     13  F   UNL     1       0.698   2.186  19.568  0.00  0.00    +0.000 F 
ATOM     14  C   UNL     1       2.310   2.519  17.883  0.00  0.00    +0.000 A 
ATOM     15  C   UNL     1       3.161   3.383  17.189  0.00  0.00    +0.000 A 
ENDBRANCH   5   9
TORSDOF 1
ENDMDL
MODEL 8
REMARK VINA RESULT:      -6.3      1.208      1.252
REMARK  Name = 
REMARK  1 active torsions:
REMARK  status: ('A' for Active; 'I' for Inactive)
REMARK    1  A    between atoms: N_5  and  C_6
REMARK                            x       y       z     vdW  Elec       q    Type
REMARK                         _______ _______ _______ _____ _____    ______ ____
ROOT
ATOM      1  O   UNL     1       7.388   6.418  15.925  0.00  0.00    +0.000 OA
ATOM      2  C   UNL     1       6.705   5.694  16.628  0.00  0.00    +0.000 C 
ATOM      3  N   UNL     1       5.362   5.550  16.548  0.00  0.00    +0.000 N 
ATOM      4  C   UNL     1       4.729   4.828  17.513  0.00  0.00    +0.000 C 
ATOM      5  N   UNL     1       3.438   4.865  17.553  0.00  0.00    +0.000 NA
ATOM      6  C   UNL     1       5.708   4.096  18.392  0.00  0.00    +0.000 C 
ATOM      7  S   UNL     1       7.336   4.750  17.954  0.00  0.00    +0.000 S 
ATOM      8  H   UNL     1       4.831   6.111  15.898  0.00  0.00    +0.000 HD
ENDROOT
BRANCH   5   9
ATOM      9  C   UNL     1       2.682   4.280  18.583  0.00  0.00    +0.000 A 
ATOM     10  C   UNL     1       2.587   4.995  19.787  0.00  0.00    +0.000 A 
ATOM     11  C   UNL     1       1.907   4.469  20.888  0.00  0.00    +0.000 A 
ATOM     12  C   UNL     1       1.323   3.214  20.788  0.00  0.00    +0.000 A 
ATOM     13  F   UNL     1       0.705   2.683  21.851  0.00  0.00    +0.000 F 
ATOM     14  C   UNL     1       1.362   2.506  19.595  0.00  0.00    +0.000 A 
ATOM     15  C   UNL     1       2.006   3.059  18.486  0.00  0.00    +0.000 A 
ENDBRANCH   5   9
TORSDOF 1
ENDMDL
MODEL 9
REMARK VINA RESULT:      -6.3      1.737      2.004
REMARK  Name = 
REMARK  1 active torsions:
REMARK  status: ('A' for Active; 'I' for Inactive)
REMARK    1  A    between atoms: N_5  and  C_6
REMARK                            x       y       z     vdW  Elec       q    Type
REMARK                         _______ _______ _______ _____ _____    ______ ____
ROOT
ATOM      1  O   UNL     1       7.494   6.208  15.918  0.00  0.00    +0.000 OA
ATOM      2  C   UNL     1       6.927   5.676  16.856  0.00  0.00    +0.000 C 
ATOM      3  N   UNL     1       5.921   4.776  16.765  0.00  0.00    +0.000 N 
ATOM      4  C   UNL     1       5.284   4.399  17.908  0.00  0.00    +0.000 C 
ATOM      5  N   UNL     1       4.198   3.707  17.800  0.00  0.00    +0.000 NA
ATOM      6  C   UNL     1       6.004   4.893  19.135  0.00  0.00    +0.000 C 
ATOM      7  S   UNL     1       7.259   6.046  18.530  0.00  0.00    +0.000 S 
ATOM      8  H   UNL     1       5.538   4.534  15.863  0.00  0.00    +0.000 HD
ENDROOT
BRANCH   5   9
ATOM      9  C   UNL     1       3.379   3.383  18.895  0.00  0.00    +0.000 A 
ATOM     10  C   UNL     1       2.047   3.823  18.846  0.00  0.00    +0.000 A 
ATOM     11  C   UNL     1       1.173   3.600  19.912  0.00  0.00    +0.000 A 
ATOM     12  C   UNL     1       1.634   2.940  21.042  0.00  0.00    +0.000 A 
ATOM     13  F   UNL     1       0.816   2.758  22.086  0.00  0.00    +0.000 F 
ATOM     14  C   UNL     1       2.933   2.453  21.098  0.00  0.00    +0.000 A 
ATOM     15  C   UNL     1       3.788   2.641  20.009  0.00  0.00    +0.000 A 
ENDBRANCH   5   9
TORSDOF 1
ENDMDL
