MODEL 1
REMARK VINA RESULT:      -7.8      0.000      0.000
REMARK  Name = 
REMARK  4 active torsions:
REMARK  status: ('A' for Active; 'I' for Inactive)
REMARK    1  A    between atoms: C_1  and  O_2
REMARK    2  A    between atoms: O_2  and  C_3
REMARK    3  A    between atoms: C_11  and  N_12
REMARK    4  A    between atoms: N_19  and  C_20
REMARK                            x       y       z     vdW  Elec       q    Type
REMARK                         _______ _______ _______ _____ _____    ______ ____
ROOT
ATOM      1  N   UNL     1       1.888   8.099  21.347  0.00  0.00    +0.000 N 
ATOM      2  C   UNL     1       0.965   9.151  21.287  0.00  0.00    +0.000 A 
ATOM      3  C   UNL     1       0.274   9.440  20.113  0.00  0.00    +0.000 A 
ATOM      4  C   UNL     1      -0.655  10.480  20.151  0.00  0.00    +0.000 A 
ATOM      5  C   UNL     1      -0.815  11.245  21.306  0.00  0.00    +0.000 A 
ATOM      6  C   UNL     1      -1.817  12.211  21.018  0.00  0.00    +0.000 A 
ATOM      7  C   UNL     1      -2.251  11.998  19.733  0.00  0.00    +0.000 A 
ATOM      8  N   UNL     1      -1.537  10.950  19.199  0.00  0.00    +0.000 N 
ATOM      9  C   UNL     1      -0.031  10.946  22.421  0.00  0.00    +0.000 A 
ATOM     10  N   UNL     1       0.837   9.895  22.407  0.00  0.00    +0.000 NA
ATOM     11  H   UNL     1       2.213   7.980  22.297  0.00  0.00    +0.000 HD
ENDROOT
BRANCH   1  20
ATOM     12  C   UNL     1       5.205   5.335  15.502  0.00  0.00    +0.000 C 
ATOM     13  C   UNL     1       4.927   6.688  16.174  0.00  0.00    +0.000 C 
ATOM     14  C   UNL     1       5.005   6.651  17.703  0.00  0.00    +0.000 C 
ATOM     15  N   UNL     1       4.287   5.497  18.225  0.00  0.00    +0.000 N 
ATOM     16  C   UNL     1       3.176   5.659  19.018  0.00  0.00    +0.000 A 
ATOM     17  N   UNL     1       2.289   4.660  19.115  0.00  0.00    +0.000 NA
ATOM     18  C   UNL     1       1.230   4.843  19.921  0.00  0.00    +0.000 A 
ATOM     19  C   UNL     1       1.026   5.983  20.655  0.00  0.00    +0.000 A 
ATOM     20  C   UNL     1       1.980   6.963  20.525  0.00  0.00    +0.000 A 
ATOM     21  N   UNL     1       3.032   6.803  19.699  0.00  0.00    +0.000 NA
ATOM     22  C   UNL     1       4.602   4.197  17.658  0.00  0.00    +0.000 C 
ATOM     23  C   UNL     1       4.368   4.231  16.152  0.00  0.00    +0.000 C 
BRANCH  12  25
ATOM     24  C   UNL     1       7.257   4.844  14.349  0.00  0.00    +0.000 C 
ATOM     25  O   UNL     1       6.575   4.924  15.590  0.00  0.00    +0.000 OA
ENDBRANCH  12  25
ENDBRANCH   1  20
BRANCH   8  26
ATOM     26  C   UNL     1      -1.719  10.405  17.862  0.00  0.00    +0.000 C 
ATOM     27  C   UNL     1      -2.961   9.525  17.715  0.00  0.00    +0.000 C 
ATOM     28  C   UNL     1      -3.214   9.480  16.214  0.00  0.00    +0.000 C 
ATOM     29  C   UNL     1      -2.647  10.777  15.643  0.00  0.00    +0.000 C 
ATOM     30  C   UNL     1      -1.893  11.469  16.776  0.00  0.00    +0.000 C 
ENDBRANCH   8  26
TORSDOF 3
ENDMDL
MODEL 2
REMARK VINA RESULT:      -6.9      5.936      7.500
REMARK  Name = 
REMARK  4 active torsions:
REMARK  status: ('A' for Active; 'I' for Inactive)
REMARK    1  A    between atoms: C_1  and  O_2
REMARK    2  A    between atoms: O_2  and  C_3
REMARK    3  A    between atoms: C_11  and  N_12
REMARK    4  A    between atoms: N_19  and  C_20
REMARK                            x       y       z     vdW  Elec       q    Type
REMARK                         _______ _______ _______ _____ _____    ______ ____
ROOT
ATOM      1  N   UNL     1       3.000  15.535  19.438  0.00  0.00    +0.000 N 
ATOM      2  C   UNL     1       1.855  14.755  19.228  0.00  0.00    +0.000 A 
ATOM      3  C   UNL     1       1.931  13.368  19.143  0.00  0.00    +0.000 A 
ATOM      4  C   UNL     1       0.738  12.666  18.971  0.00  0.00    +0.000 A 
ATOM      5  C   UNL     1      -0.468  13.348  18.810  0.00  0.00    +0.000 A 
ATOM      6  C   UNL     1      -1.477  12.359  18.654  0.00  0.00    +0.000 A 
ATOM      7  C   UNL     1      -0.878  11.128  18.748  0.00  0.00    +0.000 A 
ATOM      8  N   UNL     1       0.473  11.312  18.930  0.00  0.00    +0.000 N 
ATOM      9  C   UNL     1      -0.456  14.743  18.829  0.00  0.00    +0.000 A 
ATOM     10  N   UNL     1       0.699  15.432  19.054  0.00  0.00    +0.000 NA
ATOM     11  H   UNL     1       2.739  16.502  19.570  0.00  0.00    +0.000 HD
ENDROOT
BRANCH   1  20
ATOM     12  C   UNL     1       9.467  12.571  17.953  0.00  0.00    +0.000 C 
ATOM     13  C   UNL     1       8.056  12.686  17.360  0.00  0.00    +0.000 C 
ATOM     14  C   UNL     1       7.405  14.057  17.564  0.00  0.00    +0.000 C 
ATOM     15  N   UNL     1       7.579  14.508  18.936  0.00  0.00    +0.000 N 
ATOM     16  C   UNL     1       6.495  14.687  19.763  0.00  0.00    +0.000 A 
ATOM     17  N   UNL     1       6.670  14.658  21.090  0.00  0.00    +0.000 NA
ATOM     18  C   UNL     1       5.593  14.865  21.866  0.00  0.00    +0.000 A 
ATOM     19  C   UNL     1       4.341  15.120  21.369  0.00  0.00    +0.000 A 
ATOM     20  C   UNL     1       4.231  15.155  19.999  0.00  0.00    +0.000 A 
ATOM     21  N   UNL     1       5.297  14.921  19.211  0.00  0.00    +0.000 NA
ATOM     22  C   UNL     1       8.924  14.486  19.485  0.00  0.00    +0.000 C 
ATOM     23  C   UNL     1       9.483  13.070  19.401  0.00  0.00    +0.000 C 
BRANCH  12  25
ATOM     24  C   UNL     1      11.796  12.971  17.510  0.00  0.00    +0.000 C 
ATOM     25  O   UNL     1      10.451  13.331  17.241  0.00  0.00    +0.000 OA
ENDBRANCH  12  25
ENDBRANCH   1  20
BRANCH   8  26
ATOM     26  C   UNL     1       1.451  10.247  19.096  0.00  0.00    +0.000 C 
ATOM     27  C   UNL     1       1.032   9.170  20.097  0.00  0.00    +0.000 C 
ATOM     28  C   UNL     1       1.914   7.977  19.757  0.00  0.00    +0.000 C 
ATOM     29  C   UNL     1       2.253   8.101  18.274  0.00  0.00    +0.000 C 
ATOM     30  C   UNL     1       1.739   9.464  17.813  0.00  0.00    +0.000 C 
ENDBRANCH   8  26
TORSDOF 3
ENDMDL
MODEL 3
REMARK VINA RESULT:      -6.9      5.391      7.632
REMARK  Name = 
REMARK  4 active torsions:
REMARK  status: ('A' for Active; 'I' for Inactive)
REMARK    1  A    between atoms: C_1  and  O_2
REMARK    2  A    between atoms: O_2  and  C_3
REMARK    3  A    between atoms: C_11  and  N_12
REMARK    4  A    between atoms: N_19  and  C_20
REMARK                            x       y       z     vdW  Elec       q    Type
REMARK                         _______ _______ _______ _____ _____    ______ ____
ROOT
ATOM      1  N   UNL     1      -0.839  10.646  17.848  0.00  0.00    +0.000 N 
ATOM      2  C   UNL     1      -2.174  11.009  17.629  0.00  0.00    +0.000 A 
ATOM      3  C   UNL     1      -2.981  11.459  18.671  0.00  0.00    +0.000 A 
ATOM      4  C   UNL     1      -4.287  11.837  18.359  0.00  0.00    +0.000 A 
ATOM      5  C   UNL     1      -4.776  11.687  17.061  0.00  0.00    +0.000 A 
ATOM      6  C   UNL     1      -6.120  12.152  17.077  0.00  0.00    +0.000 A 
ATOM      7  C   UNL     1      -6.400  12.587  18.349  0.00  0.00    +0.000 A 
ATOM      8  N   UNL     1      -5.288  12.386  19.134  0.00  0.00    +0.000 N 
ATOM      9  C   UNL     1      -3.933  11.157  16.084  0.00  0.00    +0.000 A 
ATOM     10  N   UNL     1      -2.639  10.840  16.372  0.00  0.00    +0.000 NA
ATOM     11  H   UNL     1      -0.388  10.443  16.966  0.00  0.00    +0.000 HD
ENDROOT
BRANCH   1  20
ATOM     12  C   UNL     1       4.521  15.199  19.679  0.00  0.00    +0.000 C 
ATOM     13  C   UNL     1       3.833  14.624  18.433  0.00  0.00    +0.000 C 
ATOM     14  C   UNL     1       2.316  14.469  18.575  0.00  0.00    +0.000 C 
ATOM     15  N   UNL     1       1.981  13.856  19.852  0.00  0.00    +0.000 N 
ATOM     16  C   UNL     1       1.374  12.624  19.904  0.00  0.00    +0.000 A 
ATOM     17  N   UNL     1       1.477  11.889  21.019  0.00  0.00    +0.000 NA
ATOM     18  C   UNL     1       0.847  10.703  21.045  0.00  0.00    +0.000 A 
ATOM     19  C   UNL     1       0.097  10.222  20.003  0.00  0.00    +0.000 A 
ATOM     20  C   UNL     1       0.016  11.031  18.894  0.00  0.00    +0.000 A 
ATOM     21  N   UNL     1       0.666  12.210  18.846  0.00  0.00    +0.000 NA
ATOM     22  C   UNL     1       2.557  14.442  21.050  0.00  0.00    +0.000 C 
ATOM     23  C   UNL     1       4.077  14.442  20.934  0.00  0.00    +0.000 C 
BRANCH  12  25
ATOM     24  C   UNL     1       5.369  17.417  20.053  0.00  0.00    +0.000 C 
ATOM     25  O   UNL     1       4.231  16.584  19.905  0.00  0.00    +0.000 OA
ENDBRANCH  12  25
ENDBRANCH   1  20
BRANCH   8  26
ATOM     26  C   UNL     1      -5.179  12.739  20.542  0.00  0.00    +0.000 C 
ATOM     27  C   UNL     1      -4.992  14.235  20.793  0.00  0.00    +0.000 C 
ATOM     28  C   UNL     1      -5.386  14.423  22.252  0.00  0.00    +0.000 C 
ATOM     29  C   UNL     1      -6.388  13.318  22.573  0.00  0.00    +0.000 C 
ATOM     30  C   UNL     1      -6.416  12.379  21.368  0.00  0.00    +0.000 C 
ENDBRANCH   8  26
TORSDOF 3
ENDMDL
MODEL 4
REMARK VINA RESULT:      -6.8      2.952      4.581
REMARK  Name = 
REMARK  4 active torsions:
REMARK  status: ('A' for Active; 'I' for Inactive)
REMARK    1  A    between atoms: C_1  and  O_2
REMARK    2  A    between atoms: O_2  and  C_3
REMARK    3  A    between atoms: C_11  and  N_12
REMARK    4  A    between atoms: N_19  and  C_20
REMARK                            x       y       z     vdW  Elec       q    Type
REMARK                         _______ _______ _______ _____ _____    ______ ____
ROOT
ATOM      1  N   UNL     1       1.195  10.813  18.962  0.00  0.00    +0.000 N 
ATOM      2  C   UNL     1       0.606  12.061  19.199  0.00  0.00    +0.000 A 
ATOM      3  C   UNL     1      -0.537  12.184  19.985  0.00  0.00    +0.000 A 
ATOM      4  C   UNL     1      -1.037  13.468  20.202  0.00  0.00    +0.000 A 
ATOM      5  C   UNL     1      -0.450  14.570  19.581  0.00  0.00    +0.000 A 
ATOM      6  C   UNL     1      -1.187  15.712  19.998  0.00  0.00    +0.000 A 
ATOM      7  C   UNL     1      -2.166  15.288  20.862  0.00  0.00    +0.000 A 
ATOM      8  N   UNL     1      -2.083  13.921  20.980  0.00  0.00    +0.000 N 
ATOM      9  C   UNL     1       0.648  14.362  18.745  0.00  0.00    +0.000 A 
ATOM     10  N   UNL     1       1.174  13.116  18.575  0.00  0.00    +0.000 NA
ATOM     11  H   UNL     1       2.064  10.932  18.458  0.00  0.00    +0.000 HD
ENDROOT
BRANCH   1  20
ATOM     12  C   UNL     1       1.988   3.593  18.717  0.00  0.00    +0.000 C 
ATOM     13  C   UNL     1       1.834   4.798  17.777  0.00  0.00    +0.000 C 
ATOM     14  C   UNL     1       2.579   6.052  18.246  0.00  0.00    +0.000 C 
ATOM     15  N   UNL     1       2.342   6.289  19.662  0.00  0.00    +0.000 N 
ATOM     16  C   UNL     1       1.679   7.416  20.087  0.00  0.00    +0.000 A 
ATOM     17  N   UNL     1       1.084   7.414  21.287  0.00  0.00    +0.000 NA
ATOM     18  C   UNL     1       0.471   8.543  21.680  0.00  0.00    +0.000 A 
ATOM     19  C   UNL     1       0.442   9.689  20.930  0.00  0.00    +0.000 A 
ATOM     20  C   UNL     1       1.086   9.633  19.716  0.00  0.00    +0.000 A 
ATOM     21  N   UNL     1       1.680   8.498  19.298  0.00  0.00    +0.000 NA
ATOM     22  C   UNL     1       2.566   5.181  20.576  0.00  0.00    +0.000 C 
ATOM     23  C   UNL     1       1.694   4.000  20.164  0.00  0.00    +0.000 C 
BRANCH  12  25
ATOM     24  C   UNL     1       3.365   1.674  18.271  0.00  0.00    +0.000 C 
ATOM     25  O   UNL     1       3.302   3.022  18.705  0.00  0.00    +0.000 OA
ENDBRANCH  12  25
ENDBRANCH   1  20
BRANCH   8  26
ATOM     26  C   UNL     1      -2.936  13.097  21.824  0.00  0.00    +0.000 C 
ATOM     27  C   UNL     1      -2.547  13.114  23.303  0.00  0.00    +0.000 C 
ATOM     28  C   UNL     1      -3.794  12.624  24.026  0.00  0.00    +0.000 C 
ATOM     29  C   UNL     1      -4.980  13.004  23.142  0.00  0.00    +0.000 C 
ATOM     30  C   UNL     1      -4.405  13.525  21.827  0.00  0.00    +0.000 C 
ENDBRANCH   8  26
TORSDOF 3
ENDMDL
MODEL 5
REMARK VINA RESULT:      -6.8      3.153      4.625
REMARK  Name = 
REMARK  4 active torsions:
REMARK  status: ('A' for Active; 'I' for Inactive)
REMARK    1  A    between atoms: C_1  and  O_2
REMARK    2  A    between atoms: O_2  and  C_3
REMARK    3  A    between atoms: C_11  and  N_12
REMARK    4  A    between atoms: N_19  and  C_20
REMARK                            x       y       z     vdW  Elec       q    Type
REMARK                         _______ _______ _______ _____ _____    ______ ____
ROOT
ATOM      1  N   UNL     1       1.867  10.488  18.552  0.00  0.00    +0.000 N 
ATOM      2  C   UNL     1       1.665  11.861  18.742  0.00  0.00    +0.000 A 
ATOM      3  C   UNL     1       0.678  12.334  19.602  0.00  0.00    +0.000 A 
ATOM      4  C   UNL     1       0.570  13.716  19.763  0.00  0.00    +0.000 A 
ATOM      5  C   UNL     1       1.375  14.580  19.021  0.00  0.00    +0.000 A 
ATOM      6  C   UNL     1       1.020  15.900  19.409  0.00  0.00    +0.000 A 
ATOM      7  C   UNL     1       0.048  15.808  20.374  0.00  0.00    +0.000 A 
ATOM      8  N   UNL     1      -0.235  14.478  20.584  0.00  0.00    +0.000 N 
ATOM      9  C   UNL     1       2.291  14.034  18.120  0.00  0.00    +0.000 A 
ATOM     10  N   UNL     1       2.439  12.684  18.002  0.00  0.00    +0.000 NA
ATOM     11  H   UNL     1       2.684  10.336  17.976  0.00  0.00    +0.000 HD
ENDROOT
BRANCH   1  20
ATOM     12  C   UNL     1       1.559   3.244  19.055  0.00  0.00    +0.000 C 
ATOM     13  C   UNL     1       1.677   4.352  17.997  0.00  0.00    +0.000 C 
ATOM     14  C   UNL     1       2.561   5.528  18.424  0.00  0.00    +0.000 C 
ATOM     15  N   UNL     1       2.237   5.946  19.780  0.00  0.00    +0.000 N 
ATOM     16  C   UNL     1       1.721   7.196  20.028  0.00  0.00    +0.000 A 
ATOM     17  N   UNL     1       1.028   7.407  21.154  0.00  0.00    +0.000 NA
ATOM     18  C   UNL     1       0.563   8.648  21.377  0.00  0.00    +0.000 A 
ATOM     19  C   UNL     1       0.778   9.700  20.525  0.00  0.00    +0.000 A 
ATOM     20  C   UNL     1       1.511   9.422  19.396  0.00  0.00    +0.000 A 
ATOM     21  N   UNL     1       1.959   8.176  19.148  0.00  0.00    +0.000 NA
ATOM     22  C   UNL     1       2.206   4.921  20.809  0.00  0.00    +0.000 C 
ATOM     23  C   UNL     1       1.203   3.841  20.419  0.00  0.00    +0.000 C 
BRANCH  12  25
ATOM     24  C   UNL     1       3.265   1.876  18.056  0.00  0.00    +0.000 C 
ATOM     25  O   UNL     1       2.765   2.492  19.232  0.00  0.00    +0.000 OA
ENDBRANCH  12  25
ENDBRANCH   1  20
BRANCH   8  26
ATOM     26  C   UNL     1      -1.198  13.966  21.548  0.00  0.00    +0.000 C 
ATOM     27  C   UNL     1      -2.432  13.327  20.912  0.00  0.00    +0.000 C 
ATOM     28  C   UNL     1      -3.023  12.465  22.020  0.00  0.00    +0.000 C 
ATOM     29  C   UNL     1      -1.857  12.071  22.925  0.00  0.00    +0.000 C 
ATOM     30  C   UNL     1      -0.641  12.867  22.456  0.00  0.00    +0.000 C 
ENDBRANCH   8  26
TORSDOF 3
ENDMDL
MODEL 6
REMARK VINA RESULT:      -6.7      3.035      4.435
REMARK  Name = 
REMARK  4 active torsions:
REMARK  status: ('A' for Active; 'I' for Inactive)
REMARK    1  A    between atoms: C_1  and  O_2
REMARK    2  A    between atoms: O_2  and  C_3
REMARK    3  A    between atoms: C_11  and  N_12
REMARK    4  A    between atoms: N_19  and  C_20
REMARK                            x       y       z     vdW  Elec       q    Type
REMARK                         _______ _______ _______ _____ _____    ______ ____
ROOT
ATOM      1  N   UNL     1       1.842  10.413  18.658  0.00  0.00    +0.000 N 
ATOM      2  C   UNL     1       1.429  11.748  18.759  0.00  0.00    +0.000 A 
ATOM      3  C   UNL     1       0.266  12.096  19.440  0.00  0.00    +0.000 A 
ATOM      4  C   UNL     1      -0.052  13.451  19.525  0.00  0.00    +0.000 A 
ATOM      5  C   UNL     1       0.734  14.404  18.878  0.00  0.00    +0.000 A 
ATOM      6  C   UNL     1       0.148  15.669  19.153  0.00  0.00    +0.000 A 
ATOM      7  C   UNL     1      -0.941  15.462  19.963  0.00  0.00    +0.000 A 
ATOM      8  N   UNL     1      -1.070  14.110  20.183  0.00  0.00    +0.000 N 
ATOM      9  C   UNL     1       1.844  13.974  18.149  0.00  0.00    +0.000 A 
ATOM     10  N   UNL     1       2.190  12.657  18.110  0.00  0.00    +0.000 NA
ATOM     11  H   UNL     1       2.751  10.366  18.219  0.00  0.00    +0.000 HD
ENDROOT
BRANCH   1  20
ATOM     12  C   UNL     1       1.622   3.157  19.004  0.00  0.00    +0.000 C 
ATOM     13  C   UNL     1       1.717   4.289  17.971  0.00  0.00    +0.000 C 
ATOM     14  C   UNL     1       2.591   5.466  18.414  0.00  0.00    +0.000 C 
ATOM     15  N   UNL     1       2.277   5.850  19.782  0.00  0.00    +0.000 N 
ATOM     16  C   UNL     1       1.749   7.088  20.063  0.00  0.00    +0.000 A 
ATOM     17  N   UNL     1       1.065   7.267  21.200  0.00  0.00    +0.000 NA
ATOM     18  C   UNL     1       0.588   8.497  21.455  0.00  0.00    +0.000 A 
ATOM     19  C   UNL     1       0.782   9.570  20.624  0.00  0.00    +0.000 A 
ATOM     20  C   UNL     1       1.507   9.325  19.482  0.00  0.00    +0.000 A 
ATOM     21  N   UNL     1       1.966   8.091  19.202  0.00  0.00    +0.000 NA
ATOM     22  C   UNL     1       2.267   4.803  20.789  0.00  0.00    +0.000 C 
ATOM     23  C   UNL     1       1.273   3.720  20.385  0.00  0.00    +0.000 C 
BRANCH  12  25
ATOM     24  C   UNL     1       3.337   1.837  17.958  0.00  0.00    +0.000 C 
ATOM     25  O   UNL     1       2.839   2.416  19.153  0.00  0.00    +0.000 OA
ENDBRANCH  12  25
ENDBRANCH   1  20
BRANCH   8  26
ATOM     26  C   UNL     1      -2.093  13.488  21.011  0.00  0.00    +0.000 C 
ATOM     27  C   UNL     1      -2.790  14.456  21.967  0.00  0.00    +0.000 C 
ATOM     28  C   UNL     1      -4.082  13.745  22.347  0.00  0.00    +0.000 C 
ATOM     29  C   UNL     1      -4.431  12.833  21.173  0.00  0.00    +0.000 C 
ATOM     30  C   UNL     1      -3.243  12.867  20.215  0.00  0.00    +0.000 C 
ENDBRANCH   8  26
TORSDOF 3
ENDMDL
MODEL 7
REMARK VINA RESULT:      -6.7      7.990     11.122
REMARK  Name = 
REMARK  4 active torsions:
REMARK  status: ('A' for Active; 'I' for Inactive)
REMARK    1  A    between atoms: C_1  and  O_2
REMARK    2  A    between atoms: O_2  and  C_3
REMARK    3  A    between atoms: C_11  and  N_12
REMARK    4  A    between atoms: N_19  and  C_20
REMARK                            x       y       z     vdW  Elec       q    Type
REMARK                         _______ _______ _______ _____ _____    ______ ____
ROOT
ATOM      1  N   UNL     1       6.013  17.106  20.420  0.00  0.00    +0.000 N 
ATOM      2  C   UNL     1       7.161  16.976  19.629  0.00  0.00    +0.000 A 
ATOM      3  C   UNL     1       7.855  15.772  19.553  0.00  0.00    +0.000 A 
ATOM      4  C   UNL     1       8.966  15.719  18.711  0.00  0.00    +0.000 A 
ATOM      5  C   UNL     1       9.400  16.862  18.039  0.00  0.00    +0.000 A 
ATOM      6  C   UNL     1      10.540  16.479  17.280  0.00  0.00    +0.000 A 
ATOM      7  C   UNL     1      10.750  15.138  17.484  0.00  0.00    +0.000 A 
ATOM      8  N   UNL     1       9.799  14.675  18.364  0.00  0.00    +0.000 N 
ATOM      9  C   UNL     1       8.699  18.054  18.224  0.00  0.00    +0.000 A 
ATOM     10  N   UNL     1       7.580  18.097  19.001  0.00  0.00    +0.000 NA
ATOM     11  H   UNL     1       5.593  18.014  20.273  0.00  0.00    +0.000 HD
ENDROOT
BRANCH   1  20
ATOM     12  C   UNL     1      -0.388  13.877  19.227  0.00  0.00    +0.000 C 
ATOM     13  C   UNL     1       0.370  15.166  18.874  0.00  0.00    +0.000 C 
ATOM     14  C   UNL     1       1.864  14.957  18.612  0.00  0.00    +0.000 C 
ATOM     15  N   UNL     1       2.451  14.109  19.639  0.00  0.00    +0.000 N 
ATOM     16  C   UNL     1       3.417  14.596  20.487  0.00  0.00    +0.000 A 
ATOM     17  N   UNL     1       3.619  13.994  21.666  0.00  0.00    +0.000 NA
ATOM     18  C   UNL     1       4.590  14.480  22.457  0.00  0.00    +0.000 A 
ATOM     19  C   UNL     1       5.389  15.538  22.110  0.00  0.00    +0.000 A 
ATOM     20  C   UNL     1       5.145  16.101  20.880  0.00  0.00    +0.000 A 
ATOM     21  N   UNL     1       4.155  15.641  20.090  0.00  0.00    +0.000 NA
ATOM     22  C   UNL     1       1.793  12.845  19.924  0.00  0.00    +0.000 C 
ATOM     23  C   UNL     1       0.346  13.107  20.327  0.00  0.00    +0.000 C 
BRANCH  12  25
ATOM     24  C   UNL     1      -1.572  12.022  18.259  0.00  0.00    +0.000 C 
ATOM     25  O   UNL     1      -0.536  12.980  18.119  0.00  0.00    +0.000 OA
ENDBRANCH  12  25
ENDBRANCH   1  20
BRANCH   8  26
ATOM     26  C   UNL     1       9.672  13.297  18.815  0.00  0.00    +0.000 C 
ATOM     27  C   UNL     1       9.024  12.366  17.790  0.00  0.00    +0.000 C 
ATOM     28  C   UNL     1       9.427  10.969  18.243  0.00  0.00    +0.000 C 
ATOM     29  C   UNL     1      10.754  11.124  18.981  0.00  0.00    +0.000 C 
ATOM     30  C   UNL     1      11.009  12.622  19.129  0.00  0.00    +0.000 C 
ENDBRANCH   8  26
TORSDOF 3
ENDMDL
MODEL 8
REMARK VINA RESULT:      -6.6      3.201      4.960
REMARK  Name = 
REMARK  4 active torsions:
REMARK  status: ('A' for Active; 'I' for Inactive)
REMARK    1  A    between atoms: C_1  and  O_2
REMARK    2  A    between atoms: O_2  and  C_3
REMARK    3  A    between atoms: C_11  and  N_12
REMARK    4  A    between atoms: N_19  and  C_20
REMARK                            x       y       z     vdW  Elec       q    Type
REMARK                         _______ _______ _______ _____ _____    ______ ____
ROOT
ATOM      1  N   UNL     1       1.769  10.391  18.554  0.00  0.00    +0.000 N 
ATOM      2  C   UNL     1       1.726  11.765  18.826  0.00  0.00    +0.000 A 
ATOM      3  C   UNL     1       0.951  12.272  19.866  0.00  0.00    +0.000 A 
ATOM      4  C   UNL     1       0.996  13.647  20.093  0.00  0.00    +0.000 A 
ATOM      5  C   UNL     1       1.731  14.480  19.249  0.00  0.00    +0.000 A 
ATOM      6  C   UNL     1       1.567  15.804  19.742  0.00  0.00    +0.000 A 
ATOM      7  C   UNL     1       0.776  15.741  20.862  0.00  0.00    +0.000 A 
ATOM      8  N   UNL     1       0.418  14.430  21.071  0.00  0.00    +0.000 N 
ATOM      9  C   UNL     1       2.422  13.909  18.180  0.00  0.00    +0.000 A 
ATOM     10  N   UNL     1       2.427  12.560  17.989  0.00  0.00    +0.000 NA
ATOM     11  H   UNL     1       2.455  10.204  17.835  0.00  0.00    +0.000 HD
ENDROOT
BRANCH   1  20
ATOM     12  C   UNL     1       1.706   3.142  19.071  0.00  0.00    +0.000 C 
ATOM     13  C   UNL     1       1.755   4.251  18.009  0.00  0.00    +0.000 C 
ATOM     14  C   UNL     1       2.614   5.455  18.406  0.00  0.00    +0.000 C 
ATOM     15  N   UNL     1       2.322   5.865  19.772  0.00  0.00    +0.000 N 
ATOM     16  C   UNL     1       1.775   7.098  20.036  0.00  0.00    +0.000 A 
ATOM     17  N   UNL     1       1.112   7.290  21.184  0.00  0.00    +0.000 NA
ATOM     18  C   UNL     1       0.616   8.515  21.421  0.00  0.00    +0.000 A 
ATOM     19  C   UNL     1       0.770   9.573  20.562  0.00  0.00    +0.000 A 
ATOM     20  C   UNL     1       1.474   9.316  19.409  0.00  0.00    +0.000 A 
ATOM     21  N   UNL     1       1.953   8.085  19.148  0.00  0.00    +0.000 NA
ATOM     22  C   UNL     1       2.356   4.842  20.803  0.00  0.00    +0.000 C 
ATOM     23  C   UNL     1       1.376   3.730  20.446  0.00  0.00    +0.000 C 
BRANCH  12  25
ATOM     24  C   UNL     1       3.393   1.781  18.032  0.00  0.00    +0.000 C 
ATOM     25  O   UNL     1       2.940   2.429  19.209  0.00  0.00    +0.000 OA
ENDBRANCH  12  25
ENDBRANCH   1  20
BRANCH   8  26
ATOM     26  C   UNL     1      -0.401  13.949  22.174  0.00  0.00    +0.000 C 
ATOM     27  C   UNL     1      -0.620  14.982  23.280  0.00  0.00    +0.000 C 
ATOM     28  C   UNL     1      -1.840  14.471  24.035  0.00  0.00    +0.000 C 
ATOM     29  C   UNL     1      -2.662  13.666  23.031  0.00  0.00    +0.000 C 
ATOM     30  C   UNL     1      -1.819  13.545  21.763  0.00  0.00    +0.000 C 
ENDBRANCH   8  26
TORSDOF 3
ENDMDL
MODEL 9
REMARK VINA RESULT:      -6.6      2.100      3.001
REMARK  Name = 
REMARK  4 active torsions:
REMARK  status: ('A' for Active; 'I' for Inactive)
REMARK    1  A    between atoms: C_1  and  O_2
REMARK    2  A    between atoms: O_2  and  C_3
REMARK    3  A    between atoms: C_11  and  N_12
REMARK    4  A    between atoms: N_19  and  C_20
REMARK                            x       y       z     vdW  Elec       q    Type
REMARK                         _______ _______ _______ _____ _____    ______ ____
ROOT
ATOM      1  N   UNL     1       1.228   9.925  21.155  0.00  0.00    +0.000 N 
ATOM      2  C   UNL     1       0.056  10.647  21.415  0.00  0.00    +0.000 A 
ATOM      3  C   UNL     1      -0.768  11.084  20.381  0.00  0.00    +0.000 A 
ATOM      4  C   UNL     1      -1.936  11.763  20.730  0.00  0.00    +0.000 A 
ATOM      5  C   UNL     1      -2.213  12.055  22.065  0.00  0.00    +0.000 A 
ATOM      6  C   UNL     1      -3.455  12.747  22.080  0.00  0.00    +0.000 A 
ATOM      7  C   UNL     1      -3.904  12.834  20.786  0.00  0.00    +0.000 A 
ATOM      8  N   UNL     1      -2.975  12.244  19.961  0.00  0.00    +0.000 N 
ATOM      9  C   UNL     1      -1.302  11.651  23.042  0.00  0.00    +0.000 A 
ATOM     10  N   UNL     1      -0.189  10.939  22.711  0.00  0.00    +0.000 NA
ATOM     11  H   UNL     1       1.638   9.610  22.024  0.00  0.00    +0.000 HD
ENDROOT
BRANCH   1  20
ATOM     12  C   UNL     1       3.966   3.583  18.898  0.00  0.00    +0.000 C 
ATOM     13  C   UNL     1       3.903   4.462  20.155  0.00  0.00    +0.000 C 
ATOM     14  C   UNL     1       2.554   5.160  20.359  0.00  0.00    +0.000 C 
ATOM     15  N   UNL     1       2.094   5.758  19.115  0.00  0.00    +0.000 N 
ATOM     16  C   UNL     1       1.951   7.121  18.999  0.00  0.00    +0.000 A 
ATOM     17  N   UNL     1       1.970   7.680  17.782  0.00  0.00    +0.000 NA
ATOM     18  C   UNL     1       1.799   9.011  17.705  0.00  0.00    +0.000 A 
ATOM     19  C   UNL     1       1.589   9.811  18.798  0.00  0.00    +0.000 A 
ATOM     20  C   UNL     1       1.563   9.174  20.016  0.00  0.00    +0.000 A 
ATOM     21  N   UNL     1       1.761   7.845  20.109  0.00  0.00    +0.000 NA
ATOM     22  C   UNL     1       2.067   4.914  17.933  0.00  0.00    +0.000 C 
ATOM     23  C   UNL     1       3.463   4.356  17.676  0.00  0.00    +0.000 C 
BRANCH  12  25
ATOM     24  C   UNL     1       3.684   1.276  18.282  0.00  0.00    +0.000 C 
ATOM     25  O   UNL     1       3.174   2.393  18.992  0.00  0.00    +0.000 OA
ENDBRANCH  12  25
ENDBRANCH   1  20
BRANCH   8  26
ATOM     26  C   UNL     1      -3.098  12.114  18.516  0.00  0.00    +0.000 C 
ATOM     27  C   UNL     1      -2.258  10.983  17.922  0.00  0.00    +0.000 C 
ATOM     28  C   UNL     1      -2.888  10.722  16.560  0.00  0.00    +0.000 C 
ATOM     29  C   UNL     1      -4.355  11.127  16.681  0.00  0.00    +0.000 C 
ATOM     30  C   UNL     1      -4.519  11.805  18.039  0.00  0.00    +0.000 C 
ENDBRANCH   8  26
TORSDOF 3
ENDMDL
