MODEL 1
REMARK VINA RESULT:      -7.3      0.000      0.000
REMARK  Name = 
REMARK  9 active torsions:
REMARK  status: ('A' for Active; 'I' for Inactive)
REMARK    1  A    between atoms: C_1  and  O_2
REMARK    2  A    between atoms: O_2  and  C_3
REMARK    3  A    between atoms: C_6  and  C_7
REMARK    4  A    between atoms: C_7  and  C_8
REMARK    5  A    between atoms: C_12  and  O_13
REMARK    6  A    between atoms: O_13  and  C_14
REMARK    7  A    between atoms: C_15  and  O_16
REMARK    8  A    between atoms: O_16  and  C_17
REMARK    9  A    between atoms: N_21  and  C_22
REMARK                            x       y       z     vdW  Elec       q    Type
REMARK                         _______ _______ _______ _____ _____    ______ ____
ROOT
ATOM      1  C   UNL     1       2.348   4.888  19.730  0.00  0.00    +0.000 C 
ATOM      2  C   UNL     1       2.213   4.370  18.229  0.00  0.00    +0.000 C 
ATOM      3  C   UNL     1       3.683   4.155  17.842  0.00  0.00    +0.000 A 
ATOM      4  C   UNL     1       4.227   4.761  16.704  0.00  0.00    +0.000 A 
ATOM      5  C   UNL     1       5.607   5.075  16.654  0.00  0.00    +0.000 A 
ATOM      6  C   UNL     1       6.390   4.818  17.809  0.00  0.00    +0.000 A 
ATOM      7  C   UNL     1       5.863   4.070  18.876  0.00  0.00    +0.000 A 
ATOM      8  C   UNL     1       4.528   3.690  18.874  0.00  0.00    +0.000 A 
ATOM      9  C   UNL     1       3.888   2.993  20.067  0.00  0.00    +0.000 C 
ATOM     10  N   UNL     1       2.724   3.751  20.601  0.00  0.00    +0.000 NA
ATOM     11  C   UNL     1       1.577   2.863  20.888  0.00  0.00    +0.000 C 
ENDROOT
BRANCH   5  12
ATOM     12  O   UNL     1       6.179   5.690  15.596  0.00  0.00    +0.000 OA
ATOM     13  C   UNL     1       6.798   5.048  14.537  0.00  0.00    +0.000 C 
ENDBRANCH   5  12
BRANCH   6  14
ATOM     14  O   UNL     1       7.640   5.347  17.900  0.00  0.00    +0.000 OA
ATOM     15  C   UNL     1       7.884   6.597  18.464  0.00  0.00    +0.000 C 
ENDBRANCH   6  14
BRANCH   1  16
ATOM     16  C   UNL     1       1.695   6.052  20.522  0.00  0.00    +0.000 C 
BRANCH  16  20
ATOM     17  C   UNL     1       1.326  10.114  19.183  0.00  0.00    +0.000 A 
ATOM     18  C   UNL     1       1.958   9.163  18.375  0.00  0.00    +0.000 A 
ATOM     19  C   UNL     1       2.124   7.854  18.823  0.00  0.00    +0.000 A 
ATOM     20  C   UNL     1       1.688   7.479  20.107  0.00  0.00    +0.000 A 
ATOM     21  C   UNL     1       1.064   8.427  20.923  0.00  0.00    +0.000 A 
ATOM     22  C   UNL     1       0.874   9.736  20.465  0.00  0.00    +0.000 A 
BRANCH  17  24
ATOM     23  C   UNL     1       2.186  12.204  18.252  0.00  0.00    +0.000 C 
ATOM     24  O   UNL     1       1.179  11.368  18.685  0.00  0.00    +0.000 OA
ENDBRANCH  17  24
ENDBRANCH  16  20
ENDBRANCH   1  16
TORSDOF 5
ENDMDL
MODEL 2
REMARK VINA RESULT:      -7.2      0.857      1.323
REMARK  Name = 
REMARK  9 active torsions:
REMARK  status: ('A' for Active; 'I' for Inactive)
REMARK    1  A    between atoms: C_1  and  O_2
REMARK    2  A    between atoms: O_2  and  C_3
REMARK    3  A    between atoms: C_6  and  C_7
REMARK    4  A    between atoms: C_7  and  C_8
REMARK    5  A    between atoms: C_12  and  O_13
REMARK    6  A    between atoms: O_13  and  C_14
REMARK    7  A    between atoms: C_15  and  O_16
REMARK    8  A    between atoms: O_16  and  C_17
REMARK    9  A    between atoms: N_21  and  C_22
REMARK                            x       y       z     vdW  Elec       q    Type
REMARK                         _______ _______ _______ _____ _____    ______ ____
ROOT
ATOM      1  C   UNL     1       2.270   5.647  19.590  0.00  0.00    +0.000 C 
ATOM      2  C   UNL     1       2.180   5.254  18.048  0.00  0.00    +0.000 C 
ATOM      3  C   UNL     1       3.588   4.701  17.786  0.00  0.00    +0.000 A 
ATOM      4  C   UNL     1       4.384   5.210  16.754  0.00  0.00    +0.000 A 
ATOM      5  C   UNL     1       5.796   5.174  16.859  0.00  0.00    +0.000 A 
ATOM      6  C   UNL     1       6.362   4.673  18.060  0.00  0.00    +0.000 A 
ATOM      7  C   UNL     1       5.555   4.027  19.012  0.00  0.00    +0.000 A 
ATOM      8  C   UNL     1       4.176   3.990  18.855  0.00  0.00    +0.000 A 
ATOM      9  C   UNL     1       3.259   3.414  19.926  0.00  0.00    +0.000 C 
ATOM     10  N   UNL     1       2.262   4.409  20.404  0.00  0.00    +0.000 NA
ATOM     11  C   UNL     1       0.909   3.820  20.513  0.00  0.00    +0.000 C 
ENDROOT
BRANCH   5  12
ATOM     12  O   UNL     1       6.612   5.681  15.909  0.00  0.00    +0.000 OA
ATOM     13  C   UNL     1       7.096   4.983  14.815  0.00  0.00    +0.000 C 
ENDBRANCH   5  12
BRANCH   6  14
ATOM     14  O   UNL     1       7.684   4.871  18.309  0.00  0.00    +0.000 OA
ATOM     15  C   UNL     1       8.139   5.797  19.244  0.00  0.00    +0.000 C 
ENDBRANCH   6  14
BRANCH   1  16
ATOM     16  C   UNL     1       1.834   6.894  20.402  0.00  0.00    +0.000 C 
BRANCH  16  20
ATOM     17  C   UNL     1       1.217  10.853  18.861  0.00  0.00    +0.000 A 
ATOM     18  C   UNL     1       0.764  10.519  20.141  0.00  0.00    +0.000 A 
ATOM     19  C   UNL     1       0.917   9.223  20.630  0.00  0.00    +0.000 A 
ATOM     20  C   UNL     1       1.502   8.225  19.828  0.00  0.00    +0.000 A 
ATOM     21  C   UNL     1       1.949   8.549  18.545  0.00  0.00    +0.000 A 
ATOM     22  C   UNL     1       1.818   9.857  18.063  0.00  0.00    +0.000 A 
BRANCH  17  24
ATOM     23  C   UNL     1      -0.089  12.897  18.563  0.00  0.00    +0.000 C 
ATOM     24  O   UNL     1       1.054  12.136  18.447  0.00  0.00    +0.000 OA
ENDBRANCH  17  24
ENDBRANCH  16  20
ENDBRANCH   1  16
TORSDOF 5
ENDMDL
MODEL 3
REMARK VINA RESULT:      -6.9      1.188      1.587
REMARK  Name = 
REMARK  9 active torsions:
REMARK  status: ('A' for Active; 'I' for Inactive)
REMARK    1  A    between atoms: C_1  and  O_2
REMARK    2  A    between atoms: O_2  and  C_3
REMARK    3  A    between atoms: C_6  and  C_7
REMARK    4  A    between atoms: C_7  and  C_8
REMARK    5  A    between atoms: C_12  and  O_13
REMARK    6  A    between atoms: O_13  and  C_14
REMARK    7  A    between atoms: C_15  and  O_16
REMARK    8  A    between atoms: O_16  and  C_17
REMARK    9  A    between atoms: N_21  and  C_22
REMARK                            x       y       z     vdW  Elec       q    Type
REMARK                         _______ _______ _______ _____ _____    ______ ____
ROOT
ATOM      1  C   UNL     1       3.141   4.619  18.217  0.00  0.00    +0.000 C 
ATOM      2  C   UNL     1       3.685   3.583  17.135  0.00  0.00    +0.000 C 
ATOM      3  C   UNL     1       5.156   4.006  17.013  0.00  0.00    +0.000 A 
ATOM      4  C   UNL     1       5.716   4.323  15.771  0.00  0.00    +0.000 A 
ATOM      5  C   UNL     1       6.792   5.240  15.687  0.00  0.00    +0.000 A 
ATOM      6  C   UNL     1       7.227   5.866  16.883  0.00  0.00    +0.000 A 
ATOM      7  C   UNL     1       6.760   5.419  18.132  0.00  0.00    +0.000 A 
ATOM      8  C   UNL     1       5.766   4.454  18.205  0.00  0.00    +0.000 A 
ATOM      9  C   UNL     1       5.144   4.038  19.532  0.00  0.00    +0.000 C 
ATOM     10  N   UNL     1       3.671   4.248  19.550  0.00  0.00    +0.000 NA
ATOM     11  C   UNL     1       2.960   3.089  20.131  0.00  0.00    +0.000 C 
ENDROOT
BRANCH   5  12
ATOM     12  O   UNL     1       7.349   5.607  14.512  0.00  0.00    +0.000 OA
ATOM     13  C   UNL     1       7.348   4.848  13.355  0.00  0.00    +0.000 C 
ENDBRANCH   5  12
BRANCH   6  14
ATOM     14  O   UNL     1       8.060   6.938  16.812  0.00  0.00    +0.000 OA
ATOM     15  C   UNL     1       7.845   8.103  17.543  0.00  0.00    +0.000 C 
ENDBRANCH   6  14
BRANCH   1  16
ATOM     16  C   UNL     1       1.865   5.497  18.309  0.00  0.00    +0.000 C 
BRANCH  16  20
ATOM     17  C   UNL     1       1.358   9.549  19.632  0.00  0.00    +0.000 A 
ATOM     18  C   UNL     1       1.566   9.273  18.277  0.00  0.00    +0.000 A 
ATOM     19  C   UNL     1       1.780   7.965  17.846  0.00  0.00    +0.000 A 
ATOM     20  C   UNL     1       1.821   6.908  18.774  0.00  0.00    +0.000 A 
ATOM     21  C   UNL     1       1.623   7.178  20.131  0.00  0.00    +0.000 A 
ATOM     22  C   UNL     1       1.383   8.487  20.561  0.00  0.00    +0.000 A 
BRANCH  17  24
ATOM     23  C   UNL     1       1.104  11.930  19.145  0.00  0.00    +0.000 C 
ATOM     24  O   UNL     1       1.139  10.841  19.988  0.00  0.00    +0.000 OA
ENDBRANCH  17  24
ENDBRANCH  16  20
ENDBRANCH   1  16
TORSDOF 5
ENDMDL
MODEL 4
REMARK VINA RESULT:      -6.9      2.652      4.734
REMARK  Name = 
REMARK  9 active torsions:
REMARK  status: ('A' for Active; 'I' for Inactive)
REMARK    1  A    between atoms: C_1  and  O_2
REMARK    2  A    between atoms: O_2  and  C_3
REMARK    3  A    between atoms: C_6  and  C_7
REMARK    4  A    between atoms: C_7  and  C_8
REMARK    5  A    between atoms: C_12  and  O_13
REMARK    6  A    between atoms: O_13  and  C_14
REMARK    7  A    between atoms: C_15  and  O_16
REMARK    8  A    between atoms: O_16  and  C_17
REMARK    9  A    between atoms: N_21  and  C_22
REMARK                            x       y       z     vdW  Elec       q    Type
REMARK                         _______ _______ _______ _____ _____    ______ ____
ROOT
ATOM      1  C   UNL     1       4.524   6.210  17.409  0.00  0.00    +0.000 C 
ATOM      2  C   UNL     1       5.478   5.623  18.543  0.00  0.00    +0.000 C 
ATOM      3  C   UNL     1       4.913   4.207  18.722  0.00  0.00    +0.000 A 
ATOM      4  C   UNL     1       4.515   3.741  19.980  0.00  0.00    +0.000 A 
ATOM      5  C   UNL     1       3.497   2.763  20.088  0.00  0.00    +0.000 A 
ATOM      6  C   UNL     1       2.859   2.331  18.896  0.00  0.00    +0.000 A 
ATOM      7  C   UNL     1       3.376   2.692  17.641  0.00  0.00    +0.000 A 
ATOM      8  C   UNL     1       4.435   3.585  17.548  0.00  0.00    +0.000 A 
ATOM      9  C   UNL     1       4.939   4.099  16.205  0.00  0.00    +0.000 C 
ATOM     10  N   UNL     1       4.873   5.583  16.114  0.00  0.00    +0.000 NA
ATOM     11  C   UNL     1       6.108   6.151  15.531  0.00  0.00    +0.000 C 
ENDROOT
BRANCH   5  12
ATOM     12  O   UNL     1       3.050   2.301  21.277  0.00  0.00    +0.000 OA
ATOM     13  C   UNL     1       2.099   2.922  22.069  0.00  0.00    +0.000 C 
ENDBRANCH   5  12
BRANCH   6  14
ATOM     14  O   UNL     1       1.709   1.608  18.978  0.00  0.00    +0.000 OA
ATOM     15  C   UNL     1       0.451   2.184  18.824  0.00  0.00    +0.000 C 
ENDBRANCH   6  14
BRANCH   1  16
ATOM     16  C   UNL     1       3.776   7.558  17.234  0.00  0.00    +0.000 C 
BRANCH  16  20
ATOM     17  C   UNL     1       0.924   9.234  19.970  0.00  0.00    +0.000 A 
ATOM     18  C   UNL     1       1.528   8.004  20.251  0.00  0.00    +0.000 A 
ATOM     19  C   UNL     1       2.418   7.430  19.345  0.00  0.00    +0.000 A 
ATOM     20  C   UNL     1       2.697   8.066  18.121  0.00  0.00    +0.000 A 
ATOM     21  C   UNL     1       2.090   9.292  17.830  0.00  0.00    +0.000 A 
ATOM     22  C   UNL     1       1.216   9.881  18.750  0.00  0.00    +0.000 A 
BRANCH  17  24
ATOM     23  C   UNL     1       0.221   9.679  22.268  0.00  0.00    +0.000 C 
ATOM     24  O   UNL     1       0.079   9.751  20.899  0.00  0.00    +0.000 OA
ENDBRANCH  17  24
ENDBRANCH  16  20
ENDBRANCH   1  16
TORSDOF 5
ENDMDL
MODEL 5
REMARK VINA RESULT:      -6.8      0.289      1.028
REMARK  Name = 
REMARK  9 active torsions:
REMARK  status: ('A' for Active; 'I' for Inactive)
REMARK    1  A    between atoms: C_1  and  O_2
REMARK    2  A    between atoms: O_2  and  C_3
REMARK    3  A    between atoms: C_6  and  C_7
REMARK    4  A    between atoms: C_7  and  C_8
REMARK    5  A    between atoms: C_12  and  O_13
REMARK    6  A    between atoms: O_13  and  C_14
REMARK    7  A    between atoms: C_15  and  O_16
REMARK    8  A    between atoms: O_16  and  C_17
REMARK    9  A    between atoms: N_21  and  C_22
REMARK                            x       y       z     vdW  Elec       q    Type
REMARK                         _______ _______ _______ _____ _____    ______ ____
ROOT
ATOM      1  C   UNL     1       2.522   4.750  19.713  0.00  0.00    +0.000 C 
ATOM      2  C   UNL     1       2.351   4.126  18.256  0.00  0.00    +0.000 C 
ATOM      3  C   UNL     1       3.809   4.030  17.787  0.00  0.00    +0.000 A 
ATOM      4  C   UNL     1       4.221   4.611  16.583  0.00  0.00    +0.000 A 
ATOM      5  C   UNL     1       5.557   5.054  16.425  0.00  0.00    +0.000 A 
ATOM      6  C   UNL     1       6.429   4.948  17.539  0.00  0.00    +0.000 A 
ATOM      7  C   UNL     1       6.044   4.223  18.680  0.00  0.00    +0.000 A 
ATOM      8  C   UNL     1       4.756   3.716  18.787  0.00  0.00    +0.000 A 
ATOM      9  C   UNL     1       4.261   3.037  20.058  0.00  0.00    +0.000 C 
ATOM     10  N   UNL     1       3.061   3.712  20.622  0.00  0.00    +0.000 NA
ATOM     11  C   UNL     1       2.028   2.738  21.034  0.00  0.00    +0.000 C 
ENDROOT
BRANCH   5  12
ATOM     12  O   UNL     1       6.000   5.652  15.298  0.00  0.00    +0.000 OA
ATOM     13  C   UNL     1       6.639   5.010  14.250  0.00  0.00    +0.000 C 
ENDBRANCH   5  12
BRANCH   6  14
ATOM     14  O   UNL     1       7.622   5.601  17.518  0.00  0.00    +0.000 OA
ATOM     15  C   UNL     1       7.949   6.592  18.439  0.00  0.00    +0.000 C 
ENDBRANCH   6  14
BRANCH   1  16
ATOM     16  C   UNL     1       1.803   5.893  20.477  0.00  0.00    +0.000 C 
BRANCH  16  20
ATOM     17  C   UNL     1       1.471   9.959  19.141  0.00  0.00    +0.000 A 
ATOM     18  C   UNL     1       0.857   9.558  20.332  0.00  0.00    +0.000 A 
ATOM     19  C   UNL     1       0.919   8.230  20.747  0.00  0.00    +0.000 A 
ATOM     20  C   UNL     1       1.574   7.267  19.958  0.00  0.00    +0.000 A 
ATOM     21  C   UNL     1       2.184   7.659  18.762  0.00  0.00    +0.000 A 
ATOM     22  C   UNL     1       2.143   8.997  18.357  0.00  0.00    +0.000 A 
BRANCH  17  24
ATOM     23  C   UNL     1       2.338  11.999  18.112  0.00  0.00    +0.000 C 
ATOM     24  O   UNL     1       1.390  11.270  18.798  0.00  0.00    +0.000 OA
ENDBRANCH  17  24
ENDBRANCH  16  20
ENDBRANCH   1  16
TORSDOF 5
ENDMDL
MODEL 6
REMARK VINA RESULT:      -6.7      3.890      7.413
REMARK  Name = 
REMARK  9 active torsions:
REMARK  status: ('A' for Active; 'I' for Inactive)
REMARK    1  A    between atoms: C_1  and  O_2
REMARK    2  A    between atoms: O_2  and  C_3
REMARK    3  A    between atoms: C_6  and  C_7
REMARK    4  A    between atoms: C_7  and  C_8
REMARK    5  A    between atoms: C_12  and  O_13
REMARK    6  A    between atoms: O_13  and  C_14
REMARK    7  A    between atoms: C_15  and  O_16
REMARK    8  A    between atoms: O_16  and  C_17
REMARK    9  A    between atoms: N_21  and  C_22
REMARK                            x       y       z     vdW  Elec       q    Type
REMARK                         _______ _______ _______ _____ _____    ______ ____
ROOT
ATOM      1  C   UNL     1       6.374   6.085  16.579  0.00  0.00    +0.000 C 
ATOM      2  C   UNL     1       4.947   6.715  16.905  0.00  0.00    +0.000 C 
ATOM      3  C   UNL     1       4.397   5.722  17.938  0.00  0.00    +0.000 A 
ATOM      4  C   UNL     1       3.156   5.101  17.756  0.00  0.00    +0.000 A 
ATOM      5  C   UNL     1       2.910   3.822  18.311  0.00  0.00    +0.000 A 
ATOM      6  C   UNL     1       3.975   3.175  18.990  0.00  0.00    +0.000 A 
ATOM      7  C   UNL     1       5.154   3.876  19.296  0.00  0.00    +0.000 A 
ATOM      8  C   UNL     1       5.349   5.165  18.820  0.00  0.00    +0.000 A 
ATOM      9  C   UNL     1       6.664   5.907  19.020  0.00  0.00    +0.000 C 
ATOM     10  N   UNL     1       7.278   6.317  17.728  0.00  0.00    +0.000 NA
ATOM     11  C   UNL     1       7.775   7.710  17.776  0.00  0.00    +0.000 C 
ENDROOT
BRANCH   5  12
ATOM     12  O   UNL     1       1.743   3.163  18.139  0.00  0.00    +0.000 OA
ATOM     13  C   UNL     1       0.780   2.975  19.115  0.00  0.00    +0.000 C 
ENDBRANCH   5  12
BRANCH   6  14
ATOM     14  O   UNL     1       3.868   1.855  19.297  0.00  0.00    +0.000 OA
ATOM     15  C   UNL     1       4.743   1.217  20.172  0.00  0.00    +0.000 C 
ENDBRANCH   6  14
BRANCH   1  16
ATOM     16  C   UNL     1       7.146   5.813  15.261  0.00  0.00    +0.000 C 
BRANCH  16  20
ATOM     17  C   UNL     1       5.922   3.071  12.194  0.00  0.00    +0.000 A 
ATOM     18  C   UNL     1       7.108   3.797  12.053  0.00  0.00    +0.000 A 
ATOM     19  C   UNL     1       7.488   4.725  13.022  0.00  0.00    +0.000 A 
ATOM     20  C   UNL     1       6.666   4.966  14.138  0.00  0.00    +0.000 A 
ATOM     21  C   UNL     1       5.474   4.249  14.280  0.00  0.00    +0.000 A 
ATOM     22  C   UNL     1       5.105   3.299  13.322  0.00  0.00    +0.000 A 
BRANCH  17  24
ATOM     23  C   UNL     1       6.201   0.937  11.035  0.00  0.00    +0.000 C 
ATOM     24  O   UNL     1       5.614   2.169  11.226  0.00  0.00    +0.000 OA
ENDBRANCH  17  24
ENDBRANCH  16  20
ENDBRANCH   1  16
TORSDOF 5
ENDMDL
MODEL 7
REMARK VINA RESULT:      -6.6      2.659      4.662
REMARK  Name = 
REMARK  9 active torsions:
REMARK  status: ('A' for Active; 'I' for Inactive)
REMARK    1  A    between atoms: C_1  and  O_2
REMARK    2  A    between atoms: O_2  and  C_3
REMARK    3  A    between atoms: C_6  and  C_7
REMARK    4  A    between atoms: C_7  and  C_8
REMARK    5  A    between atoms: C_12  and  O_13
REMARK    6  A    between atoms: O_13  and  C_14
REMARK    7  A    between atoms: C_15  and  O_16
REMARK    8  A    between atoms: O_16  and  C_17
REMARK    9  A    between atoms: N_21  and  C_22
REMARK                            x       y       z     vdW  Elec       q    Type
REMARK                         _______ _______ _______ _____ _____    ______ ____
ROOT
ATOM      1  C   UNL     1       4.548   6.122  17.310  0.00  0.00    +0.000 C 
ATOM      2  C   UNL     1       5.504   5.571  18.460  0.00  0.00    +0.000 C 
ATOM      3  C   UNL     1       4.935   4.164  18.689  0.00  0.00    +0.000 A 
ATOM      4  C   UNL     1       4.540   3.743  19.964  0.00  0.00    +0.000 A 
ATOM      5  C   UNL     1       3.520   2.772  20.110  0.00  0.00    +0.000 A 
ATOM      6  C   UNL     1       2.876   2.302  18.936  0.00  0.00    +0.000 A 
ATOM      7  C   UNL     1       3.390   2.618  17.667  0.00  0.00    +0.000 A 
ATOM      8  C   UNL     1       4.451   3.504  17.539  0.00  0.00    +0.000 A 
ATOM      9  C   UNL     1       4.951   3.970  16.178  0.00  0.00    +0.000 C 
ATOM     10  N   UNL     1       4.889   5.450  16.035  0.00  0.00    +0.000 NA
ATOM     11  C   UNL     1       6.124   5.993  15.429  0.00  0.00    +0.000 C 
ENDROOT
BRANCH   5  12
ATOM     12  O   UNL     1       3.077   2.354  21.315  0.00  0.00    +0.000 OA
ATOM     13  C   UNL     1       2.069   2.956  22.050  0.00  0.00    +0.000 C 
ENDBRANCH   5  12
BRANCH   6  14
ATOM     14  O   UNL     1       1.725   1.586  19.046  0.00  0.00    +0.000 OA
ATOM     15  C   UNL     1       0.469   2.153  18.844  0.00  0.00    +0.000 C 
ENDBRANCH   6  14
BRANCH   1  16
ATOM     16  C   UNL     1       3.803   7.465  17.092  0.00  0.00    +0.000 C 
BRANCH  16  20
ATOM     17  C   UNL     1       0.895   9.140  19.769  0.00  0.00    +0.000 A 
ATOM     18  C   UNL     1       1.212   9.797  18.576  0.00  0.00    +0.000 A 
ATOM     19  C   UNL     1       2.190   9.285  17.725  0.00  0.00    +0.000 A 
ATOM     20  C   UNL     1       2.894   8.117  18.071  0.00  0.00    +0.000 A 
ATOM     21  C   UNL     1       2.588   7.460  19.266  0.00  0.00    +0.000 A 
ATOM     22  C   UNL     1       1.589   7.959  20.109  0.00  0.00    +0.000 A 
BRANCH  17  24
ATOM     23  C   UNL     1      -0.686  10.902  20.374  0.00  0.00    +0.000 C 
ATOM     24  O   UNL     1      -0.078   9.678  20.549  0.00  0.00    +0.000 OA
ENDBRANCH  17  24
ENDBRANCH  16  20
ENDBRANCH   1  16
TORSDOF 5
ENDMDL
MODEL 8
REMARK VINA RESULT:      -6.5      1.516      1.901
REMARK  Name = 
REMARK  9 active torsions:
REMARK  status: ('A' for Active; 'I' for Inactive)
REMARK    1  A    between atoms: C_1  and  O_2
REMARK    2  A    between atoms: O_2  and  C_3
REMARK    3  A    between atoms: C_6  and  C_7
REMARK    4  A    between atoms: C_7  and  C_8
REMARK    5  A    between atoms: C_12  and  O_13
REMARK    6  A    between atoms: O_13  and  C_14
REMARK    7  A    between atoms: C_15  and  O_16
REMARK    8  A    between atoms: O_16  and  C_17
REMARK    9  A    between atoms: N_21  and  C_22
REMARK                            x       y       z     vdW  Elec       q    Type
REMARK                         _______ _______ _______ _____ _____    ______ ____
ROOT
ATOM      1  C   UNL     1       2.453   5.667  19.376  0.00  0.00    +0.000 C 
ATOM      2  C   UNL     1       2.623   6.003  17.828  0.00  0.00    +0.000 C 
ATOM      3  C   UNL     1       4.097   5.643  17.593  0.00  0.00    +0.000 A 
ATOM      4  C   UNL     1       4.988   6.569  17.039  0.00  0.00    +0.000 A 
ATOM      5  C   UNL     1       6.367   6.509  17.354  0.00  0.00    +0.000 A 
ATOM      6  C   UNL     1       6.793   5.533  18.292  0.00  0.00    +0.000 A 
ATOM      7  C   UNL     1       5.916   4.519  18.713  0.00  0.00    +0.000 A 
ATOM      8  C   UNL     1       4.583   4.538  18.325  0.00  0.00    +0.000 A 
ATOM      9  C   UNL     1       3.573   3.532  18.863  0.00  0.00    +0.000 C 
ATOM     10  N   UNL     1       2.434   4.197  19.552  0.00  0.00    +0.000 NA
ATOM     11  C   UNL     1       1.137   3.603  19.162  0.00  0.00    +0.000 C 
ENDROOT
BRANCH   5  12
ATOM     12  O   UNL     1       7.266   7.397  16.876  0.00  0.00    +0.000 OA
ATOM     13  C   UNL     1       7.736   8.506  17.558  0.00  0.00    +0.000 C 
ENDBRANCH   5  12
BRANCH   6  14
ATOM     14  O   UNL     1       8.043   5.615  18.822  0.00  0.00    +0.000 OA
ATOM     15  C   UNL     1       8.287   5.479  20.186  0.00  0.00    +0.000 C 
ENDBRANCH   6  14
BRANCH   1  16
ATOM     16  C   UNL     1       1.796   6.416  20.566  0.00  0.00    +0.000 C 
BRANCH  16  20
ATOM     17  C   UNL     1       0.626  10.545  20.666  0.00  0.00    +0.000 A 
ATOM     18  C   UNL     1       1.062   9.967  19.469  0.00  0.00    +0.000 A 
ATOM     19  C   UNL     1       1.489   8.641  19.439  0.00  0.00    +0.000 A 
ATOM     20  C   UNL     1       1.518   7.875  20.620  0.00  0.00    +0.000 A 
ATOM     21  C   UNL     1       1.092   8.449  21.821  0.00  0.00    +0.000 A 
ATOM     22  C   UNL     1       0.639   9.773  21.847  0.00  0.00    +0.000 A 
BRANCH  17  24
ATOM     23  C   UNL     1      -1.097  12.272  20.520  0.00  0.00    +0.000 C 
ATOM     24  O   UNL     1       0.205  11.835  20.629  0.00  0.00    +0.000 OA
ENDBRANCH  17  24
ENDBRANCH  16  20
ENDBRANCH   1  16
TORSDOF 5
ENDMDL
MODEL 9
REMARK VINA RESULT:      -6.5      1.537      2.079
REMARK  Name = 
REMARK  9 active torsions:
REMARK  status: ('A' for Active; 'I' for Inactive)
REMARK    1  A    between atoms: C_1  and  O_2
REMARK    2  A    between atoms: O_2  and  C_3
REMARK    3  A    between atoms: C_6  and  C_7
REMARK    4  A    between atoms: C_7  and  C_8
REMARK    5  A    between atoms: C_12  and  O_13
REMARK    6  A    between atoms: O_13  and  C_14
REMARK    7  A    between atoms: C_15  and  O_16
REMARK    8  A    between atoms: O_16  and  C_17
REMARK    9  A    between atoms: N_21  and  C_22
REMARK                            x       y       z     vdW  Elec       q    Type
REMARK                         _______ _______ _______ _____ _____    ______ ____
ROOT
ATOM      1  C   UNL     1       2.331   5.827  19.749  0.00  0.00    +0.000 C 
ATOM      2  C   UNL     1       2.413   6.032  18.170  0.00  0.00    +0.000 C 
ATOM      3  C   UNL     1       3.818   5.498  17.860  0.00  0.00    +0.000 A 
ATOM      4  C   UNL     1       4.754   6.280  17.174  0.00  0.00    +0.000 A 
ATOM      5  C   UNL     1       6.140   6.092  17.394  0.00  0.00    +0.000 A 
ATOM      6  C   UNL     1       6.535   5.142  18.373  0.00  0.00    +0.000 A 
ATOM      7  C   UNL     1       5.593   4.263  18.933  0.00  0.00    +0.000 A 
ATOM      8  C   UNL     1       4.243   4.400  18.641  0.00  0.00    +0.000 A 
ATOM      9  C   UNL     1       3.180   3.551  19.326  0.00  0.00    +0.000 C 
ATOM     10  N   UNL     1       2.174   4.383  20.040  0.00  0.00    +0.000 NA
ATOM     11  C   UNL     1       0.795   3.909  19.790  0.00  0.00    +0.000 C 
ENDROOT
BRANCH   5  12
ATOM     12  O   UNL     1       7.085   6.839  16.785  0.00  0.00    +0.000 OA
ATOM     13  C   UNL     1       7.638   8.001  17.296  0.00  0.00    +0.000 C 
ENDBRANCH   5  12
BRANCH   6  14
ATOM     14  O   UNL     1       7.824   5.125  18.805  0.00  0.00    +0.000 OA
ATOM     15  C   UNL     1       8.193   5.556  20.076  0.00  0.00    +0.000 C 
ENDBRANCH   6  14
BRANCH   1  16
ATOM     16  C   UNL     1       1.852   6.725  20.920  0.00  0.00    +0.000 C 
BRANCH  16  20
ATOM     17  C   UNL     1       0.020  10.600  20.683  0.00  0.00    +0.000 A 
ATOM     18  C   UNL     1      -0.280   9.745  21.749  0.00  0.00    +0.000 A 
ATOM     19  C   UNL     1       0.273   8.467  21.807  0.00  0.00    +0.000 A 
ATOM     20  C   UNL     1       1.116   8.008  20.777  0.00  0.00    +0.000 A 
ATOM     21  C   UNL     1       1.413   8.854  19.705  0.00  0.00    +0.000 A 
ATOM     22  C   UNL     1       0.878  10.146  19.658  0.00  0.00    +0.000 A 
BRANCH  17  24
ATOM     23  C   UNL     1      -1.559  12.284  19.881  0.00  0.00    +0.000 C 
ATOM     24  O   UNL     1      -0.536  11.839  20.690  0.00  0.00    +0.000 OA
ENDBRANCH  17  24
ENDBRANCH  16  20
ENDBRANCH   1  16
TORSDOF 5
ENDMDL
