MODEL 1
REMARK VINA RESULT:      -7.2      0.000      0.000
REMARK  Name = 
REMARK  3 active torsions:
REMARK  status: ('A' for Active; 'I' for Inactive)
REMARK    1  A    between atoms: C_2  and  O_3
REMARK    2  A    between atoms: C_2  and  C_11
REMARK    3  A    between atoms: O_3  and  C_4
REMARK                            x       y       z     vdW  Elec       q    Type
REMARK                         _______ _______ _______ _____ _____    ______ ____
ROOT
ATOM      1  O   UNL     1       7.268   5.335  20.126  0.00  0.00    +0.000 OA
ATOM      2  C   UNL     1       6.432   5.523  19.253  0.00  0.00    +0.000 C 
ENDROOT
BRANCH   2   3
ATOM      3  C   UNL     1       5.059   4.950  19.356  0.00  0.00    +0.000 A 
ATOM      4  C   UNL     1       3.998   5.854  19.525  0.00  0.00    +0.000 A 
ATOM      5  C   UNL     1       2.666   5.429  19.535  0.00  0.00    +0.000 A 
ATOM      6  C   UNL     1       2.424   4.062  19.359  0.00  0.00    +0.000 A 
ATOM      7  S   UNL     1       0.945   3.184  19.262  0.00  0.00    +0.000 S 
ATOM      8  N   UNL     1       1.711   1.715  19.051  0.00  0.00    +0.000 NA
ATOM      9  N   UNL     1       3.030   1.813  19.050  0.00  0.00    +0.000 NA
ATOM     10  C   UNL     1       3.455   3.128  19.211  0.00  0.00    +0.000 A 
ATOM     11  C   UNL     1       4.794   3.579  19.225  0.00  0.00    +0.000 A 
ENDBRANCH   2   3
BRANCH   2  12
ATOM     12  O   UNL     1       6.566   6.301  18.116  0.00  0.00    +0.000 OA
BRANCH  12  13
ATOM     13  C   UNL     1       6.342   5.737  16.841  0.00  0.00    +0.000 A 
ATOM     14  C   UNL     1       5.395   6.218  15.936  0.00  0.00    +0.000 A 
ATOM     15  C   UNL     1       5.204   5.563  14.717  0.00  0.00    +0.000 A 
ATOM     16  C   UNL     1       5.984   4.453  14.395  0.00  0.00    +0.000 A 
ATOM     17 CL   UNL     1       5.728   3.634  12.904  0.00  0.00    +0.000 Cl
ATOM     18  C   UNL     1       6.968   4.003  15.275  0.00  0.00    +0.000 A 
ATOM     19  C   UNL     1       7.151   4.648  16.502  0.00  0.00    +0.000 A 
ENDBRANCH  12  13
ENDBRANCH   2  12
TORSDOF 3
ENDMDL
MODEL 2
REMARK VINA RESULT:      -7.0      0.126      1.117
REMARK  Name = 
REMARK  3 active torsions:
REMARK  status: ('A' for Active; 'I' for Inactive)
REMARK    1  A    between atoms: C_2  and  O_3
REMARK    2  A    between atoms: C_2  and  C_11
REMARK    3  A    between atoms: O_3  and  C_4
REMARK                            x       y       z     vdW  Elec       q    Type
REMARK                         _______ _______ _______ _____ _____    ______ ____
ROOT
ATOM      1  O   UNL     1       7.270   5.451  20.108  0.00  0.00    +0.000 OA
ATOM      2  C   UNL     1       6.446   5.564  19.211  0.00  0.00    +0.000 C 
ENDROOT
BRANCH   2   3
ATOM      3  C   UNL     1       5.072   5.000  19.342  0.00  0.00    +0.000 A 
ATOM      4  C   UNL     1       4.016   5.913  19.491  0.00  0.00    +0.000 A 
ATOM      5  C   UNL     1       2.682   5.494  19.525  0.00  0.00    +0.000 A 
ATOM      6  C   UNL     1       2.434   4.124  19.395  0.00  0.00    +0.000 A 
ATOM      7  S   UNL     1       0.951   3.248  19.337  0.00  0.00    +0.000 S 
ATOM      8  N   UNL     1       1.710   1.770  19.167  0.00  0.00    +0.000 NA
ATOM      9  N   UNL     1       3.029   1.864  19.153  0.00  0.00    +0.000 NA
ATOM     10  C   UNL     1       3.460   3.181  19.269  0.00  0.00    +0.000 A 
ATOM     11  C   UNL     1       4.801   3.627  19.258  0.00  0.00    +0.000 A 
ENDBRANCH   2   3
BRANCH   2  12
ATOM     12  O   UNL     1       6.597   6.242  18.014  0.00  0.00    +0.000 OA
BRANCH  12  13
ATOM     13  C   UNL     1       6.403   5.568  16.788  0.00  0.00    +0.000 A 
ATOM     14  C   UNL     1       7.117   4.431  16.407  0.00  0.00    +0.000 A 
ATOM     15  C   UNL     1       6.896   3.862  15.150  0.00  0.00    +0.000 A 
ATOM     16  C   UNL     1       5.941   4.410  14.297  0.00  0.00    +0.000 A 
ATOM     17 CL   UNL     1       5.690   3.722  12.741  0.00  0.00    +0.000 Cl
ATOM     18  C   UNL     1       5.188   5.515  14.698  0.00  0.00    +0.000 A 
ATOM     19  C   UNL     1       5.417   6.095  15.948  0.00  0.00    +0.000 A 
ENDBRANCH  12  13
ENDBRANCH   2  12
TORSDOF 3
ENDMDL
MODEL 3
REMARK VINA RESULT:      -7.0      2.799      3.632
REMARK  Name = 
REMARK  3 active torsions:
REMARK  status: ('A' for Active; 'I' for Inactive)
REMARK    1  A    between atoms: C_2  and  O_3
REMARK    2  A    between atoms: C_2  and  C_11
REMARK    3  A    between atoms: O_3  and  C_4
REMARK                            x       y       z     vdW  Elec       q    Type
REMARK                         _______ _______ _______ _____ _____    ______ ____
ROOT
ATOM      1  O   UNL     1       5.103   3.980  15.574  0.00  0.00    +0.000 OA
ATOM      2  C   UNL     1       5.353   4.009  16.771  0.00  0.00    +0.000 C 
ENDROOT
BRANCH   2   3
ATOM      3  C   UNL     1       4.274   3.896  17.793  0.00  0.00    +0.000 A 
ATOM      4  C   UNL     1       2.974   4.246  17.395  0.00  0.00    +0.000 A 
ATOM      5  C   UNL     1       1.876   4.083  18.246  0.00  0.00    +0.000 A 
ATOM      6  C   UNL     1       2.118   3.546  19.515  0.00  0.00    +0.000 A 
ATOM      7  S   UNL     1       1.037   3.155  20.798  0.00  0.00    +0.000 S 
ATOM      8  N   UNL     1       2.257   2.604  21.797  0.00  0.00    +0.000 NA
ATOM      9  N   UNL     1       3.456   2.689  21.246  0.00  0.00    +0.000 NA
ATOM     10  C   UNL     1       3.402   3.207  19.956  0.00  0.00    +0.000 A 
ATOM     11  C   UNL     1       4.498   3.400  19.086  0.00  0.00    +0.000 A 
ENDBRANCH   2   3
BRANCH   2  12
ATOM     12  O   UNL     1       6.601   4.082  17.366  0.00  0.00    +0.000 OA
BRANCH  12  13
ATOM     13  C   UNL     1       7.153   5.337  17.704  0.00  0.00    +0.000 A 
ATOM     14  C   UNL     1       7.866   5.580  18.879  0.00  0.00    +0.000 A 
ATOM     15  C   UNL     1       8.330   6.868  19.156  0.00  0.00    +0.000 A 
ATOM     16  C   UNL     1       8.109   7.897  18.243  0.00  0.00    +0.000 A 
ATOM     17 CL   UNL     1       8.659   9.488  18.600  0.00  0.00    +0.000 Cl
ATOM     18  C   UNL     1       7.443   7.645  17.043  0.00  0.00    +0.000 A 
ATOM     19  C   UNL     1       6.965   6.361  16.770  0.00  0.00    +0.000 A 
ENDBRANCH  12  13
ENDBRANCH   2  12
TORSDOF 3
ENDMDL
MODEL 4
REMARK VINA RESULT:      -6.9      2.844      3.534
REMARK  Name = 
REMARK  3 active torsions:
REMARK  status: ('A' for Active; 'I' for Inactive)
REMARK    1  A    between atoms: C_2  and  O_3
REMARK    2  A    between atoms: C_2  and  C_11
REMARK    3  A    between atoms: O_3  and  C_4
REMARK                            x       y       z     vdW  Elec       q    Type
REMARK                         _______ _______ _______ _____ _____    ______ ____
ROOT
ATOM      1  O   UNL     1       5.077   3.767  15.532  0.00  0.00    +0.000 OA
ATOM      2  C   UNL     1       5.439   3.962  16.684  0.00  0.00    +0.000 C 
ENDROOT
BRANCH   2   3
ATOM      3  C   UNL     1       4.468   3.952  17.816  0.00  0.00    +0.000 A 
ATOM      4  C   UNL     1       3.263   4.649  17.634  0.00  0.00    +0.000 A 
ATOM      5  C   UNL     1       2.247   4.621  18.594  0.00  0.00    +0.000 A 
ATOM      6  C   UNL     1       2.468   3.860  19.746  0.00  0.00    +0.000 A 
ATOM      7  S   UNL     1       1.452   3.544  21.101  0.00  0.00    +0.000 S 
ATOM      8  N   UNL     1       2.586   2.582  21.860  0.00  0.00    +0.000 NA
ATOM      9  N   UNL     1       3.711   2.467  21.174  0.00  0.00    +0.000 NA
ATOM     10  C   UNL     1       3.664   3.170  19.974  0.00  0.00    +0.000 A 
ATOM     11  C   UNL     1       4.685   3.230  18.999  0.00  0.00    +0.000 A 
ENDBRANCH   2   3
BRANCH   2  12
ATOM     12  O   UNL     1       6.733   4.152  17.137  0.00  0.00    +0.000 OA
BRANCH  12  13
ATOM     13  C   UNL     1       7.172   5.442  17.510  0.00  0.00    +0.000 A 
ATOM     14  C   UNL     1       6.985   6.581  16.725  0.00  0.00    +0.000 A 
ATOM     15  C   UNL     1       7.501   7.808  17.151  0.00  0.00    +0.000 A 
ATOM     16  C   UNL     1       8.169   7.896  18.370  0.00  0.00    +0.000 A 
ATOM     17 CL   UNL     1       8.825   9.403  18.877  0.00  0.00    +0.000 Cl
ATOM     18  C   UNL     1       8.310   6.769  19.180  0.00  0.00    +0.000 A 
ATOM     19  C   UNL     1       7.808   5.537  18.751  0.00  0.00    +0.000 A 
ENDBRANCH  12  13
ENDBRANCH   2  12
TORSDOF 3
ENDMDL
MODEL 5
REMARK VINA RESULT:      -6.8      4.815      6.364
REMARK  Name = 
REMARK  3 active torsions:
REMARK  status: ('A' for Active; 'I' for Inactive)
REMARK    1  A    between atoms: C_2  and  O_3
REMARK    2  A    between atoms: C_2  and  C_11
REMARK    3  A    between atoms: O_3  and  C_4
REMARK                            x       y       z     vdW  Elec       q    Type
REMARK                         _______ _______ _______ _____ _____    ______ ____
ROOT
ATOM      1  O   UNL     1       1.692   4.870  19.373  0.00  0.00    +0.000 OA
ATOM      2  C   UNL     1       2.666   5.586  19.185  0.00  0.00    +0.000 C 
ENDROOT
BRANCH   2   3
ATOM      3  C   UNL     1       3.713   5.225  18.186  0.00  0.00    +0.000 A 
ATOM      4  C   UNL     1       3.495   4.072  17.416  0.00  0.00    +0.000 A 
ATOM      5  C   UNL     1       4.367   3.701  16.387  0.00  0.00    +0.000 A 
ATOM      6  C   UNL     1       5.467   4.530  16.143  0.00  0.00    +0.000 A 
ATOM      7  S   UNL     1       6.708   4.435  14.952  0.00  0.00    +0.000 S 
ATOM      8  N   UNL     1       7.472   5.820  15.487  0.00  0.00    +0.000 NA
ATOM      9  N   UNL     1       6.869   6.377  16.523  0.00  0.00    +0.000 NA
ATOM     10  C   UNL     1       5.731   5.674  16.905  0.00  0.00    +0.000 A 
ATOM     11  C   UNL     1       4.847   6.018  17.952  0.00  0.00    +0.000 A 
ENDBRANCH   2   3
BRANCH   2  12
ATOM     12  O   UNL     1       2.934   6.811  19.771  0.00  0.00    +0.000 OA
BRANCH  12  13
ATOM     13  C   UNL     1       2.049   7.896  19.582  0.00  0.00    +0.000 A 
ATOM     14  C   UNL     1       1.256   8.436  20.596  0.00  0.00    +0.000 A 
ATOM     15  C   UNL     1       0.370   9.475  20.304  0.00  0.00    +0.000 A 
ATOM     16  C   UNL     1       0.304   9.991  19.011  0.00  0.00    +0.000 A 
ATOM     17 CL   UNL     1      -0.808  11.252  18.651  0.00  0.00    +0.000 Cl
ATOM     18  C   UNL     1       1.134   9.488  18.008  0.00  0.00    +0.000 A 
ATOM     19  C   UNL     1       2.012   8.439  18.294  0.00  0.00    +0.000 A 
ENDBRANCH  12  13
ENDBRANCH   2  12
TORSDOF 3
ENDMDL
MODEL 6
REMARK VINA RESULT:      -6.8      4.846      6.379
REMARK  Name = 
REMARK  3 active torsions:
REMARK  status: ('A' for Active; 'I' for Inactive)
REMARK    1  A    between atoms: C_2  and  O_3
REMARK    2  A    between atoms: C_2  and  C_11
REMARK    3  A    between atoms: O_3  and  C_4
REMARK                            x       y       z     vdW  Elec       q    Type
REMARK                         _______ _______ _______ _____ _____    ______ ____
ROOT
ATOM      1  O   UNL     1       1.698   4.875  19.502  0.00  0.00    +0.000 OA
ATOM      2  C   UNL     1       2.646   5.610  19.264  0.00  0.00    +0.000 C 
ENDROOT
BRANCH   2   3
ATOM      3  C   UNL     1       3.686   5.238  18.262  0.00  0.00    +0.000 A 
ATOM      4  C   UNL     1       3.476   4.061  17.527  0.00  0.00    +0.000 A 
ATOM      5  C   UNL     1       4.341   3.675  16.498  0.00  0.00    +0.000 A 
ATOM      6  C   UNL     1       5.424   4.514  16.216  0.00  0.00    +0.000 A 
ATOM      7  S   UNL     1       6.650   4.404  15.011  0.00  0.00    +0.000 S 
ATOM      8  N   UNL     1       7.398   5.816  15.497  0.00  0.00    +0.000 NA
ATOM      9  N   UNL     1       6.801   6.392  16.526  0.00  0.00    +0.000 NA
ATOM     10  C   UNL     1       5.679   5.683  16.942  0.00  0.00    +0.000 A 
ATOM     11  C   UNL     1       4.803   6.041  17.991  0.00  0.00    +0.000 A 
ENDBRANCH   2   3
BRANCH   2  12
ATOM     12  O   UNL     1       2.886   6.867  19.792  0.00  0.00    +0.000 OA
BRANCH  12  13
ATOM     13  C   UNL     1       2.023   7.941  19.486  0.00  0.00    +0.000 A 
ATOM     14  C   UNL     1       1.892   8.492  18.210  0.00  0.00    +0.000 A 
ATOM     15  C   UNL     1       1.052   9.590  18.011  0.00  0.00    +0.000 A 
ATOM     16  C   UNL     1       0.323  10.110  19.079  0.00  0.00    +0.000 A 
ATOM     17 CL   UNL     1      -0.690  11.479  18.835  0.00  0.00    +0.000 Cl
ATOM     18  C   UNL     1       0.411   9.527  20.344  0.00  0.00    +0.000 A 
ATOM     19  C   UNL     1       1.262   8.438  20.549  0.00  0.00    +0.000 A 
ENDBRANCH  12  13
ENDBRANCH   2  12
TORSDOF 3
ENDMDL
MODEL 7
REMARK VINA RESULT:      -6.7      4.443      6.016
REMARK  Name = 
REMARK  3 active torsions:
REMARK  status: ('A' for Active; 'I' for Inactive)
REMARK    1  A    between atoms: C_2  and  O_3
REMARK    2  A    between atoms: C_2  and  C_11
REMARK    3  A    between atoms: O_3  and  C_4
REMARK                            x       y       z     vdW  Elec       q    Type
REMARK                         _______ _______ _______ _____ _____    ______ ____
ROOT
ATOM      1  O   UNL     1       1.230   4.161  19.578  0.00  0.00    +0.000 OA
ATOM      2  C   UNL     1       2.248   4.836  19.653  0.00  0.00    +0.000 C 
ENDROOT
BRANCH   2   3
ATOM      3  C   UNL     1       3.412   4.589  18.754  0.00  0.00    +0.000 A 
ATOM      4  C   UNL     1       3.133   4.282  17.413  0.00  0.00    +0.000 A 
ATOM      5  C   UNL     1       4.152   4.128  16.468  0.00  0.00    +0.000 A 
ATOM      6  C   UNL     1       5.469   4.302  16.905  0.00  0.00    +0.000 A 
ATOM      7  S   UNL     1       6.960   4.247  16.043  0.00  0.00    +0.000 S 
ATOM      8  N   UNL     1       7.877   4.573  17.400  0.00  0.00    +0.000 NA
ATOM      9  N   UNL     1       7.149   4.722  18.494  0.00  0.00    +0.000 NA
ATOM     10  C   UNL     1       5.788   4.584  18.238  0.00  0.00    +0.000 A 
ATOM     11  C   UNL     1       4.742   4.715  19.179  0.00  0.00    +0.000 A 
ENDBRANCH   2   3
BRANCH   2  12
ATOM     12  O   UNL     1       2.476   5.922  20.480  0.00  0.00    +0.000 OA
BRANCH  12  13
ATOM     13  C   UNL     1       1.979   7.197  20.129  0.00  0.00    +0.000 A 
ATOM     14  C   UNL     1       1.235   8.003  20.992  0.00  0.00    +0.000 A 
ATOM     15  C   UNL     1       0.739   9.229  20.541  0.00  0.00    +0.000 A 
ATOM     16  C   UNL     1       1.017   9.656  19.244  0.00  0.00    +0.000 A 
ATOM     17 CL   UNL     1       0.381  11.153  18.684  0.00  0.00    +0.000 Cl
ATOM     18  C   UNL     1       1.805   8.876  18.398  0.00  0.00    +0.000 A 
ATOM     19  C   UNL     1       2.291   7.643  18.841  0.00  0.00    +0.000 A 
ENDBRANCH  12  13
ENDBRANCH   2  12
TORSDOF 3
ENDMDL
MODEL 8
REMARK VINA RESULT:      -6.7      2.942      3.888
REMARK  Name = 
REMARK  3 active torsions:
REMARK  status: ('A' for Active; 'I' for Inactive)
REMARK    1  A    between atoms: C_2  and  O_3
REMARK    2  A    between atoms: C_2  and  C_11
REMARK    3  A    between atoms: O_3  and  C_4
REMARK                            x       y       z     vdW  Elec       q    Type
REMARK                         _______ _______ _______ _____ _____    ______ ____
ROOT
ATOM      1  O   UNL     1       4.882   4.253  15.048  0.00  0.00    +0.000 OA
ATOM      2  C   UNL     1       5.181   4.071  16.221  0.00  0.00    +0.000 C 
ENDROOT
BRANCH   2   3
ATOM      3  C   UNL     1       4.140   3.806  17.255  0.00  0.00    +0.000 A 
ATOM      4  C   UNL     1       3.851   2.463  17.545  0.00  0.00    +0.000 A 
ATOM      5  C   UNL     1       2.963   2.107  18.566  0.00  0.00    +0.000 A 
ATOM      6  C   UNL     1       2.376   3.143  19.300  0.00  0.00    +0.000 A 
ATOM      7  S   UNL     1       1.294   3.100  20.640  0.00  0.00    +0.000 S 
ATOM      8  N   UNL     1       1.215   4.764  20.762  0.00  0.00    +0.000 NA
ATOM      9  N   UNL     1       1.948   5.386  19.853  0.00  0.00    +0.000 NA
ATOM     10  C   UNL     1       2.620   4.493  19.025  0.00  0.00    +0.000 A 
ATOM     11  C   UNL     1       3.505   4.828  17.976  0.00  0.00    +0.000 A 
ENDBRANCH   2   3
BRANCH   2  12
ATOM     12  O   UNL     1       6.452   4.015  16.764  0.00  0.00    +0.000 OA
BRANCH  12  13
ATOM     13  C   UNL     1       7.043   5.177  17.308  0.00  0.00    +0.000 A 
ATOM     14  C   UNL     1       7.630   5.229  18.573  0.00  0.00    +0.000 A 
ATOM     15  C   UNL     1       8.142   6.438  19.051  0.00  0.00    +0.000 A 
ATOM     16  C   UNL     1       8.096   7.577  18.250  0.00  0.00    +0.000 A 
ATOM     17 CL   UNL     1       8.705   9.069  18.852  0.00  0.00    +0.000 Cl
ATOM     18  C   UNL     1       7.558   7.514  16.964  0.00  0.00    +0.000 A 
ATOM     19  C   UNL     1       7.032   6.310  16.489  0.00  0.00    +0.000 A 
ENDBRANCH  12  13
ENDBRANCH   2  12
TORSDOF 3
ENDMDL
MODEL 9
REMARK VINA RESULT:      -6.6      2.970      3.793
REMARK  Name = 
REMARK  3 active torsions:
REMARK  status: ('A' for Active; 'I' for Inactive)
REMARK    1  A    between atoms: C_2  and  O_3
REMARK    2  A    between atoms: C_2  and  C_11
REMARK    3  A    between atoms: O_3  and  C_4
REMARK                            x       y       z     vdW  Elec       q    Type
REMARK                         _______ _______ _______ _____ _____    ______ ____
ROOT
ATOM      1  O   UNL     1       4.917   4.074  15.093  0.00  0.00    +0.000 OA
ATOM      2  C   UNL     1       5.175   4.036  16.288  0.00  0.00    +0.000 C 
ENDROOT
BRANCH   2   3
ATOM      3  C   UNL     1       4.108   3.824  17.307  0.00  0.00    +0.000 A 
ATOM      4  C   UNL     1       3.753   2.497  17.598  0.00  0.00    +0.000 A 
ATOM      5  C   UNL     1       2.835   2.188  18.606  0.00  0.00    +0.000 A 
ATOM      6  C   UNL     1       2.285   3.252  19.328  0.00  0.00    +0.000 A 
ATOM      7  S   UNL     1       1.183   3.267  20.652  0.00  0.00    +0.000 S 
ATOM      8  N   UNL     1       1.180   4.933  20.766  0.00  0.00    +0.000 NA
ATOM      9  N   UNL     1       1.954   5.515  19.866  0.00  0.00    +0.000 NA
ATOM     10  C   UNL     1       2.596   4.589  19.051  0.00  0.00    +0.000 A 
ATOM     11  C   UNL     1       3.511   4.878  18.014  0.00  0.00    +0.000 A 
ENDBRANCH   2   3
BRANCH   2  12
ATOM     12  O   UNL     1       6.425   4.111  16.879  0.00  0.00    +0.000 OA
BRANCH  12  13
ATOM     13  C   UNL     1       6.937   5.359  17.297  0.00  0.00    +0.000 A 
ATOM     14  C   UNL     1       6.832   6.531  16.547  0.00  0.00    +0.000 A 
ATOM     15  C   UNL     1       7.417   7.710  17.018  0.00  0.00    +0.000 A 
ATOM     16  C   UNL     1       8.072   7.719  18.247  0.00  0.00    +0.000 A 
ATOM     17 CL   UNL     1       8.813   9.165  18.809  0.00  0.00    +0.000 Cl
ATOM     18  C   UNL     1       8.132   6.560  19.023  0.00  0.00    +0.000 A 
ATOM     19  C   UNL     1       7.561   5.376  18.549  0.00  0.00    +0.000 A 
ENDBRANCH  12  13
ENDBRANCH   2  12
TORSDOF 3
ENDMDL
