MODEL 1
REMARK VINA RESULT:      -7.8      0.000      0.000
REMARK  Name = 
REMARK  11 active torsions:
REMARK  status: ('A' for Active; 'I' for Inactive)
REMARK    1  A    between atoms: C_1  and  C_2
REMARK    2  A    between atoms: C_2  and  O_3
REMARK    3  A    between atoms: O_3  and  C_4
REMARK    4  A    between atoms: C_4  and  C_5
REMARK    5  A    between atoms: C_5  and  C_6
REMARK    6  A    between atoms: C_6  and  N_7
REMARK    7  A    between atoms: N_7  and  C_8
REMARK    8  A    between atoms: C_15  and  C_16
REMARK    9  A    between atoms: C_23  and  C_24
REMARK   10  A    between atoms: N_26  and  C_27
REMARK   11  A    between atoms: C_27  and  C_28
REMARK                            x       y       z     vdW  Elec       q    Type
REMARK                         _______ _______ _______ _____ _____    ______ ____
ROOT
ATOM      1  C   UNL     1       2.140   6.506  20.321  0.00  0.00    +0.000 A 
ATOM      2  N   UNL     1       1.393   7.174  21.252  0.00  0.00    +0.000 NA
ATOM      3  C   UNL     1       0.962   8.433  20.986  0.00  0.00    +0.000 A 
ATOM      4  N   UNL     1       0.186   9.036  21.984  0.00  0.00    +0.000 NA
ATOM      5  C   UNL     1      -0.266  10.235  21.768  0.00  0.00    +0.000 A 
ATOM      6  C   UNL     1      -1.104  10.913  22.803  0.00  0.00    +0.000 A 
ATOM      7  C   UNL     1      -1.578  12.150  22.591  0.00  0.00    +0.000 A 
ATOM      8  C   UNL     1      -1.293  12.854  21.362  0.00  0.00    +0.000 A 
ATOM      9  C   UNL     1      -1.840  14.234  21.146  0.00  0.00    +0.000 C 
ATOM     10  C   UNL     1      -0.539  12.246  20.434  0.00  0.00    +0.000 A 
ATOM     11  N   UNL     1      -0.025  10.963  20.606  0.00  0.00    +0.000 N 
ATOM     12  C   UNL     1       0.741  10.420  19.582  0.00  0.00    +0.000 A 
ATOM     13  O   UNL     1       1.013  10.989  18.529  0.00  0.00    +0.000 OA
ATOM     14  C   UNL     1       1.255   9.066  19.801  0.00  0.00    +0.000 A 
ATOM     15  C   UNL     1       2.021   8.411  18.845  0.00  0.00    +0.000 A 
ATOM     16  C   UNL     1       2.501   7.122  19.106  0.00  0.00    +0.000 A 
ENDROOT
BRANCH  16  17
ATOM     17  C   UNL     1       3.259   6.490  17.993  0.00  0.00    +0.000 C 
ATOM     18  O   UNL     1       2.987   5.331  17.669  0.00  0.00    +0.000 OA
ATOM     19  N   UNL     1       4.231   7.224  17.343  0.00  0.00    +0.000 N 
ATOM     20  H   UNL     1       4.274   8.231  17.489  0.00  0.00    +0.000 HD
BRANCH  19  21
ATOM     21  C   UNL     1       4.899   6.683  16.160  0.00  0.00    +0.000 C 
BRANCH  21  22
ATOM     22  C   UNL     1       6.293   6.117  16.446  0.00  0.00    +0.000 C 
ATOM     23  C   UNL     1       6.302   4.631  16.763  0.00  0.00    +0.000 C 
ATOM     24  C   UNL     1       7.599   4.496  17.517  0.00  0.00    +0.000 C 
ATOM     25  C   UNL     1       7.624   5.776  18.328  0.00  0.00    +0.000 C 
ATOM     26  O   UNL     1       6.900   6.767  17.580  0.00  0.00    +0.000 OA
ENDBRANCH  21  22
ENDBRANCH  19  21
ENDBRANCH  16  17
BRANCH   1  27
ATOM     27  N   UNL     1       2.588   5.198  20.639  0.00  0.00    +0.000 N 
ATOM     28  H   UNL     1       2.998   4.786  19.802  0.00  0.00    +0.000 HD
BRANCH  27  29
ATOM     29  C   UNL     1       1.534   4.314  21.170  0.00  0.00    +0.000 C 
BRANCH  29  30
ATOM     30  C   UNL     1       0.874   3.533  20.026  0.00  0.00    +0.000 C 
BRANCH  30  31
ATOM     31  C   UNL     1       1.747   2.363  19.561  0.00  0.00    +0.000 C 
BRANCH  31  32
ATOM     32  O   UNL     1       3.011   2.402  20.234  0.00  0.00    +0.000 OA
BRANCH  32  34
ATOM     33  C   UNL     1       3.559   1.871  17.946  0.00  0.00    +0.000 C 
ATOM     34  C   UNL     1       4.098   2.116  19.346  0.00  0.00    +0.000 C 
ENDBRANCH  32  34
ENDBRANCH  31  32
ENDBRANCH  30  31
ENDBRANCH  29  30
ENDBRANCH  27  29
ENDBRANCH   1  27
TORSDOF 9
ENDMDL
MODEL 2
REMARK VINA RESULT:      -7.7      2.287      3.496
REMARK  Name = 
REMARK  11 active torsions:
REMARK  status: ('A' for Active; 'I' for Inactive)
REMARK    1  A    between atoms: C_1  and  C_2
REMARK    2  A    between atoms: C_2  and  O_3
REMARK    3  A    between atoms: O_3  and  C_4
REMARK    4  A    between atoms: C_4  and  C_5
REMARK    5  A    between atoms: C_5  and  C_6
REMARK    6  A    between atoms: C_6  and  N_7
REMARK    7  A    between atoms: N_7  and  C_8
REMARK    8  A    between atoms: C_15  and  C_16
REMARK    9  A    between atoms: C_23  and  C_24
REMARK   10  A    between atoms: N_26  and  C_27
REMARK   11  A    between atoms: C_27  and  C_28
REMARK                            x       y       z     vdW  Elec       q    Type
REMARK                         _______ _______ _______ _____ _____    ______ ____
ROOT
ATOM      1  C   UNL     1       4.453   4.756  19.172  0.00  0.00    +0.000 A 
ATOM      2  N   UNL     1       3.545   5.276  20.054  0.00  0.00    +0.000 NA
ATOM      3  C   UNL     1       2.885   6.420  19.738  0.00  0.00    +0.000 A 
ATOM      4  N   UNL     1       1.958   6.871  20.686  0.00  0.00    +0.000 NA
ATOM      5  C   UNL     1       1.288   7.952  20.422  0.00  0.00    +0.000 A 
ATOM      6  C   UNL     1       0.285   8.466  21.403  0.00  0.00    +0.000 A 
ATOM      7  C   UNL     1      -0.416   9.579  21.139  0.00  0.00    +0.000 A 
ATOM      8  C   UNL     1      -0.219  10.307  19.907  0.00  0.00    +0.000 A 
ATOM      9  C   UNL     1      -1.018  11.546  19.634  0.00  0.00    +0.000 C 
ATOM     10  C   UNL     1       0.683   9.846  19.027  0.00  0.00    +0.000 A 
ATOM     11  N   UNL     1       1.434   8.695  19.253  0.00  0.00    +0.000 N 
ATOM     12  C   UNL     1       2.340   8.299  18.276  0.00  0.00    +0.000 A 
ATOM     13  O   UNL     1       2.542   8.894  17.222  0.00  0.00    +0.000 OA
ATOM     14  C   UNL     1       3.101   7.079  18.550  0.00  0.00    +0.000 A 
ATOM     15  C   UNL     1       4.026   6.575  17.645  0.00  0.00    +0.000 A 
ATOM     16  C   UNL     1       4.740   5.412  17.958  0.00  0.00    +0.000 A 
ENDROOT
BRANCH  16  17
ATOM     17  C   UNL     1       5.659   4.927  16.894  0.00  0.00    +0.000 C 
ATOM     18  O   UNL     1       6.850   5.249  16.941  0.00  0.00    +0.000 OA
ATOM     19  N   UNL     1       5.158   4.117  15.895  0.00  0.00    +0.000 N 
ATOM     20  H   UNL     1       4.237   3.699  16.009  0.00  0.00    +0.000 HD
BRANCH  19  21
ATOM     21  C   UNL     1       6.057   3.513  14.912  0.00  0.00    +0.000 C 
BRANCH  21  22
ATOM     22  C   UNL     1       6.269   4.373  13.663  0.00  0.00    +0.000 C 
ATOM     23  C   UNL     1       6.604   3.574  12.414  0.00  0.00    +0.000 C 
ATOM     24  C   UNL     1       7.283   4.619  11.567  0.00  0.00    +0.000 C 
ATOM     25  C   UNL     1       8.074   5.395  12.601  0.00  0.00    +0.000 C 
ATOM     26  O   UNL     1       7.357   5.301  13.843  0.00  0.00    +0.000 OA
ENDBRANCH  21  22
ENDBRANCH  19  21
ENDBRANCH  16  17
BRANCH   1  27
ATOM     27  N   UNL     1       5.137   3.569  19.542  0.00  0.00    +0.000 N 
ATOM     28  H   UNL     1       5.791   3.330  18.798  0.00  0.00    +0.000 HD
BRANCH  27  29
ATOM     29  C   UNL     1       4.249   2.425  19.816  0.00  0.00    +0.000 C 
BRANCH  29  30
ATOM     30  C   UNL     1       3.860   1.731  18.504  0.00  0.00    +0.000 C 
BRANCH  30  31
ATOM     31  C   UNL     1       2.351   1.803  18.250  0.00  0.00    +0.000 C 
BRANCH  31  32
ATOM     32  O   UNL     1       2.001   3.105  17.766  0.00  0.00    +0.000 OA
BRANCH  32  34
ATOM     33  C   UNL     1       0.835   3.274  19.871  0.00  0.00    +0.000 C 
ATOM     34  C   UNL     1       0.810   3.603  18.387  0.00  0.00    +0.000 C 
ENDBRANCH  32  34
ENDBRANCH  31  32
ENDBRANCH  30  31
ENDBRANCH  29  30
ENDBRANCH  27  29
ENDBRANCH   1  27
TORSDOF 9
ENDMDL
MODEL 3
REMARK VINA RESULT:      -7.7      2.607      3.833
REMARK  Name = 
REMARK  11 active torsions:
REMARK  status: ('A' for Active; 'I' for Inactive)
REMARK    1  A    between atoms: C_1  and  C_2
REMARK    2  A    between atoms: C_2  and  O_3
REMARK    3  A    between atoms: O_3  and  C_4
REMARK    4  A    between atoms: C_4  and  C_5
REMARK    5  A    between atoms: C_5  and  C_6
REMARK    6  A    between atoms: C_6  and  N_7
REMARK    7  A    between atoms: N_7  and  C_8
REMARK    8  A    between atoms: C_15  and  C_16
REMARK    9  A    between atoms: C_23  and  C_24
REMARK   10  A    between atoms: N_26  and  C_27
REMARK   11  A    between atoms: C_27  and  C_28
REMARK                            x       y       z     vdW  Elec       q    Type
REMARK                         _______ _______ _______ _____ _____    ______ ____
ROOT
ATOM      1  C   UNL     1       4.768   4.738  18.787  0.00  0.00    +0.000 A 
ATOM      2  N   UNL     1       3.846   5.203  19.684  0.00  0.00    +0.000 NA
ATOM      3  C   UNL     1       3.173   6.351  19.418  0.00  0.00    +0.000 A 
ATOM      4  N   UNL     1       2.231   6.743  20.379  0.00  0.00    +0.000 NA
ATOM      5  C   UNL     1       1.548   7.826  20.161  0.00  0.00    +0.000 A 
ATOM      6  C   UNL     1       0.530   8.278  21.156  0.00  0.00    +0.000 A 
ATOM      7  C   UNL     1      -0.184   9.393  20.941  0.00  0.00    +0.000 A 
ATOM      8  C   UNL     1       0.013  10.183  19.747  0.00  0.00    +0.000 A 
ATOM      9  C   UNL     1      -0.801  11.423  19.527  0.00  0.00    +0.000 C 
ATOM     10  C   UNL     1       0.929   9.778  18.855  0.00  0.00    +0.000 A 
ATOM     11  N   UNL     1       1.694   8.627  19.031  0.00  0.00    +0.000 N 
ATOM     12  C   UNL     1       2.614   8.292  18.045  0.00  0.00    +0.000 A 
ATOM     13  O   UNL     1       2.816   8.941  17.023  0.00  0.00    +0.000 OA
ATOM     14  C   UNL     1       3.390   7.071  18.266  0.00  0.00    +0.000 A 
ATOM     15  C   UNL     1       4.330   6.624  17.347  0.00  0.00    +0.000 A 
ATOM     16  C   UNL     1       5.057   5.457  17.609  0.00  0.00    +0.000 A 
ENDROOT
BRANCH  16  17
ATOM     17  C   UNL     1       5.992   5.036  16.532  0.00  0.00    +0.000 C 
ATOM     18  O   UNL     1       6.964   4.335  16.825  0.00  0.00    +0.000 OA
ATOM     19  N   UNL     1       5.736   5.429  15.233  0.00  0.00    +0.000 N 
ATOM     20  H   UNL     1       4.823   5.813  15.001  0.00  0.00    +0.000 HD
BRANCH  19  21
ATOM     21  C   UNL     1       6.557   4.922  14.133  0.00  0.00    +0.000 C 
BRANCH  21  22
ATOM     22  C   UNL     1       5.976   3.678  13.456  0.00  0.00    +0.000 C 
ATOM     23  C   UNL     1       6.756   3.220  12.235  0.00  0.00    +0.000 C 
ATOM     24  C   UNL     1       5.713   2.419  11.500  0.00  0.00    +0.000 C 
ATOM     25  C   UNL     1       4.462   3.238  11.740  0.00  0.00    +0.000 C 
ATOM     26  O   UNL     1       4.629   3.909  13.001  0.00  0.00    +0.000 OA
ENDBRANCH  21  22
ENDBRANCH  19  21
ENDBRANCH  16  17
BRANCH   1  27
ATOM     27  N   UNL     1       5.465   3.544  19.105  0.00  0.00    +0.000 N 
ATOM     28  H   UNL     1       5.667   3.049  18.237  0.00  0.00    +0.000 HD
BRANCH  27  29
ATOM     29  C   UNL     1       4.742   2.656  20.033  0.00  0.00    +0.000 C 
BRANCH  29  30
ATOM     30  C   UNL     1       3.480   2.101  19.359  0.00  0.00    +0.000 C 
BRANCH  30  31
ATOM     31  C   UNL     1       2.249   2.239  20.260  0.00  0.00    +0.000 C 
BRANCH  31  32
ATOM     32  O   UNL     1       1.250   3.027  19.602  0.00  0.00    +0.000 OA
BRANCH  32  34
ATOM     33  C   UNL     1       1.257   4.212  17.502  0.00  0.00    +0.000 C 
ATOM     34  C   UNL     1       1.284   2.852  18.181  0.00  0.00    +0.000 C 
ENDBRANCH  32  34
ENDBRANCH  31  32
ENDBRANCH  30  31
ENDBRANCH  29  30
ENDBRANCH  27  29
ENDBRANCH   1  27
TORSDOF 9
ENDMDL
MODEL 4
REMARK VINA RESULT:      -7.6      2.357      3.476
REMARK  Name = 
REMARK  11 active torsions:
REMARK  status: ('A' for Active; 'I' for Inactive)
REMARK    1  A    between atoms: C_1  and  C_2
REMARK    2  A    between atoms: C_2  and  O_3
REMARK    3  A    between atoms: O_3  and  C_4
REMARK    4  A    between atoms: C_4  and  C_5
REMARK    5  A    between atoms: C_5  and  C_6
REMARK    6  A    between atoms: C_6  and  N_7
REMARK    7  A    between atoms: N_7  and  C_8
REMARK    8  A    between atoms: C_15  and  C_16
REMARK    9  A    between atoms: C_23  and  C_24
REMARK   10  A    between atoms: N_26  and  C_27
REMARK   11  A    between atoms: C_27  and  C_28
REMARK                            x       y       z     vdW  Elec       q    Type
REMARK                         _______ _______ _______ _____ _____    ______ ____
ROOT
ATOM      1  C   UNL     1       4.375   5.536  18.311  0.00  0.00    +0.000 A 
ATOM      2  N   UNL     1       3.604   5.830  19.402  0.00  0.00    +0.000 NA
ATOM      3  C   UNL     1       2.836   6.949  19.396  0.00  0.00    +0.000 A 
ATOM      4  N   UNL     1       2.061   7.163  20.543  0.00  0.00    +0.000 NA
ATOM      5  C   UNL     1       1.294   8.211  20.579  0.00  0.00    +0.000 A 
ATOM      6  C   UNL     1       0.446   8.474  21.781  0.00  0.00    +0.000 A 
ATOM      7  C   UNL     1      -0.351   9.552  21.827  0.00  0.00    +0.000 A 
ATOM      8  C   UNL     1      -0.410  10.481  20.723  0.00  0.00    +0.000 A 
ATOM      9  C   UNL     1      -1.313  11.676  20.798  0.00  0.00    +0.000 C 
ATOM     10  C   UNL     1       0.353  10.246  19.645  0.00  0.00    +0.000 A 
ATOM     11  N   UNL     1       1.196   9.141  19.547  0.00  0.00    +0.000 N 
ATOM     12  C   UNL     1       1.942   8.985  18.386  0.00  0.00    +0.000 A 
ATOM     13  O   UNL     1       1.927   9.757  17.431  0.00  0.00    +0.000 OA
ATOM     14  C   UNL     1       2.808   7.806  18.321  0.00  0.00    +0.000 A 
ATOM     15  C   UNL     1       3.591   7.534  17.207  0.00  0.00    +0.000 A 
ATOM     16  C   UNL     1       4.414   6.400  17.198  0.00  0.00    +0.000 A 
ENDROOT
BRANCH  16  17
ATOM     17  C   UNL     1       5.163   6.171  15.934  0.00  0.00    +0.000 C 
ATOM     18  O   UNL     1       5.132   7.038  15.056  0.00  0.00    +0.000 OA
ATOM     19  N   UNL     1       5.884   5.003  15.785  0.00  0.00    +0.000 N 
ATOM     20  H   UNL     1       6.063   4.423  16.602  0.00  0.00    +0.000 HD
BRANCH  19  21
ATOM     21  C   UNL     1       6.740   4.807  14.615  0.00  0.00    +0.000 C 
BRANCH  21  22
ATOM     22  C   UNL     1       6.272   3.675  13.696  0.00  0.00    +0.000 C 
ATOM     23  C   UNL     1       7.016   3.609  12.372  0.00  0.00    +0.000 C 
ATOM     24  C   UNL     1       6.032   2.855  11.516  0.00  0.00    +0.000 C 
ATOM     25  C   UNL     1       4.708   3.423  11.987  0.00  0.00    +0.000 C 
ATOM     26  O   UNL     1       4.878   3.814  13.360  0.00  0.00    +0.000 OA
ENDBRANCH  21  22
ENDBRANCH  19  21
ENDBRANCH  16  17
BRANCH   1  27
ATOM     27  N   UNL     1       5.179   4.368  18.357  0.00  0.00    +0.000 N 
ATOM     28  H   UNL     1       5.320   4.037  17.403  0.00  0.00    +0.000 HD
BRANCH  27  29
ATOM     29  C   UNL     1       4.618   3.286  19.186  0.00  0.00    +0.000 C 
BRANCH  29  30
ATOM     30  C   UNL     1       3.572   2.496  18.387  0.00  0.00    +0.000 C 
BRANCH  30  31
ATOM     31  C   UNL     1       2.306   2.237  19.212  0.00  0.00    +0.000 C 
BRANCH  31  32
ATOM     32  O   UNL     1       2.601   2.365  20.607  0.00  0.00    +0.000 OA
BRANCH  32  34
ATOM     33  C   UNL     1       0.734   3.858  20.287  0.00  0.00    +0.000 C 
ATOM     34  C   UNL     1       1.601   3.124  21.297  0.00  0.00    +0.000 C 
ENDBRANCH  32  34
ENDBRANCH  31  32
ENDBRANCH  30  31
ENDBRANCH  29  30
ENDBRANCH  27  29
ENDBRANCH   1  27
TORSDOF 9
ENDMDL
MODEL 5
REMARK VINA RESULT:      -7.6      0.925      1.076
REMARK  Name = 
REMARK  11 active torsions:
REMARK  status: ('A' for Active; 'I' for Inactive)
REMARK    1  A    between atoms: C_1  and  C_2
REMARK    2  A    between atoms: C_2  and  O_3
REMARK    3  A    between atoms: O_3  and  C_4
REMARK    4  A    between atoms: C_4  and  C_5
REMARK    5  A    between atoms: C_5  and  C_6
REMARK    6  A    between atoms: C_6  and  N_7
REMARK    7  A    between atoms: N_7  and  C_8
REMARK    8  A    between atoms: C_15  and  C_16
REMARK    9  A    between atoms: C_23  and  C_24
REMARK   10  A    between atoms: N_26  and  C_27
REMARK   11  A    between atoms: C_27  and  C_28
REMARK                            x       y       z     vdW  Elec       q    Type
REMARK                         _______ _______ _______ _____ _____    ______ ____
ROOT
ATOM      1  C   UNL     1       2.191   6.835  20.153  0.00  0.00    +0.000 A 
ATOM      2  N   UNL     1       1.435   7.369  21.161  0.00  0.00    +0.000 NA
ATOM      3  C   UNL     1       0.885   8.600  21.006  0.00  0.00    +0.000 A 
ATOM      4  N   UNL     1       0.108   9.061  22.076  0.00  0.00    +0.000 NA
ATOM      5  C   UNL     1      -0.455  10.226  21.968  0.00  0.00    +0.000 A 
ATOM      6  C   UNL     1      -1.297  10.754  23.084  0.00  0.00    +0.000 A 
ATOM      7  C   UNL     1      -1.886  11.955  22.982  0.00  0.00    +0.000 A 
ATOM      8  C   UNL     1      -1.722  12.765  21.797  0.00  0.00    +0.000 A 
ATOM      9  C   UNL     1      -2.396  14.102  21.705  0.00  0.00    +0.000 C 
ATOM     10  C   UNL     1      -0.965  12.292  20.796  0.00  0.00    +0.000 A 
ATOM     11  N   UNL     1      -0.334  11.051  20.852  0.00  0.00    +0.000 N 
ATOM     12  C   UNL     1       0.426  10.650  19.760  0.00  0.00    +0.000 A 
ATOM     13  O   UNL     1       0.596  11.312  18.741  0.00  0.00    +0.000 OA
ATOM     14  C   UNL     1       1.064   9.336  19.858  0.00  0.00    +0.000 A 
ATOM     15  C   UNL     1       1.837   8.819  18.826  0.00  0.00    +0.000 A 
ATOM     16  C   UNL     1       2.439   7.563  18.972  0.00  0.00    +0.000 A 
ENDROOT
BRANCH  16  17
ATOM     17  C   UNL     1       3.193   7.080  17.785  0.00  0.00    +0.000 C 
ATOM     18  O   UNL     1       3.367   7.848  16.835  0.00  0.00    +0.000 OA
ATOM     19  N   UNL     1       3.690   5.792  17.786  0.00  0.00    +0.000 N 
ATOM     20  H   UNL     1       3.717   5.271  18.660  0.00  0.00    +0.000 HD
BRANCH  19  21
ATOM     21  C   UNL     1       4.549   5.330  16.696  0.00  0.00    +0.000 C 
BRANCH  21  22
ATOM     22  C   UNL     1       6.045   5.481  16.987  0.00  0.00    +0.000 C 
ATOM     23  C   UNL     1       6.400   5.378  18.461  0.00  0.00    +0.000 C 
ATOM     24  C   UNL     1       7.724   6.095  18.499  0.00  0.00    +0.000 C 
ATOM     25  C   UNL     1       7.495   7.227  17.517  0.00  0.00    +0.000 C 
ATOM     26  O   UNL     1       6.536   6.763  16.551  0.00  0.00    +0.000 OA
ENDBRANCH  21  22
ENDBRANCH  19  21
ENDBRANCH  16  17
BRANCH   1  27
ATOM     27  N   UNL     1       2.765   5.554  20.357  0.00  0.00    +0.000 N 
ATOM     28  H   UNL     1       3.003   5.160  19.447  0.00  0.00    +0.000 HD
BRANCH  27  29
ATOM     29  C   UNL     1       1.900   4.619  21.098  0.00  0.00    +0.000 C 
BRANCH  29  30
ATOM     30  C   UNL     1       0.915   3.937  20.138  0.00  0.00    +0.000 C 
BRANCH  30  31
ATOM     31  C   UNL     1       1.514   2.671  19.516  0.00  0.00    +0.000 C 
BRANCH  31  32
ATOM     32  O   UNL     1       2.452   3.029  18.495  0.00  0.00    +0.000 OA
BRANCH  32  34
ATOM     33  C   UNL     1       4.390   2.340  19.755  0.00  0.00    +0.000 C 
ATOM     34  C   UNL     1       3.584   2.152  18.480  0.00  0.00    +0.000 C 
ENDBRANCH  32  34
ENDBRANCH  31  32
ENDBRANCH  30  31
ENDBRANCH  29  30
ENDBRANCH  27  29
ENDBRANCH   1  27
TORSDOF 9
ENDMDL
MODEL 6
REMARK VINA RESULT:      -7.4      2.486      3.770
REMARK  Name = 
REMARK  11 active torsions:
REMARK  status: ('A' for Active; 'I' for Inactive)
REMARK    1  A    between atoms: C_1  and  C_2
REMARK    2  A    between atoms: C_2  and  O_3
REMARK    3  A    between atoms: O_3  and  C_4
REMARK    4  A    between atoms: C_4  and  C_5
REMARK    5  A    between atoms: C_5  and  C_6
REMARK    6  A    between atoms: C_6  and  N_7
REMARK    7  A    between atoms: N_7  and  C_8
REMARK    8  A    between atoms: C_15  and  C_16
REMARK    9  A    between atoms: C_23  and  C_24
REMARK   10  A    between atoms: N_26  and  C_27
REMARK   11  A    between atoms: C_27  and  C_28
REMARK                            x       y       z     vdW  Elec       q    Type
REMARK                         _______ _______ _______ _____ _____    ______ ____
ROOT
ATOM      1  C   UNL     1       4.824   4.774  18.992  0.00  0.00    +0.000 A 
ATOM      2  N   UNL     1       3.844   5.251  19.819  0.00  0.00    +0.000 NA
ATOM      3  C   UNL     1       3.176   6.384  19.482  0.00  0.00    +0.000 A 
ATOM      4  N   UNL     1       2.174   6.789  20.373  0.00  0.00    +0.000 NA
ATOM      5  C   UNL     1       1.494   7.858  20.085  0.00  0.00    +0.000 A 
ATOM      6  C   UNL     1       0.412   8.323  21.005  0.00  0.00    +0.000 A 
ATOM      7  C   UNL     1      -0.299   9.423  20.717  0.00  0.00    +0.000 A 
ATOM      8  C   UNL     1      -0.038  10.184  19.517  0.00  0.00    +0.000 A 
ATOM      9  C   UNL     1      -0.850  11.408  19.214  0.00  0.00    +0.000 C 
ATOM     10  C   UNL     1       0.935   9.768  18.692  0.00  0.00    +0.000 A 
ATOM     11  N   UNL     1       1.700   8.631  18.946  0.00  0.00    +0.000 N 
ATOM     12  C   UNL     1       2.681   8.282  18.026  0.00  0.00    +0.000 A 
ATOM     13  O   UNL     1       2.939   8.906  17.001  0.00  0.00    +0.000 OA
ATOM     14  C   UNL     1       3.456   7.076  18.327  0.00  0.00    +0.000 A 
ATOM     15  C   UNL     1       4.455   6.617  17.478  0.00  0.00    +0.000 A 
ATOM     16  C   UNL     1       5.177   5.466  17.815  0.00  0.00    +0.000 A 
ENDROOT
BRANCH  16  17
ATOM     17  C   UNL     1       6.180   5.029  16.808  0.00  0.00    +0.000 C 
ATOM     18  O   UNL     1       6.978   4.137  17.109  0.00  0.00    +0.000 OA
ATOM     19  N   UNL     1       6.179   5.622  15.561  0.00  0.00    +0.000 N 
ATOM     20  H   UNL     1       5.381   6.187  15.281  0.00  0.00    +0.000 HD
BRANCH  19  21
ATOM     21  C   UNL     1       7.061   5.124  14.505  0.00  0.00    +0.000 C 
BRANCH  21  22
ATOM     22  C   UNL     1       6.320   4.716  13.229  0.00  0.00    +0.000 C 
ATOM     23  C   UNL     1       5.209   3.704  13.458  0.00  0.00    +0.000 C 
ATOM     24  C   UNL     1       5.073   3.097  12.087  0.00  0.00    +0.000 C 
ATOM     25  C   UNL     1       6.515   3.035  11.627  0.00  0.00    +0.000 C 
ATOM     26  O   UNL     1       7.214   4.111  12.275  0.00  0.00    +0.000 OA
ENDBRANCH  21  22
ENDBRANCH  19  21
ENDBRANCH  16  17
BRANCH   1  27
ATOM     27  N   UNL     1       5.513   3.598  19.383  0.00  0.00    +0.000 N 
ATOM     28  H   UNL     1       6.124   3.314  18.619  0.00  0.00    +0.000 HD
BRANCH  27  29
ATOM     29  C   UNL     1       4.628   2.481  19.760  0.00  0.00    +0.000 C 
BRANCH  29  30
ATOM     30  C   UNL     1       3.652   2.171  18.616  0.00  0.00    +0.000 C 
BRANCH  30  31
ATOM     31  C   UNL     1       2.210   2.048  19.120  0.00  0.00    +0.000 C 
BRANCH  31  32
ATOM     32  O   UNL     1       2.195   2.036  20.552  0.00  0.00    +0.000 OA
BRANCH  32  34
ATOM     33  C   UNL     1       0.575   3.716  19.943  0.00  0.00    +0.000 C 
ATOM     34  C   UNL     1       1.286   3.007  21.084  0.00  0.00    +0.000 C 
ENDBRANCH  32  34
ENDBRANCH  31  32
ENDBRANCH  30  31
ENDBRANCH  29  30
ENDBRANCH  27  29
ENDBRANCH   1  27
TORSDOF 9
ENDMDL
MODEL 7
REMARK VINA RESULT:      -7.3      1.460      1.827
REMARK  Name = 
REMARK  11 active torsions:
REMARK  status: ('A' for Active; 'I' for Inactive)
REMARK    1  A    between atoms: C_1  and  C_2
REMARK    2  A    between atoms: C_2  and  O_3
REMARK    3  A    between atoms: O_3  and  C_4
REMARK    4  A    between atoms: C_4  and  C_5
REMARK    5  A    between atoms: C_5  and  C_6
REMARK    6  A    between atoms: C_6  and  N_7
REMARK    7  A    between atoms: N_7  and  C_8
REMARK    8  A    between atoms: C_15  and  C_16
REMARK    9  A    between atoms: C_23  and  C_24
REMARK   10  A    between atoms: N_26  and  C_27
REMARK   11  A    between atoms: C_27  and  C_28
REMARK                            x       y       z     vdW  Elec       q    Type
REMARK                         _______ _______ _______ _____ _____    ______ ____
ROOT
ATOM      1  C   UNL     1       2.123   6.473  20.318  0.00  0.00    +0.000 A 
ATOM      2  N   UNL     1       1.403   7.472  20.915  0.00  0.00    +0.000 NA
ATOM      3  C   UNL     1       1.272   8.669  20.288  0.00  0.00    +0.000 A 
ATOM      4  N   UNL     1       0.501   9.627  20.958  0.00  0.00    +0.000 NA
ATOM      5  C   UNL     1       0.330  10.783  20.390  0.00  0.00    +0.000 A 
ATOM      6  C   UNL     1      -0.490  11.832  21.067  0.00  0.00    +0.000 A 
ATOM      7  C   UNL     1      -0.676  13.028  20.489  0.00  0.00    +0.000 A 
ATOM      8  C   UNL     1      -0.091  13.331  19.204  0.00  0.00    +0.000 A 
ATOM      9  C   UNL     1      -0.318  14.674  18.575  0.00  0.00    +0.000 C 
ATOM     10  C   UNL     1       0.647  12.389  18.596  0.00  0.00    +0.000 A 
ATOM     11  N   UNL     1       0.868  11.132  19.154  0.00  0.00    +0.000 N 
ATOM     12  C   UNL     1       1.644  10.225  18.443  0.00  0.00    +0.000 A 
ATOM     13  O   UNL     1       2.165  10.448  17.354  0.00  0.00    +0.000 OA
ATOM     14  C   UNL     1       1.844   8.913  19.062  0.00  0.00    +0.000 A 
ATOM     15  C   UNL     1       2.588   7.918  18.442  0.00  0.00    +0.000 A 
ATOM     16  C   UNL     1       2.762   6.683  19.080  0.00  0.00    +0.000 A 
ENDROOT
BRANCH  16  17
ATOM     17  C   UNL     1       3.524   5.670  18.302  0.00  0.00    +0.000 C 
ATOM     18  O   UNL     1       2.913   4.927  17.530  0.00  0.00    +0.000 OA
ATOM     19  N   UNL     1       4.895   5.602  18.454  0.00  0.00    +0.000 N 
ATOM     20  H   UNL     1       5.381   6.363  18.923  0.00  0.00    +0.000 HD
BRANCH  19  21
ATOM     21  C   UNL     1       5.689   4.712  17.607  0.00  0.00    +0.000 C 
BRANCH  21  22
ATOM     22  C   UNL     1       5.762   5.159  16.145  0.00  0.00    +0.000 C 
ATOM     23  C   UNL     1       5.328   4.094  15.152  0.00  0.00    +0.000 C 
ATOM     24  C   UNL     1       6.011   4.564  13.894  0.00  0.00    +0.000 C 
ATOM     25  C   UNL     1       7.336   5.072  14.427  0.00  0.00    +0.000 C 
ATOM     26  O   UNL     1       7.107   5.521  15.774  0.00  0.00    +0.000 OA
ENDBRANCH  21  22
ENDBRANCH  19  21
ENDBRANCH  16  17
BRANCH   1  27
ATOM     27  N   UNL     1       2.255   5.241  21.009  0.00  0.00    +0.000 N 
ATOM     28  H   UNL     1       3.180   4.861  20.814  0.00  0.00    +0.000 HD
BRANCH  27  29
ATOM     29  C   UNL     1       1.221   4.248  20.668  0.00  0.00    +0.000 C 
BRANCH  29  30
ATOM     30  C   UNL     1       1.393   2.989  21.529  0.00  0.00    +0.000 C 
BRANCH  30  31
ATOM     31  C   UNL     1       2.762   2.336  21.312  0.00  0.00    +0.000 C 
BRANCH  31  32
ATOM     32  O   UNL     1       3.361   2.849  20.117  0.00  0.00    +0.000 OA
BRANCH  32  34
ATOM     33  C   UNL     1       3.624   1.589  18.078  0.00  0.00    +0.000 C 
ATOM     34  C   UNL     1       4.177   1.869  19.465  0.00  0.00    +0.000 C 
ENDBRANCH  32  34
ENDBRANCH  31  32
ENDBRANCH  30  31
ENDBRANCH  29  30
ENDBRANCH  27  29
ENDBRANCH   1  27
TORSDOF 9
ENDMDL
MODEL 8
REMARK VINA RESULT:      -7.2      1.922      2.416
REMARK  Name = 
REMARK  11 active torsions:
REMARK  status: ('A' for Active; 'I' for Inactive)
REMARK    1  A    between atoms: C_1  and  C_2
REMARK    2  A    between atoms: C_2  and  O_3
REMARK    3  A    between atoms: O_3  and  C_4
REMARK    4  A    between atoms: C_4  and  C_5
REMARK    5  A    between atoms: C_5  and  C_6
REMARK    6  A    between atoms: C_6  and  N_7
REMARK    7  A    between atoms: N_7  and  C_8
REMARK    8  A    between atoms: C_15  and  C_16
REMARK    9  A    between atoms: C_23  and  C_24
REMARK   10  A    between atoms: N_26  and  C_27
REMARK   11  A    between atoms: C_27  and  C_28
REMARK                            x       y       z     vdW  Elec       q    Type
REMARK                         _______ _______ _______ _____ _____    ______ ____
ROOT
ATOM      1  C   UNL     1       3.052   5.549  20.040  0.00  0.00    +0.000 A 
ATOM      2  N   UNL     1       2.151   6.397  20.624  0.00  0.00    +0.000 NA
ATOM      3  C   UNL     1       1.840   7.567  20.011  0.00  0.00    +0.000 A 
ATOM      4  N   UNL     1       0.893   8.366  20.665  0.00  0.00    +0.000 NA
ATOM      5  C   UNL     1       0.547   9.488  20.108  0.00  0.00    +0.000 A 
ATOM      6  C   UNL     1      -0.463  10.368  20.769  0.00  0.00    +0.000 A 
ATOM      7  C   UNL     1      -0.830  11.527  20.202  0.00  0.00    +0.000 A 
ATOM      8  C   UNL     1      -0.260  11.952  18.945  0.00  0.00    +0.000 A 
ATOM      9  C   UNL     1      -0.691  13.250  18.329  0.00  0.00    +0.000 C 
ATOM     10  C   UNL     1       0.649  11.163  18.353  0.00  0.00    +0.000 A 
ATOM     11  N   UNL     1       1.062   9.950  18.900  0.00  0.00    +0.000 N 
ATOM     12  C   UNL     1       2.006   9.204  18.205  0.00  0.00    +0.000 A 
ATOM     13  O   UNL     1       2.519   9.535  17.141  0.00  0.00    +0.000 OA
ATOM     14  C   UNL     1       2.405   7.932  18.811  0.00  0.00    +0.000 A 
ATOM     15  C   UNL     1       3.330   7.091  18.206  0.00  0.00    +0.000 A 
ATOM     16  C   UNL     1       3.689   5.891  18.831  0.00  0.00    +0.000 A 
ENDROOT
BRANCH  16  17
ATOM     17  C   UNL     1       4.640   5.039  18.068  0.00  0.00    +0.000 C 
ATOM     18  O   UNL     1       5.316   4.205  18.678  0.00  0.00    +0.000 OA
ATOM     19  N   UNL     1       4.728   5.194  16.699  0.00  0.00    +0.000 N 
ATOM     20  H   UNL     1       4.011   5.727  16.212  0.00  0.00    +0.000 HD
BRANCH  19  21
ATOM     21  C   UNL     1       5.551   4.283  15.903  0.00  0.00    +0.000 C 
BRANCH  21  22
ATOM     22  C   UNL     1       5.938   4.844  14.532  0.00  0.00    +0.000 C 
ATOM     23  C   UNL     1       5.937   3.809  13.420  0.00  0.00    +0.000 C 
ATOM     24  C   UNL     1       6.849   4.456  12.411  0.00  0.00    +0.000 C 
ATOM     25  C   UNL     1       7.900   5.089  13.299  0.00  0.00    +0.000 C 
ATOM     26  O   UNL     1       7.266   5.403  14.550  0.00  0.00    +0.000 OA
ENDBRANCH  21  22
ENDBRANCH  19  21
ENDBRANCH  16  17
BRANCH   1  27
ATOM     27  N   UNL     1       3.367   4.342  20.718  0.00  0.00    +0.000 N 
ATOM     28  H   UNL     1       3.763   3.689  20.043  0.00  0.00    +0.000 HD
BRANCH  27  29
ATOM     29  C   UNL     1       2.220   3.721  21.404  0.00  0.00    +0.000 C 
BRANCH  29  30
ATOM     30  C   UNL     1       1.087   3.455  20.404  0.00  0.00    +0.000 C 
BRANCH  30  31
ATOM     31  C   UNL     1       1.340   2.183  19.587  0.00  0.00    +0.000 C 
BRANCH  31  32
ATOM     32  O   UNL     1       2.733   1.852  19.622  0.00  0.00    +0.000 OA
BRANCH  32  34
ATOM     33  C   UNL     1       2.485   2.418  17.291  0.00  0.00    +0.000 C 
ATOM     34  C   UNL     1       3.254   1.596  18.313  0.00  0.00    +0.000 C 
ENDBRANCH  32  34
ENDBRANCH  31  32
ENDBRANCH  30  31
ENDBRANCH  29  30
ENDBRANCH  27  29
ENDBRANCH   1  27
TORSDOF 9
ENDMDL
MODEL 9
REMARK VINA RESULT:      -7.2      2.551      3.780
REMARK  Name = 
REMARK  11 active torsions:
REMARK  status: ('A' for Active; 'I' for Inactive)
REMARK    1  A    between atoms: C_1  and  C_2
REMARK    2  A    between atoms: C_2  and  O_3
REMARK    3  A    between atoms: O_3  and  C_4
REMARK    4  A    between atoms: C_4  and  C_5
REMARK    5  A    between atoms: C_5  and  C_6
REMARK    6  A    between atoms: C_6  and  N_7
REMARK    7  A    between atoms: N_7  and  C_8
REMARK    8  A    between atoms: C_15  and  C_16
REMARK    9  A    between atoms: C_23  and  C_24
REMARK   10  A    between atoms: N_26  and  C_27
REMARK   11  A    between atoms: C_27  and  C_28
REMARK                            x       y       z     vdW  Elec       q    Type
REMARK                         _______ _______ _______ _____ _____    ______ ____
ROOT
ATOM      1  C   UNL     1       4.355   4.802  18.569  0.00  0.00    +0.000 A 
ATOM      2  N   UNL     1       3.412   5.227  19.464  0.00  0.00    +0.000 NA
ATOM      3  C   UNL     1       2.856   6.457  19.317  0.00  0.00    +0.000 A 
ATOM      4  N   UNL     1       1.884   6.804  20.263  0.00  0.00    +0.000 NA
ATOM      5  C   UNL     1       1.308   7.963  20.154  0.00  0.00    +0.000 A 
ATOM      6  C   UNL     1       0.261   8.372  21.139  0.00  0.00    +0.000 A 
ATOM      7  C   UNL     1      -0.342   9.565  21.034  0.00  0.00    +0.000 A 
ATOM      8  C   UNL     1       0.003  10.482  19.973  0.00  0.00    +0.000 A 
ATOM      9  C   UNL     1      -0.690  11.808  19.874  0.00  0.00    +0.000 C 
ATOM     10  C   UNL     1       0.944  10.116  19.089  0.00  0.00    +0.000 A 
ATOM     11  N   UNL     1       1.598   8.887  19.154  0.00  0.00    +0.000 N 
ATOM     12  C   UNL     1       2.555   8.602  18.188  0.00  0.00    +0.000 A 
ATOM     13  O   UNL     1       2.882   9.356  17.277  0.00  0.00    +0.000 OA
ATOM     14  C   UNL     1       3.212   7.297  18.288  0.00  0.00    +0.000 A 
ATOM     15  C   UNL     1       4.175   6.890  17.374  0.00  0.00    +0.000 A 
ATOM     16  C   UNL     1       4.785   5.638  17.519  0.00  0.00    +0.000 A 
ENDROOT
BRANCH  16  17
ATOM     17  C   UNL     1       5.756   5.279  16.452  0.00  0.00    +0.000 C 
ATOM     18  O   UNL     1       6.856   4.821  16.775  0.00  0.00    +0.000 OA
ATOM     19  N   UNL     1       5.395   5.452  15.131  0.00  0.00    +0.000 N 
ATOM     20  H   UNL     1       4.417   5.621  14.901  0.00  0.00    +0.000 HD
BRANCH  19  21
ATOM     21  C   UNL     1       6.271   4.984  14.056  0.00  0.00    +0.000 C 
BRANCH  21  22
ATOM     22  C   UNL     1       5.787   3.695  13.388  0.00  0.00    +0.000 C 
ATOM     23  C   UNL     1       6.685   3.211  12.261  0.00  0.00    +0.000 C 
ATOM     24  C   UNL     1       5.734   2.348  11.473  0.00  0.00    +0.000 C 
ATOM     25  C   UNL     1       4.444   3.137  11.567  0.00  0.00    +0.000 C 
ATOM     26  O   UNL     1       4.479   3.864  12.806  0.00  0.00    +0.000 OA
ENDBRANCH  21  22
ENDBRANCH  19  21
ENDBRANCH  16  17
BRANCH   1  27
ATOM     27  N   UNL     1       4.929   3.519  18.763  0.00  0.00    +0.000 N 
ATOM     28  H   UNL     1       5.934   3.590  18.615  0.00  0.00    +0.000 HD
BRANCH  27  29
ATOM     29  C   UNL     1       4.366   2.472  17.892  0.00  0.00    +0.000 C 
BRANCH  29  30
ATOM     30  C   UNL     1       2.833   2.530  17.917  0.00  0.00    +0.000 C 
BRANCH  30  31
ATOM     31  C   UNL     1       2.263   1.926  19.205  0.00  0.00    +0.000 C 
BRANCH  31  32
ATOM     32  O   UNL     1       1.139   2.695  19.647  0.00  0.00    +0.000 OA
BRANCH  32  34
ATOM     33  C   UNL     1       2.549   2.643  21.603  0.00  0.00    +0.000 C 
ATOM     34  C   UNL     1       1.148   2.885  21.066  0.00  0.00    +0.000 C 
ENDBRANCH  32  34
ENDBRANCH  31  32
ENDBRANCH  30  31
ENDBRANCH  29  30
ENDBRANCH  27  29
ENDBRANCH   1  27
TORSDOF 9
ENDMDL
