MODEL 1
REMARK VINA RESULT:      -6.7      0.000      0.000
REMARK  Name = 
REMARK  7 active torsions:
REMARK  status: ('A' for Active; 'I' for Inactive)
REMARK    1  A    between atoms: C_1  and  C_2
REMARK    2  A    between atoms: C_2  and  C_3
REMARK    3  A    between atoms: C_3  and  C_4
REMARK    4  A    between atoms: C_4  and  O_5
REMARK    5  A    between atoms: C_4  and  C_9
REMARK    6  A    between atoms: O_5  and  C_6
REMARK    7  A    between atoms: C_6  and  C_7
REMARK                            x       y       z     vdW  Elec       q    Type
REMARK                         _______ _______ _______ _____ _____    ______ ____
ROOT
ATOM      1  C   UNL     1       5.484   5.907  17.964  0.00  0.00    +0.000 C 
ATOM      2  C   UNL     1       4.233   6.269  18.256  0.00  0.00    +0.000 C 
ATOM      3 BR   UNL     1       3.297   7.718  17.585  0.00  0.00    +0.000 Br
ATOM      4  C   UNL     1       3.645   5.290  19.122  0.00  0.00    +0.000 C 
ATOM      5  C   UNL     1       2.381   5.255  19.575  0.00  0.00    +0.000 C 
ATOM      6  I   UNL     1       1.599   3.771  20.745  0.00  0.00    +0.000 I 
ATOM      7  O   UNL     1       4.584   4.313  19.414  0.00  0.00    +0.000 OA
ATOM      8  C   UNL     1       5.704   4.671  18.720  0.00  0.00    +0.000 C 
ATOM      9  O   UNL     1       6.752   4.040  18.713  0.00  0.00    +0.000 OA
ENDROOT
BRANCH   1  10
ATOM     10  C   UNL     1       6.543   6.463  17.061  0.00  0.00    +0.000 C 
BRANCH  10  11
ATOM     11  C   UNL     1       7.555   7.222  17.944  0.00  0.00    +0.000 C 
BRANCH  11  13
ATOM     12  C   UNL     1       8.656   9.407  18.547  0.00  0.00    +0.000 C 
ATOM     13  C   UNL     1       7.829   8.663  17.511  0.00  0.00    +0.000 C 
ENDBRANCH  11  13
ENDBRANCH  10  11
BRANCH  10  14
ATOM     14  O   UNL     1       7.181   5.353  16.397  0.00  0.00    +0.000 OA
BRANCH  14  15
ATOM     15  C   UNL     1       6.976   5.177  15.069  0.00  0.00    +0.000 C 
ATOM     16  C   UNL     1       5.662   4.490  14.837  0.00  0.00    +0.000 C 
ATOM     17  O   UNL     1       7.729   5.537  14.178  0.00  0.00    +0.000 OA
ENDBRANCH  14  15
ENDBRANCH  10  14
ENDBRANCH   1  10
TORSDOF 5
ENDMDL
MODEL 2
REMARK VINA RESULT:      -6.5      1.243      3.149
REMARK  Name = 
REMARK  7 active torsions:
REMARK  status: ('A' for Active; 'I' for Inactive)
REMARK    1  A    between atoms: C_1  and  C_2
REMARK    2  A    between atoms: C_2  and  C_3
REMARK    3  A    between atoms: C_3  and  C_4
REMARK    4  A    between atoms: C_4  and  O_5
REMARK    5  A    between atoms: C_4  and  C_9
REMARK    6  A    between atoms: O_5  and  C_6
REMARK    7  A    between atoms: C_6  and  C_7
REMARK                            x       y       z     vdW  Elec       q    Type
REMARK                         _______ _______ _______ _____ _____    ______ ____
ROOT
ATOM      1  C   UNL     1       5.349   5.740  17.871  0.00  0.00    +0.000 C 
ATOM      2  C   UNL     1       4.133   6.049  18.326  0.00  0.00    +0.000 C 
ATOM      3 BR   UNL     1       3.038   7.430  17.760  0.00  0.00    +0.000 Br
ATOM      4  C   UNL     1       3.723   5.068  19.287  0.00  0.00    +0.000 C 
ATOM      5  C   UNL     1       2.536   4.984  19.912  0.00  0.00    +0.000 C 
ATOM      6  I   UNL     1       2.002   3.499  21.212  0.00  0.00    +0.000 I 
ATOM      7  O   UNL     1       4.743   4.147  19.468  0.00  0.00    +0.000 OA
ATOM      8  C   UNL     1       5.736   4.539  18.617  0.00  0.00    +0.000 C 
ATOM      9  O   UNL     1       6.805   3.962  18.478  0.00  0.00    +0.000 OA
ENDROOT
BRANCH   1  10
ATOM     10  C   UNL     1       6.243   6.321  16.818  0.00  0.00    +0.000 C 
BRANCH  10  11
ATOM     11  C   UNL     1       5.461   6.315  15.488  0.00  0.00    +0.000 C 
BRANCH  11  13
ATOM     12  C   UNL     1       6.727   4.490  14.299  0.00  0.00    +0.000 C 
ATOM     13  C   UNL     1       5.369   4.950  14.805  0.00  0.00    +0.000 C 
ENDBRANCH  11  13
ENDBRANCH  10  11
BRANCH  10  14
ATOM     14  O   UNL     1       6.565   7.671  17.211  0.00  0.00    +0.000 OA
BRANCH  14  15
ATOM     15  C   UNL     1       7.695   7.895  17.924  0.00  0.00    +0.000 C 
ATOM     16  C   UNL     1       8.127   9.324  17.772  0.00  0.00    +0.000 C 
ATOM     17  O   UNL     1       8.278   7.072  18.613  0.00  0.00    +0.000 OA
ENDBRANCH  14  15
ENDBRANCH  10  14
ENDBRANCH   1  10
TORSDOF 5
ENDMDL
MODEL 3
REMARK VINA RESULT:      -6.3      2.632      4.670
REMARK  Name = 
REMARK  7 active torsions:
REMARK  status: ('A' for Active; 'I' for Inactive)
REMARK    1  A    between atoms: C_1  and  C_2
REMARK    2  A    between atoms: C_2  and  C_3
REMARK    3  A    between atoms: C_3  and  C_4
REMARK    4  A    between atoms: C_4  and  O_5
REMARK    5  A    between atoms: C_4  and  C_9
REMARK    6  A    between atoms: O_5  and  C_6
REMARK    7  A    between atoms: C_6  and  C_7
REMARK                            x       y       z     vdW  Elec       q    Type
REMARK                         _______ _______ _______ _____ _____    ______ ____
ROOT
ATOM      1  C   UNL     1       4.082   5.558  18.505  0.00  0.00    +0.000 C 
ATOM      2  C   UNL     1       3.940   6.621  17.712  0.00  0.00    +0.000 C 
ATOM      3 BR   UNL     1       4.814   6.957  16.115  0.00  0.00    +0.000 Br
ATOM      4  C   UNL     1       2.903   7.465  18.230  0.00  0.00    +0.000 C 
ATOM      5  C   UNL     1       2.412   8.587  17.677  0.00  0.00    +0.000 C 
ATOM      6  I   UNL     1       0.869   9.689  18.445  0.00  0.00    +0.000 I 
ATOM      7  O   UNL     1       2.421   6.926  19.413  0.00  0.00    +0.000 OA
ATOM      8  C   UNL     1       3.124   5.770  19.594  0.00  0.00    +0.000 C 
ATOM      9  O   UNL     1       2.970   4.999  20.531  0.00  0.00    +0.000 OA
ENDROOT
BRANCH   1  10
ATOM     10  C   UNL     1       4.919   4.316  18.440  0.00  0.00    +0.000 C 
BRANCH  10  11
ATOM     11  C   UNL     1       4.290   3.386  17.381  0.00  0.00    +0.000 C 
BRANCH  11  13
ATOM     12  C   UNL     1       2.053   2.426  18.032  0.00  0.00    +0.000 C 
ATOM     13  C   UNL     1       3.551   2.175  17.950  0.00  0.00    +0.000 C 
ENDBRANCH  11  13
ENDBRANCH  10  11
BRANCH  10  14
ATOM     14  O   UNL     1       6.250   4.706  18.046  0.00  0.00    +0.000 OA
BRANCH  14  15
ATOM     15  C   UNL     1       7.018   5.397  18.923  0.00  0.00    +0.000 C 
ATOM     16  C   UNL     1       7.693   6.543  18.228  0.00  0.00    +0.000 C 
ATOM     17  O   UNL     1       7.138   5.151  20.113  0.00  0.00    +0.000 OA
ENDBRANCH  14  15
ENDBRANCH  10  14
ENDBRANCH   1  10
TORSDOF 5
ENDMDL
MODEL 4
REMARK VINA RESULT:      -6.2      2.535      4.222
REMARK  Name = 
REMARK  7 active torsions:
REMARK  status: ('A' for Active; 'I' for Inactive)
REMARK    1  A    between atoms: C_1  and  C_2
REMARK    2  A    between atoms: C_2  and  C_3
REMARK    3  A    between atoms: C_3  and  C_4
REMARK    4  A    between atoms: C_4  and  O_5
REMARK    5  A    between atoms: C_4  and  C_9
REMARK    6  A    between atoms: O_5  and  C_6
REMARK    7  A    between atoms: C_6  and  C_7
REMARK                            x       y       z     vdW  Elec       q    Type
REMARK                         _______ _______ _______ _____ _____    ______ ____
ROOT
ATOM      1  C   UNL     1       4.420   5.709  17.860  0.00  0.00    +0.000 C 
ATOM      2  C   UNL     1       3.411   5.993  18.685  0.00  0.00    +0.000 C 
ATOM      3 BR   UNL     1       2.821   4.993  20.127  0.00  0.00    +0.000 Br
ATOM      4  C   UNL     1       2.878   7.282  18.356  0.00  0.00    +0.000 C 
ATOM      5  C   UNL     1       1.909   7.954  19.001  0.00  0.00    +0.000 C 
ATOM      6  I   UNL     1       1.263   9.832  18.512  0.00  0.00    +0.000 I 
ATOM      7  O   UNL     1       3.552   7.791  17.256  0.00  0.00    +0.000 OA
ATOM      8  C   UNL     1       4.490   6.850  16.944  0.00  0.00    +0.000 C 
ATOM      9  O   UNL     1       5.297   6.946  16.029  0.00  0.00    +0.000 OA
ENDROOT
BRANCH   1  10
ATOM     10  C   UNL     1       5.400   4.578  17.768  0.00  0.00    +0.000 C 
BRANCH  10  11
ATOM     11  C   UNL     1       5.068   3.778  16.491  0.00  0.00    +0.000 C 
BRANCH  11  13
ATOM     12  C   UNL     1       5.720   4.136  14.083  0.00  0.00    +0.000 C 
ATOM     13  C   UNL     1       6.198   3.713  15.463  0.00  0.00    +0.000 C 
ENDBRANCH  11  13
ENDBRANCH  10  11
BRANCH  10  14
ATOM     14  O   UNL     1       6.721   5.149  17.680  0.00  0.00    +0.000 OA
BRANCH  14  15
ATOM     15  C   UNL     1       7.269   5.709  18.786  0.00  0.00    +0.000 C 
ATOM     16  C   UNL     1       7.972   6.985  18.424  0.00  0.00    +0.000 C 
ATOM     17  O   UNL     1       7.194   5.265  19.921  0.00  0.00    +0.000 OA
ENDBRANCH  14  15
ENDBRANCH  10  14
ENDBRANCH   1  10
TORSDOF 5
ENDMDL
MODEL 5
REMARK VINA RESULT:      -6.2      3.009      4.795
REMARK  Name = 
REMARK  7 active torsions:
REMARK  status: ('A' for Active; 'I' for Inactive)
REMARK    1  A    between atoms: C_1  and  C_2
REMARK    2  A    between atoms: C_2  and  C_3
REMARK    3  A    between atoms: C_3  and  C_4
REMARK    4  A    between atoms: C_4  and  O_5
REMARK    5  A    between atoms: C_4  and  C_9
REMARK    6  A    between atoms: O_5  and  C_6
REMARK    7  A    between atoms: C_6  and  C_7
REMARK                            x       y       z     vdW  Elec       q    Type
REMARK                         _______ _______ _______ _____ _____    ______ ____
ROOT
ATOM      1  C   UNL     1       2.714   5.639  19.423  0.00  0.00    +0.000 C 
ATOM      2  C   UNL     1       2.487   6.939  19.222  0.00  0.00    +0.000 C 
ATOM      3 BR   UNL     1       2.953   7.946  17.741  0.00  0.00    +0.000 Br
ATOM      4  C   UNL     1       1.712   7.459  20.310  0.00  0.00    +0.000 C 
ATOM      5  C   UNL     1       1.216   8.701  20.438  0.00  0.00    +0.000 C 
ATOM      6  I   UNL     1       0.046   9.338  21.990  0.00  0.00    +0.000 I 
ATOM      7  O   UNL     1       1.494   6.454  21.240  0.00  0.00    +0.000 OA
ATOM      8  C   UNL     1       2.094   5.345  20.718  0.00  0.00    +0.000 C 
ATOM      9  O   UNL     1       2.105   4.242  21.248  0.00  0.00    +0.000 OA
ENDROOT
BRANCH   1  10
ATOM     10  C   UNL     1       3.371   4.562  18.614  0.00  0.00    +0.000 C 
BRANCH  10  11
ATOM     11  C   UNL     1       2.295   3.948  17.695  0.00  0.00    +0.000 C 
BRANCH  11  13
ATOM     12  C   UNL     1       3.228   1.789  18.599  0.00  0.00    +0.000 C 
ATOM     13  C   UNL     1       2.412   2.437  17.492  0.00  0.00    +0.000 C 
ENDBRANCH  11  13
ENDBRANCH  10  11
BRANCH  10  14
ATOM     14  O   UNL     1       4.416   5.176  17.832  0.00  0.00    +0.000 OA
BRANCH  14  15
ATOM     15  C   UNL     1       5.608   4.542  17.718  0.00  0.00    +0.000 C 
ATOM     16  C   UNL     1       5.865   4.179  16.284  0.00  0.00    +0.000 C 
ATOM     17  O   UNL     1       6.383   4.312  18.633  0.00  0.00    +0.000 OA
ENDBRANCH  14  15
ENDBRANCH  10  14
ENDBRANCH   1  10
TORSDOF 5
ENDMDL
MODEL 6
REMARK VINA RESULT:      -6.0      2.832      4.648
REMARK  Name = 
REMARK  7 active torsions:
REMARK  status: ('A' for Active; 'I' for Inactive)
REMARK    1  A    between atoms: C_1  and  C_2
REMARK    2  A    between atoms: C_2  and  C_3
REMARK    3  A    between atoms: C_3  and  C_4
REMARK    4  A    between atoms: C_4  and  O_5
REMARK    5  A    between atoms: C_4  and  C_9
REMARK    6  A    between atoms: O_5  and  C_6
REMARK    7  A    between atoms: C_6  and  C_7
REMARK                            x       y       z     vdW  Elec       q    Type
REMARK                         _______ _______ _______ _____ _____    ______ ____
ROOT
ATOM      1  C   UNL     1       4.002   5.743  18.221  0.00  0.00    +0.000 C 
ATOM      2  C   UNL     1       3.028   6.127  19.049  0.00  0.00    +0.000 C 
ATOM      3 BR   UNL     1       2.416   5.239  20.554  0.00  0.00    +0.000 Br
ATOM      4  C   UNL     1       2.561   7.426  18.662  0.00  0.00    +0.000 C 
ATOM      5  C   UNL     1       1.645   8.184  19.288  0.00  0.00    +0.000 C 
ATOM      6  I   UNL     1       1.095  10.067  18.712  0.00  0.00    +0.000 I 
ATOM      7  O   UNL     1       3.237   7.836  17.523  0.00  0.00    +0.000 OA
ATOM      8  C   UNL     1       4.115   6.829  17.243  0.00  0.00    +0.000 C 
ATOM      9  O   UNL     1       4.904   6.831  16.310  0.00  0.00    +0.000 OA
ENDROOT
BRANCH   1  10
ATOM     10  C   UNL     1       4.915   4.555  18.170  0.00  0.00    +0.000 C 
BRANCH  10  11
ATOM     11  C   UNL     1       4.400   3.620  17.056  0.00  0.00    +0.000 C 
BRANCH  11  13
ATOM     12  C   UNL     1       3.466   1.966  18.712  0.00  0.00    +0.000 C 
ATOM     13  C   UNL     1       3.196   2.762  17.444  0.00  0.00    +0.000 C 
ENDBRANCH  11  13
ENDBRANCH  10  11
BRANCH  10  14
ATOM     14  O   UNL     1       6.239   5.033  17.860  0.00  0.00    +0.000 OA
BRANCH  14  15
ATOM     15  C   UNL     1       6.994   5.565  18.853  0.00  0.00    +0.000 C 
ATOM     16  C   UNL     1       7.792   6.723  18.330  0.00  0.00    +0.000 C 
ATOM     17  O   UNL     1       7.017   5.184  20.013  0.00  0.00    +0.000 OA
ENDBRANCH  14  15
ENDBRANCH  10  14
ENDBRANCH   1  10
TORSDOF 5
ENDMDL
MODEL 7
REMARK VINA RESULT:      -6.0      2.972      4.969
REMARK  Name = 
REMARK  7 active torsions:
REMARK  status: ('A' for Active; 'I' for Inactive)
REMARK    1  A    between atoms: C_1  and  C_2
REMARK    2  A    between atoms: C_2  and  C_3
REMARK    3  A    between atoms: C_3  and  C_4
REMARK    4  A    between atoms: C_4  and  O_5
REMARK    5  A    between atoms: C_4  and  C_9
REMARK    6  A    between atoms: O_5  and  C_6
REMARK    7  A    between atoms: C_6  and  C_7
REMARK                            x       y       z     vdW  Elec       q    Type
REMARK                         _______ _______ _______ _____ _____    ______ ____
ROOT
ATOM      1  C   UNL     1       2.457   6.143  19.361  0.00  0.00    +0.000 C 
ATOM      2  C   UNL     1       2.158   7.440  19.263  0.00  0.00    +0.000 C 
ATOM      3 BR   UNL     1       2.408   8.544  17.799  0.00  0.00    +0.000 Br
ATOM      4  C   UNL     1       1.496   7.866  20.461  0.00  0.00    +0.000 C 
ATOM      5  C   UNL     1       0.972   9.076  20.718  0.00  0.00    +0.000 C 
ATOM      6  I   UNL     1      -0.031   9.577  22.428  0.00  0.00    +0.000 I 
ATOM      7  O   UNL     1       1.429   6.804  21.351  0.00  0.00    +0.000 OA
ATOM      8  C   UNL     1       2.005   5.752  20.700  0.00  0.00    +0.000 C 
ATOM      9  O   UNL     1       2.121   4.625  21.160  0.00  0.00    +0.000 OA
ENDROOT
BRANCH   1  10
ATOM     10  C   UNL     1       3.055   5.141  18.421  0.00  0.00    +0.000 C 
BRANCH  10  11
ATOM     11  C   UNL     1       1.894   4.451  17.675  0.00  0.00    +0.000 C 
BRANCH  11  13
ATOM     12  C   UNL     1       2.872   2.142  17.912  0.00  0.00    +0.000 C 
ATOM     13  C   UNL     1       1.633   3.004  18.092  0.00  0.00    +0.000 C 
ENDBRANCH  11  13
ENDBRANCH  10  11
BRANCH  10  14
ATOM     14  O   UNL     1       3.899   5.855  17.497  0.00  0.00    +0.000 OA
BRANCH  14  15
ATOM     15  C   UNL     1       5.234   5.899  17.726  0.00  0.00    +0.000 C 
ATOM     16  C   UNL     1       5.683   4.637  18.403  0.00  0.00    +0.000 C 
ATOM     17  O   UNL     1       5.982   6.813  17.415  0.00  0.00    +0.000 OA
ENDBRANCH  14  15
ENDBRANCH  10  14
ENDBRANCH   1  10
TORSDOF 5
ENDMDL
MODEL 8
REMARK VINA RESULT:      -6.0      3.283      5.650
REMARK  Name = 
REMARK  7 active torsions:
REMARK  status: ('A' for Active; 'I' for Inactive)
REMARK    1  A    between atoms: C_1  and  C_2
REMARK    2  A    between atoms: C_2  and  C_3
REMARK    3  A    between atoms: C_3  and  C_4
REMARK    4  A    between atoms: C_4  and  O_5
REMARK    5  A    between atoms: C_4  and  C_9
REMARK    6  A    between atoms: O_5  and  C_6
REMARK    7  A    between atoms: C_6  and  C_7
REMARK                            x       y       z     vdW  Elec       q    Type
REMARK                         _______ _______ _______ _____ _____    ______ ____
ROOT
ATOM      1  C   UNL     1       4.423   4.538  18.772  0.00  0.00    +0.000 C 
ATOM      2  C   UNL     1       4.151   4.089  17.546  0.00  0.00    +0.000 C 
ATOM      3 BR   UNL     1       2.570   3.333  16.949  0.00  0.00    +0.000 Br
ATOM      4  C   UNL     1       5.260   4.370  16.681  0.00  0.00    +0.000 C 
ATOM      5  C   UNL     1       5.342   4.144  15.359  0.00  0.00    +0.000 C 
ATOM      6  I   UNL     1       6.935   4.653  14.183  0.00  0.00    +0.000 I 
ATOM      7  O   UNL     1       6.273   4.970  17.414  0.00  0.00    +0.000 OA
ATOM      8  C   UNL     1       5.781   5.081  18.682  0.00  0.00    +0.000 C 
ATOM      9  O   UNL     1       6.384   5.579  19.623  0.00  0.00    +0.000 OA
ENDROOT
BRANCH   1  10
ATOM     10  C   UNL     1       3.640   4.614  20.048  0.00  0.00    +0.000 C 
BRANCH  10  11
ATOM     11  C   UNL     1       2.378   5.457  19.771  0.00  0.00    +0.000 C 
BRANCH  11  13
ATOM     12  C   UNL     1       2.402   7.441  18.219  0.00  0.00    +0.000 C 
ATOM     13  C   UNL     1       2.626   6.960  19.643  0.00  0.00    +0.000 C 
ENDBRANCH  11  13
ENDBRANCH  10  11
BRANCH  10  14
ATOM     14  O   UNL     1       3.280   3.269  20.422  0.00  0.00    +0.000 OA
BRANCH  14  15
ATOM     15  C   UNL     1       2.222   3.078  21.247  0.00  0.00    +0.000 C 
ATOM     16  C   UNL     1       1.031   2.613  20.461  0.00  0.00    +0.000 C 
ATOM     17  O   UNL     1       2.225   3.236  22.458  0.00  0.00    +0.000 OA
ENDBRANCH  14  15
ENDBRANCH  10  14
ENDBRANCH   1  10
TORSDOF 5
ENDMDL
MODEL 9
REMARK VINA RESULT:      -5.9      2.981      4.546
REMARK  Name = 
REMARK  7 active torsions:
REMARK  status: ('A' for Active; 'I' for Inactive)
REMARK    1  A    between atoms: C_1  and  C_2
REMARK    2  A    between atoms: C_2  and  C_3
REMARK    3  A    between atoms: C_3  and  C_4
REMARK    4  A    between atoms: C_4  and  O_5
REMARK    5  A    between atoms: C_4  and  C_9
REMARK    6  A    between atoms: O_5  and  C_6
REMARK    7  A    between atoms: C_6  and  C_7
REMARK                            x       y       z     vdW  Elec       q    Type
REMARK                         _______ _______ _______ _____ _____    ______ ____
ROOT
ATOM      1  C   UNL     1       3.416   5.708  18.720  0.00  0.00    +0.000 C 
ATOM      2  C   UNL     1       2.616   5.746  19.787  0.00  0.00    +0.000 C 
ATOM      3 BR   UNL     1       2.329   4.402  21.027  0.00  0.00    +0.000 Br
ATOM      4  C   UNL     1       2.054   7.059  19.912  0.00  0.00    +0.000 C 
ATOM      5  C   UNL     1       1.262   7.518  20.897  0.00  0.00    +0.000 C 
ATOM      6  I   UNL     1       0.569   9.436  21.041  0.00  0.00    +0.000 I 
ATOM      7  O   UNL     1       2.485   7.846  18.855  0.00  0.00    +0.000 OA
ATOM      8  C   UNL     1       3.312   7.043  18.124  0.00  0.00    +0.000 C 
ATOM      9  O   UNL     1       3.904   7.389  17.111  0.00  0.00    +0.000 OA
ENDROOT
BRANCH   1  10
ATOM     10  C   UNL     1       4.327   4.668  18.141  0.00  0.00    +0.000 C 
BRANCH  10  11
ATOM     11  C   UNL     1       3.544   3.928  17.036  0.00  0.00    +0.000 C 
BRANCH  11  13
ATOM     12  C   UNL     1       3.429   1.721  18.245  0.00  0.00    +0.000 C 
ATOM     13  C   UNL     1       2.635   2.806  17.536  0.00  0.00    +0.000 C 
ENDBRANCH  11  13
ENDBRANCH  10  11
BRANCH  10  14
ATOM     14  O   UNL     1       5.470   5.347  17.585  0.00  0.00    +0.000 OA
BRANCH  14  15
ATOM     15  C   UNL     1       6.657   4.695  17.528  0.00  0.00    +0.000 C 
ATOM     16  C   UNL     1       7.015   4.398  16.101  0.00  0.00    +0.000 C 
ATOM     17  O   UNL     1       7.356   4.402  18.485  0.00  0.00    +0.000 OA
ENDBRANCH  14  15
ENDBRANCH  10  14
ENDBRANCH   1  10
TORSDOF 5
ENDMDL
