MODEL 1
REMARK VINA RESULT:      -7.8      0.000      0.000
REMARK  Name = 
REMARK  3 active torsions:
REMARK  status: ('A' for Active; 'I' for Inactive)
REMARK    1  A    between atoms: C_4  and  O_5
REMARK    2  A    between atoms: O_5  and  C_6
REMARK    3  A    between atoms: C_17  and  N_18
REMARK                            x       y       z     vdW  Elec       q    Type
REMARK                         _______ _______ _______ _____ _____    ______ ____
ROOT
ATOM      1  O   UNL     1       7.510   6.482  17.605  0.00  0.00    +0.000 OA
ATOM      2  C   UNL     1       7.031   5.755  16.743  0.00  0.00    +0.000 A 
ATOM      3  C   UNL     1       5.970   4.793  17.081  0.00  0.00    +0.000 A 
ATOM      4  C   UNL     1       5.349   4.072  16.133  0.00  0.00    +0.000 A 
ATOM      5  C   UNL     1       5.849   4.111  14.741  0.00  0.00    +0.000 A 
ATOM      6  C   UNL     1       5.315   3.281  13.743  0.00  0.00    +0.000 A 
ATOM      7  C   UNL     1       5.805   3.323  12.436  0.00  0.00    +0.000 A 
ATOM      8  C   UNL     1       6.834   4.201  12.105  0.00  0.00    +0.000 A 
ATOM      9  C   UNL     1       7.380   5.043  13.088  0.00  0.00    +0.000 A 
ATOM     10  C   UNL     1       6.897   4.997  14.412  0.00  0.00    +0.000 A 
ATOM     11  N   UNL     1       7.424   5.802  15.440  0.00  0.00    +0.000 N 
ATOM     12  H   UNL     1       8.165   6.472  15.230  0.00  0.00    +0.000 HD
ENDROOT
BRANCH   9  13
ATOM     13  N   UNL     1       8.470   5.951  12.689  0.00  0.00    +0.000 N 
ATOM     14  O   UNL     1       8.313   6.615  11.656  0.00  0.00    +0.000 OA
ATOM     15  O   UNL     1       9.480   6.010  13.406  0.00  0.00    +0.000 OA
ENDBRANCH   9  13
BRANCH   4  16
ATOM     16  O   UNL     1       4.280   3.210  16.365  0.00  0.00    +0.000 OA
BRANCH  16  17
ATOM     17  C   UNL     1       3.625   3.228  17.580  0.00  0.00    +0.000 A 
ATOM     18  C   UNL     1       4.048   2.499  18.695  0.00  0.00    +0.000 A 
ATOM     19  C   UNL     1       3.299   2.520  19.871  0.00  0.00    +0.000 A 
ATOM     20  C   UNL     1       2.161   3.320  19.951  0.00  0.00    +0.000 A 
ATOM     21 CL   UNL     1       1.227   3.332  21.395  0.00  0.00    +0.000 Cl
ATOM     22  C   UNL     1       1.776   4.110  18.867  0.00  0.00    +0.000 A 
ATOM     23  C   UNL     1       2.512   4.065  17.679  0.00  0.00    +0.000 A 
ENDBRANCH  16  17
ENDBRANCH   4  16
TORSDOF 3
ENDMDL
MODEL 2
REMARK VINA RESULT:      -7.7      3.728      6.783
REMARK  Name = 
REMARK  3 active torsions:
REMARK  status: ('A' for Active; 'I' for Inactive)
REMARK    1  A    between atoms: C_4  and  O_5
REMARK    2  A    between atoms: O_5  and  C_6
REMARK    3  A    between atoms: C_17  and  N_18
REMARK                            x       y       z     vdW  Elec       q    Type
REMARK                         _______ _______ _______ _____ _____    ______ ____
ROOT
ATOM      1  O   UNL     1       7.721   5.540  19.647  0.00  0.00    +0.000 OA
ATOM      2  C   UNL     1       6.729   5.155  19.043  0.00  0.00    +0.000 A 
ATOM      3  C   UNL     1       6.421   5.676  17.701  0.00  0.00    +0.000 A 
ATOM      4  C   UNL     1       5.407   5.182  16.971  0.00  0.00    +0.000 A 
ATOM      5  C   UNL     1       4.470   4.216  17.585  0.00  0.00    +0.000 A 
ATOM      6  C   UNL     1       3.324   3.769  16.907  0.00  0.00    +0.000 A 
ATOM      7  C   UNL     1       2.444   2.864  17.505  0.00  0.00    +0.000 A 
ATOM      8  C   UNL     1       2.698   2.387  18.788  0.00  0.00    +0.000 A 
ATOM      9  C   UNL     1       3.840   2.819  19.482  0.00  0.00    +0.000 A 
ATOM     10  C   UNL     1       4.728   3.741  18.889  0.00  0.00    +0.000 A 
ATOM     11  N   UNL     1       5.874   4.224  19.549  0.00  0.00    +0.000 N 
ATOM     12  H   UNL     1       6.103   3.881  20.483  0.00  0.00    +0.000 HD
ENDROOT
BRANCH   9  13
ATOM     13  N   UNL     1       4.064   2.289  20.839  0.00  0.00    +0.000 N 
ATOM     14  O   UNL     1       3.152   2.425  21.665  0.00  0.00    +0.000 OA
ATOM     15  O   UNL     1       5.145   1.731  21.083  0.00  0.00    +0.000 OA
ENDBRANCH   9  13
BRANCH   4  16
ATOM     16  O   UNL     1       5.111   5.562  15.665  0.00  0.00    +0.000 OA
BRANCH  16  17
ATOM     17  C   UNL     1       5.729   4.934  14.603  0.00  0.00    +0.000 A 
ATOM     18  C   UNL     1       7.053   5.179  14.227  0.00  0.00    +0.000 A 
ATOM     19  C   UNL     1       7.590   4.551  13.103  0.00  0.00    +0.000 A 
ATOM     20  C   UNL     1       6.822   3.631  12.393  0.00  0.00    +0.000 A 
ATOM     21 CL   UNL     1       7.478   2.870  10.997  0.00  0.00    +0.000 Cl
ATOM     22  C   UNL     1       5.526   3.324  12.808  0.00  0.00    +0.000 A 
ATOM     23  C   UNL     1       4.979   3.976  13.918  0.00  0.00    +0.000 A 
ENDBRANCH  16  17
ENDBRANCH   4  16
TORSDOF 3
ENDMDL
MODEL 3
REMARK VINA RESULT:      -7.7      0.192      1.035
REMARK  Name = 
REMARK  3 active torsions:
REMARK  status: ('A' for Active; 'I' for Inactive)
REMARK    1  A    between atoms: C_4  and  O_5
REMARK    2  A    between atoms: O_5  and  C_6
REMARK    3  A    between atoms: C_17  and  N_18
REMARK                            x       y       z     vdW  Elec       q    Type
REMARK                         _______ _______ _______ _____ _____    ______ ____
ROOT
ATOM      1  O   UNL     1       7.466   6.487  17.546  0.00  0.00    +0.000 OA
ATOM      2  C   UNL     1       6.983   5.773  16.677  0.00  0.00    +0.000 A 
ATOM      3  C   UNL     1       5.879   4.853  16.993  0.00  0.00    +0.000 A 
ATOM      4  C   UNL     1       5.256   4.148  16.034  0.00  0.00    +0.000 A 
ATOM      5  C   UNL     1       5.793   4.158  14.656  0.00  0.00    +0.000 A 
ATOM      6  C   UNL     1       5.255   3.341  13.649  0.00  0.00    +0.000 A 
ATOM      7  C   UNL     1       5.780   3.355  12.355  0.00  0.00    +0.000 A 
ATOM      8  C   UNL     1       6.849   4.192  12.045  0.00  0.00    +0.000 A 
ATOM      9  C   UNL     1       7.400   5.020  13.037  0.00  0.00    +0.000 A 
ATOM     10  C   UNL     1       6.882   5.003  14.348  0.00  0.00    +0.000 A 
ATOM     11  N   UNL     1       7.411   5.795  15.384  0.00  0.00    +0.000 N 
ATOM     12  H   UNL     1       8.181   6.436  15.189  0.00  0.00    +0.000 HD
ENDROOT
BRANCH   9  13
ATOM     13  N   UNL     1       8.533   5.885  12.661  0.00  0.00    +0.000 N 
ATOM     14  O   UNL     1       8.372   6.658  11.708  0.00  0.00    +0.000 OA
ATOM     15  O   UNL     1       9.582   5.801  13.317  0.00  0.00    +0.000 OA
ENDBRANCH   9  13
BRANCH   4  16
ATOM     16  O   UNL     1       4.150   3.327  16.244  0.00  0.00    +0.000 OA
BRANCH  16  17
ATOM     17  C   UNL     1       3.474   3.370  17.446  0.00  0.00    +0.000 A 
ATOM     18  C   UNL     1       2.479   4.307  17.737  0.00  0.00    +0.000 A 
ATOM     19  C   UNL     1       1.882   4.326  18.998  0.00  0.00    +0.000 A 
ATOM     20  C   UNL     1       2.237   3.368  19.945  0.00  0.00    +0.000 A 
ATOM     21 CL   UNL     1       1.514   3.402  21.505  0.00  0.00    +0.000 Cl
ATOM     22  C   UNL     1       3.173   2.382  19.634  0.00  0.00    +0.000 A 
ATOM     23  C   UNL     1       3.792   2.381  18.380  0.00  0.00    +0.000 A 
ENDBRANCH  16  17
ENDBRANCH   4  16
TORSDOF 3
ENDMDL
MODEL 4
REMARK VINA RESULT:      -7.6      3.682      6.767
REMARK  Name = 
REMARK  3 active torsions:
REMARK  status: ('A' for Active; 'I' for Inactive)
REMARK    1  A    between atoms: C_4  and  O_5
REMARK    2  A    between atoms: O_5  and  C_6
REMARK    3  A    between atoms: C_17  and  N_18
REMARK                            x       y       z     vdW  Elec       q    Type
REMARK                         _______ _______ _______ _____ _____    ______ ____
ROOT
ATOM      1  O   UNL     1       8.006   5.237  19.190  0.00  0.00    +0.000 OA
ATOM      2  C   UNL     1       6.951   4.936  18.646  0.00  0.00    +0.000 A 
ATOM      3  C   UNL     1       6.619   5.466  17.314  0.00  0.00    +0.000 A 
ATOM      4  C   UNL     1       5.526   5.057  16.648  0.00  0.00    +0.000 A 
ATOM      5  C   UNL     1       4.540   4.188  17.328  0.00  0.00    +0.000 A 
ATOM      6  C   UNL     1       3.324   3.839  16.719  0.00  0.00    +0.000 A 
ATOM      7  C   UNL     1       2.399   3.026  17.379  0.00  0.00    +0.000 A 
ATOM      8  C   UNL     1       2.679   2.544  18.655  0.00  0.00    +0.000 A 
ATOM      9  C   UNL     1       3.891   2.879  19.280  0.00  0.00    +0.000 A 
ATOM     10  C   UNL     1       4.825   3.709  18.624  0.00  0.00    +0.000 A 
ATOM     11  N   UNL     1       6.044   4.093  19.214  0.00  0.00    +0.000 N 
ATOM     12  H   UNL     1       6.292   3.743  20.140  0.00  0.00    +0.000 HD
ENDROOT
BRANCH   9  13
ATOM     13  N   UNL     1       4.140   2.348  20.632  0.00  0.00    +0.000 N 
ATOM     14  O   UNL     1       3.270   2.541  21.492  0.00  0.00    +0.000 OA
ATOM     15  O   UNL     1       5.197   1.733  20.839  0.00  0.00    +0.000 OA
ENDBRANCH   9  13
BRANCH   4  16
ATOM     16  O   UNL     1       5.195   5.446  15.353  0.00  0.00    +0.000 OA
BRANCH  16  17
ATOM     17  C   UNL     1       5.681   4.740  14.271  0.00  0.00    +0.000 A 
ATOM     18  C   UNL     1       4.909   3.846  13.524  0.00  0.00    +0.000 A 
ATOM     19  C   UNL     1       5.487   3.121  12.482  0.00  0.00    +0.000 A 
ATOM     20  C   UNL     1       6.822   3.339  12.147  0.00  0.00    +0.000 A 
ATOM     21 CL   UNL     1       7.540   2.433  10.874  0.00  0.00    +0.000 Cl
ATOM     22  C   UNL     1       7.578   4.286  12.839  0.00  0.00    +0.000 A 
ATOM     23  C   UNL     1       7.004   4.990  13.903  0.00  0.00    +0.000 A 
ENDBRANCH  16  17
ENDBRANCH   4  16
TORSDOF 3
ENDMDL
MODEL 5
REMARK VINA RESULT:      -7.4      4.636      6.254
REMARK  Name = 
REMARK  3 active torsions:
REMARK  status: ('A' for Active; 'I' for Inactive)
REMARK    1  A    between atoms: C_4  and  O_5
REMARK    2  A    between atoms: O_5  and  C_6
REMARK    3  A    between atoms: C_17  and  N_18
REMARK                            x       y       z     vdW  Elec       q    Type
REMARK                         _______ _______ _______ _____ _____    ______ ____
ROOT
ATOM      1  O   UNL     1       7.216   5.536  19.301  0.00  0.00    +0.000 OA
ATOM      2  C   UNL     1       6.042   5.345  19.011  0.00  0.00    +0.000 A 
ATOM      3  C   UNL     1       5.201   6.454  18.530  0.00  0.00    +0.000 A 
ATOM      4  C   UNL     1       3.948   6.246  18.093  0.00  0.00    +0.000 A 
ATOM      5  C   UNL     1       3.331   4.911  18.254  0.00  0.00    +0.000 A 
ATOM      6  C   UNL     1       1.985   4.678  17.931  0.00  0.00    +0.000 A 
ATOM      7  C   UNL     1       1.415   3.414  18.098  0.00  0.00    +0.000 A 
ATOM      8  C   UNL     1       2.184   2.360  18.586  0.00  0.00    +0.000 A 
ATOM      9  C   UNL     1       3.534   2.571  18.912  0.00  0.00    +0.000 A 
ATOM     10  C   UNL     1       4.113   3.848  18.757  0.00  0.00    +0.000 A 
ATOM     11  N   UNL     1       5.454   4.119  19.090  0.00  0.00    +0.000 N 
ATOM     12  H   UNL     1       6.053   3.367  19.431  0.00  0.00    +0.000 HD
ENDROOT
BRANCH   9  13
ATOM     13  N   UNL     1       4.306   1.427  19.429  0.00  0.00    +0.000 N 
ATOM     14  O   UNL     1       4.235   0.360  18.804  0.00  0.00    +0.000 OA
ATOM     15  O   UNL     1       4.987   1.589  20.452  0.00  0.00    +0.000 OA
ENDBRANCH   9  13
BRANCH   4  16
ATOM     16  O   UNL     1       3.126   7.227  17.544  0.00  0.00    +0.000 OA
BRANCH  16  17
ATOM     17  C   UNL     1       2.381   8.047  18.367  0.00  0.00    +0.000 A 
ATOM     18  C   UNL     1       2.082   7.737  19.697  0.00  0.00    +0.000 A 
ATOM     19  C   UNL     1       1.270   8.587  20.449  0.00  0.00    +0.000 A 
ATOM     20  C   UNL     1       0.810   9.777  19.889  0.00  0.00    +0.000 A 
ATOM     21 CL   UNL     1      -0.205  10.816  20.809  0.00  0.00    +0.000 Cl
ATOM     22  C   UNL     1       1.169  10.130  18.587  0.00  0.00    +0.000 A 
ATOM     23  C   UNL     1       1.959   9.263  17.825  0.00  0.00    +0.000 A 
ENDBRANCH  16  17
ENDBRANCH   4  16
TORSDOF 3
ENDMDL
MODEL 6
REMARK VINA RESULT:      -7.3      4.585      7.225
REMARK  Name = 
REMARK  3 active torsions:
REMARK  status: ('A' for Active; 'I' for Inactive)
REMARK    1  A    between atoms: C_4  and  O_5
REMARK    2  A    between atoms: O_5  and  C_6
REMARK    3  A    between atoms: C_17  and  N_18
REMARK                            x       y       z     vdW  Elec       q    Type
REMARK                         _______ _______ _______ _____ _____    ______ ____
ROOT
ATOM      1  O   UNL     1       4.684   6.354  16.366  0.00  0.00    +0.000 OA
ATOM      2  C   UNL     1       3.999   6.067  17.339  0.00  0.00    +0.000 A 
ATOM      3  C   UNL     1       3.568   7.109  18.285  0.00  0.00    +0.000 A 
ATOM      4  C   UNL     1       2.719   6.837  19.290  0.00  0.00    +0.000 A 
ATOM      5  C   UNL     1       2.340   5.433  19.565  0.00  0.00    +0.000 A 
ATOM      6  C   UNL     1       1.560   5.086  20.679  0.00  0.00    +0.000 A 
ATOM      7  C   UNL     1       1.219   3.755  20.930  0.00  0.00    +0.000 A 
ATOM      8  C   UNL     1       1.648   2.750  20.067  0.00  0.00    +0.000 A 
ATOM      9  C   UNL     1       2.427   3.076  18.944  0.00  0.00    +0.000 A 
ATOM     10  C   UNL     1       2.784   4.417  18.691  0.00  0.00    +0.000 A 
ATOM     11  N   UNL     1       3.581   4.796  17.594  0.00  0.00    +0.000 N 
ATOM     12  H   UNL     1       3.897   4.089  16.930  0.00  0.00    +0.000 HD
ENDROOT
BRANCH   9  13
ATOM     13  N   UNL     1       2.860   1.977  18.063  0.00  0.00    +0.000 N 
ATOM     14  O   UNL     1       2.415   1.960  16.908  0.00  0.00    +0.000 OA
ATOM     15  O   UNL     1       3.647   1.133  18.517  0.00  0.00    +0.000 OA
ENDBRANCH   9  13
BRANCH   4  16
ATOM     16  O   UNL     1       2.200   7.784  20.168  0.00  0.00    +0.000 OA
BRANCH  16  17
ATOM     17  C   UNL     1       1.298   8.727  19.717  0.00  0.00    +0.000 A 
ATOM     18  C   UNL     1       1.180   9.099  18.375  0.00  0.00    +0.000 A 
ATOM     19  C   UNL     1       0.288  10.105  18.004  0.00  0.00    +0.000 A 
ATOM     20  C   UNL     1      -0.529  10.694  18.966  0.00  0.00    +0.000 A 
ATOM     21 CL   UNL     1      -1.617  11.946  18.511  0.00  0.00    +0.000 Cl
ATOM     22  C   UNL     1      -0.471  10.273  20.295  0.00  0.00    +0.000 A 
ATOM     23  C   UNL     1       0.444   9.284  20.671  0.00  0.00    +0.000 A 
ENDBRANCH  16  17
ENDBRANCH   4  16
TORSDOF 3
ENDMDL
MODEL 7
REMARK VINA RESULT:      -7.2      4.619      6.410
REMARK  Name = 
REMARK  3 active torsions:
REMARK  status: ('A' for Active; 'I' for Inactive)
REMARK    1  A    between atoms: C_4  and  O_5
REMARK    2  A    between atoms: O_5  and  C_6
REMARK    3  A    between atoms: C_17  and  N_18
REMARK                            x       y       z     vdW  Elec       q    Type
REMARK                         _______ _______ _______ _____ _____    ______ ____
ROOT
ATOM      1  O   UNL     1       7.271   5.695  19.120  0.00  0.00    +0.000 OA
ATOM      2  C   UNL     1       6.094   5.395  18.965  0.00  0.00    +0.000 A 
ATOM      3  C   UNL     1       5.138   6.373  18.422  0.00  0.00    +0.000 A 
ATOM      4  C   UNL     1       3.871   6.031  18.132  0.00  0.00    +0.000 A 
ATOM      5  C   UNL     1       3.369   4.695  18.522  0.00  0.00    +0.000 A 
ATOM      6  C   UNL     1       2.022   4.338  18.356  0.00  0.00    +0.000 A 
ATOM      7  C   UNL     1       1.561   3.076  18.739  0.00  0.00    +0.000 A 
ATOM      8  C   UNL     1       2.443   2.148  19.288  0.00  0.00    +0.000 A 
ATOM      9  C   UNL     1       3.796   2.484  19.460  0.00  0.00    +0.000 A 
ATOM     10  C   UNL     1       4.265   3.761  19.086  0.00  0.00    +0.000 A 
ATOM     11  N   UNL     1       5.605   4.157  19.257  0.00  0.00    +0.000 N 
ATOM     12  H   UNL     1       6.284   3.497  19.638  0.00  0.00    +0.000 HD
ENDROOT
BRANCH   9  13
ATOM     13  N   UNL     1       4.689   1.471  20.049  0.00  0.00    +0.000 N 
ATOM     14  O   UNL     1       4.893   0.439  19.397  0.00  0.00    +0.000 OA
ATOM     15  O   UNL     1       5.193   1.703  21.158  0.00  0.00    +0.000 OA
ENDBRANCH   9  13
BRANCH   4  16
ATOM     16  O   UNL     1       2.938   6.876  17.537  0.00  0.00    +0.000 OA
BRANCH  16  17
ATOM     17  C   UNL     1       2.282   7.826  18.293  0.00  0.00    +0.000 A 
ATOM     18  C   UNL     1       1.782   9.020  17.765  0.00  0.00    +0.000 A 
ATOM     19  C   UNL     1       1.185   9.961  18.604  0.00  0.00    +0.000 A 
ATOM     20  C   UNL     1       1.031   9.679  19.959  0.00  0.00    +0.000 A 
ATOM     21 CL   UNL     1       0.310  10.846  20.997  0.00  0.00    +0.000 Cl
ATOM     22  C   UNL     1       1.458   8.456  20.479  0.00  0.00    +0.000 A 
ATOM     23  C   UNL     1       2.083   7.526  19.642  0.00  0.00    +0.000 A 
ENDBRANCH  16  17
ENDBRANCH   4  16
TORSDOF 3
ENDMDL
MODEL 8
REMARK VINA RESULT:      -7.2      4.107      5.419
REMARK  Name = 
REMARK  3 active torsions:
REMARK  status: ('A' for Active; 'I' for Inactive)
REMARK    1  A    between atoms: C_4  and  O_5
REMARK    2  A    between atoms: O_5  and  C_6
REMARK    3  A    between atoms: C_17  and  N_18
REMARK                            x       y       z     vdW  Elec       q    Type
REMARK                         _______ _______ _______ _____ _____    ______ ____
ROOT
ATOM      1  O   UNL     1       3.998   2.290  19.803  0.00  0.00    +0.000 OA
ATOM      2  C   UNL     1       4.202   3.359  19.242  0.00  0.00    +0.000 A 
ATOM      3  C   UNL     1       3.078   4.174  18.753  0.00  0.00    +0.000 A 
ATOM      4  C   UNL     1       3.270   5.401  18.243  0.00  0.00    +0.000 A 
ATOM      5  C   UNL     1       4.649   5.884  18.003  0.00  0.00    +0.000 A 
ATOM      6  C   UNL     1       4.900   7.104  17.356  0.00  0.00    +0.000 A 
ATOM      7  C   UNL     1       6.207   7.541  17.128  0.00  0.00    +0.000 A 
ATOM      8  C   UNL     1       7.285   6.766  17.550  0.00  0.00    +0.000 A 
ATOM      9  C   UNL     1       7.055   5.544  18.203  0.00  0.00    +0.000 A 
ATOM     10  C   UNL     1       5.738   5.092  18.426  0.00  0.00    +0.000 A 
ATOM     11  N   UNL     1       5.453   3.864  19.054  0.00  0.00    +0.000 N 
ATOM     12  H   UNL     1       6.217   3.280  19.395  0.00  0.00    +0.000 HD
ENDROOT
BRANCH   9  13
ATOM     13  N   UNL     1       8.228   4.758  18.627  0.00  0.00    +0.000 N 
ATOM     14  O   UNL     1       8.688   4.979  19.755  0.00  0.00    +0.000 OA
ATOM     15  O   UNL     1       8.690   3.917  17.841  0.00  0.00    +0.000 OA
ENDBRANCH   9  13
BRANCH   4  16
ATOM     16  O   UNL     1       2.253   6.263  17.843  0.00  0.00    +0.000 OA
BRANCH  16  17
ATOM     17  C   UNL     1       1.898   7.333  18.639  0.00  0.00    +0.000 A 
ATOM     18  C   UNL     1       1.821   7.264  20.033  0.00  0.00    +0.000 A 
ATOM     19  C   UNL     1       1.394   8.372  20.767  0.00  0.00    +0.000 A 
ATOM     20  C   UNL     1       1.105   9.565  20.110  0.00  0.00    +0.000 A 
ATOM     21 CL   UNL     1       0.562  10.925  21.012  0.00  0.00    +0.000 Cl
ATOM     22  C   UNL     1       1.254   9.664  18.726  0.00  0.00    +0.000 A 
ATOM     23  C   UNL     1       1.654   8.545  17.989  0.00  0.00    +0.000 A 
ENDBRANCH  16  17
ENDBRANCH   4  16
TORSDOF 3
ENDMDL
MODEL 9
REMARK VINA RESULT:      -7.2      4.571      7.217
REMARK  Name = 
REMARK  3 active torsions:
REMARK  status: ('A' for Active; 'I' for Inactive)
REMARK    1  A    between atoms: C_4  and  O_5
REMARK    2  A    between atoms: O_5  and  C_6
REMARK    3  A    between atoms: C_17  and  N_18
REMARK                            x       y       z     vdW  Elec       q    Type
REMARK                         _______ _______ _______ _____ _____    ______ ____
ROOT
ATOM      1  O   UNL     1       4.658   6.418  16.445  0.00  0.00    +0.000 OA
ATOM      2  C   UNL     1       3.972   6.105  17.409  0.00  0.00    +0.000 A 
ATOM      3  C   UNL     1       3.523   7.125  18.371  0.00  0.00    +0.000 A 
ATOM      4  C   UNL     1       2.672   6.825  19.367  0.00  0.00    +0.000 A 
ATOM      5  C   UNL     1       2.309   5.412  19.615  0.00  0.00    +0.000 A 
ATOM      6  C   UNL     1       1.526   5.036  20.718  0.00  0.00    +0.000 A 
ATOM      7  C   UNL     1       1.200   3.697  20.944  0.00  0.00    +0.000 A 
ATOM      8  C   UNL     1       1.646   2.713  20.065  0.00  0.00    +0.000 A 
ATOM      9  C   UNL     1       2.426   3.068  18.953  0.00  0.00    +0.000 A 
ATOM     10  C   UNL     1       2.769   4.417  18.726  0.00  0.00    +0.000 A 
ATOM     11  N   UNL     1       3.568   4.825  17.640  0.00  0.00    +0.000 N 
ATOM     12  H   UNL     1       3.895   4.134  16.964  0.00  0.00    +0.000 HD
ENDROOT
BRANCH   9  13
ATOM     13  N   UNL     1       2.877   1.990  18.054  0.00  0.00    +0.000 N 
ATOM     14  O   UNL     1       2.452   1.998  16.892  0.00  0.00    +0.000 OA
ATOM     15  O   UNL     1       3.660   1.138  18.502  0.00  0.00    +0.000 OA
ENDBRANCH   9  13
BRANCH   4  16
ATOM     16  O   UNL     1       2.137   7.750  20.259  0.00  0.00    +0.000 OA
BRANCH  16  17
ATOM     17  C   UNL     1       1.254   8.713  19.812  0.00  0.00    +0.000 A 
ATOM     18  C   UNL     1       0.366   9.392  20.651  0.00  0.00    +0.000 A 
ATOM     19  C   UNL     1      -0.540  10.309  20.117  0.00  0.00    +0.000 A 
ATOM     20  C   UNL     1      -0.514  10.590  18.753  0.00  0.00    +0.000 A 
ATOM     21 CL   UNL     1      -1.643  11.707  18.092  0.00  0.00    +0.000 Cl
ATOM     22  C   UNL     1       0.421   9.973  17.922  0.00  0.00    +0.000 A 
ATOM     23  C   UNL     1       1.310   9.033  18.454  0.00  0.00    +0.000 A 
ENDBRANCH  16  17
ENDBRANCH   4  16
TORSDOF 3
ENDMDL
