MODEL 1
REMARK VINA RESULT:      -7.7      0.000      0.000
REMARK  Name = 
REMARK  8 active torsions:
REMARK  status: ('A' for Active; 'I' for Inactive)
REMARK    1  A    between atoms: C_1  and  C_2
REMARK    2  A    between atoms: C_2  and  C_3
REMARK    3  A    between atoms: C_3  and  C_4
REMARK    4  A    between atoms: C_4  and  C_5
REMARK    5  A    between atoms: C_5  and  N_6
REMARK    6  A    between atoms: C_8  and  C_9
REMARK    7  A    between atoms: C_9  and  C_10
REMARK    8  A    between atoms: C_10  and  C_11
REMARK                            x       y       z     vdW  Elec       q    Type
REMARK                         _______ _______ _______ _____ _____    ______ ____
ROOT
ATOM      1  N   UNL     1       6.690   4.127  13.361  0.00  0.00    +0.000 N 
ATOM      2  C   UNL     1       5.932   3.820  14.431  0.00  0.00    +0.000 A 
ATOM      3  C   UNL     1       6.307   4.647  15.467  0.00  0.00    +0.000 A 
ATOM      4  N   UNL     1       7.298   5.466  15.057  0.00  0.00    +0.000 NA
ATOM      5  C   UNL     1       7.507   5.125  13.772  0.00  0.00    +0.000 A 
ATOM      6  N   UNL     1       8.484   5.761  12.970  0.00  0.00    +0.000 N 
ATOM      7  H   UNL     1       9.061   6.513  13.373  0.00  0.00    +0.000 HD
ATOM      8  H   UNL     1       8.644   5.501  11.988  0.00  0.00    +0.000 HD
ENDROOT
BRANCH   1   9
ATOM      9  C   UNL     1       6.606   3.479  12.049  0.00  0.00    +0.000 C 
BRANCH   9  10
ATOM     10  C   UNL     1       5.258   2.771  11.884  0.00  0.00    +0.000 C 
BRANCH  10  11
ATOM     11  C   UNL     1       4.179   3.769  11.461  0.00  0.00    +0.000 C 
BRANCH  11  13
ATOM     12  C   UNL     1       2.793   4.365   9.453  0.00  0.00    +0.000 C 
ATOM     13  C   UNL     1       3.339   3.223  10.304  0.00  0.00    +0.000 C 
ENDBRANCH  11  13
ENDBRANCH  10  11
ENDBRANCH   9  10
ENDBRANCH   1   9
BRANCH   3  14
ATOM     14  C   UNL     1       5.707   4.643  16.842  0.00  0.00    +0.000 C 
BRANCH  14  15
ATOM     15  C   UNL     1       4.510   5.601  16.939  0.00  0.00    +0.000 C 
BRANCH  15  16
ATOM     16  C   UNL     1       3.433   5.064  17.844  0.00  0.00    +0.000 A 
ATOM     17  C   UNL     1       3.286   5.556  19.152  0.00  0.00    +0.000 A 
ATOM     18  C   UNL     1       2.278   5.059  19.983  0.00  0.00    +0.000 A 
ATOM     19  C   UNL     1       1.407   4.071  19.515  0.00  0.00    +0.000 A 
ATOM     20  C   UNL     1       1.544   3.579  18.215  0.00  0.00    +0.000 A 
ATOM     21  C   UNL     1       2.551   4.071  17.381  0.00  0.00    +0.000 A 
ENDBRANCH  15  16
ENDBRANCH  14  15
ENDBRANCH   3  14
TORSDOF 7
ENDMDL
MODEL 2
REMARK VINA RESULT:      -7.6      0.965      1.269
REMARK  Name = 
REMARK  8 active torsions:
REMARK  status: ('A' for Active; 'I' for Inactive)
REMARK    1  A    between atoms: C_1  and  C_2
REMARK    2  A    between atoms: C_2  and  C_3
REMARK    3  A    between atoms: C_3  and  C_4
REMARK    4  A    between atoms: C_4  and  C_5
REMARK    5  A    between atoms: C_5  and  N_6
REMARK    6  A    between atoms: C_8  and  C_9
REMARK    7  A    between atoms: C_9  and  C_10
REMARK    8  A    between atoms: C_10  and  C_11
REMARK                            x       y       z     vdW  Elec       q    Type
REMARK                         _______ _______ _______ _____ _____    ______ ____
ROOT
ATOM      1  N   UNL     1       6.476   4.027  14.005  0.00  0.00    +0.000 N 
ATOM      2  C   UNL     1       5.884   3.772  15.186  0.00  0.00    +0.000 A 
ATOM      3  C   UNL     1       6.397   4.648  16.117  0.00  0.00    +0.000 A 
ATOM      4  N   UNL     1       7.312   5.448  15.530  0.00  0.00    +0.000 NA
ATOM      5  C   UNL     1       7.336   5.044  14.245  0.00  0.00    +0.000 A 
ATOM      6  N   UNL     1       8.182   5.642  13.281  0.00  0.00    +0.000 N 
ATOM      7  H   UNL     1       8.806   6.413  13.560  0.00  0.00    +0.000 HD
ATOM      8  H   UNL     1       8.201   5.335  12.300  0.00  0.00    +0.000 HD
ENDROOT
BRANCH   1   9
ATOM      9  C   UNL     1       6.210   3.316  12.752  0.00  0.00    +0.000 C 
BRANCH   9  10
ATOM     10  C   UNL     1       4.731   3.437  12.369  0.00  0.00    +0.000 C 
BRANCH  10  11
ATOM     11  C   UNL     1       4.580   3.548  10.851  0.00  0.00    +0.000 C 
BRANCH  11  13
ATOM     12  C   UNL     1       2.734   4.399   9.378  0.00  0.00    +0.000 C 
ATOM     13  C   UNL     1       3.124   3.358  10.422  0.00  0.00    +0.000 C 
ENDBRANCH  11  13
ENDBRANCH  10  11
ENDBRANCH   9  10
ENDBRANCH   1   9
BRANCH   3  14
ATOM     14  C   UNL     1       6.002   4.710  17.563  0.00  0.00    +0.000 C 
BRANCH  14  15
ATOM     15  C   UNL     1       4.606   5.324  17.741  0.00  0.00    +0.000 C 
BRANCH  15  16
ATOM     16  C   UNL     1       3.560   4.275  18.010  0.00  0.00    +0.000 A 
ATOM     17  C   UNL     1       3.934   2.972  18.382  0.00  0.00    +0.000 A 
ATOM     18  C   UNL     1       2.958   2.005  18.639  0.00  0.00    +0.000 A 
ATOM     19  C   UNL     1       1.603   2.330  18.529  0.00  0.00    +0.000 A 
ATOM     20  C   UNL     1       1.223   3.623  18.163  0.00  0.00    +0.000 A 
ATOM     21  C   UNL     1       2.195   4.593  17.905  0.00  0.00    +0.000 A 
ENDBRANCH  15  16
ENDBRANCH  14  15
ENDBRANCH   3  14
TORSDOF 7
ENDMDL
MODEL 3
REMARK VINA RESULT:      -7.5      1.823      3.025
REMARK  Name = 
REMARK  8 active torsions:
REMARK  status: ('A' for Active; 'I' for Inactive)
REMARK    1  A    between atoms: C_1  and  C_2
REMARK    2  A    between atoms: C_2  and  C_3
REMARK    3  A    between atoms: C_3  and  C_4
REMARK    4  A    between atoms: C_4  and  C_5
REMARK    5  A    between atoms: C_5  and  N_6
REMARK    6  A    between atoms: C_8  and  C_9
REMARK    7  A    between atoms: C_9  and  C_10
REMARK    8  A    between atoms: C_10  and  C_11
REMARK                            x       y       z     vdW  Elec       q    Type
REMARK                         _______ _______ _______ _____ _____    ______ ____
ROOT
ATOM      1  N   UNL     1       6.167   5.298  15.904  0.00  0.00    +0.000 N 
ATOM      2  C   UNL     1       5.012   5.917  16.209  0.00  0.00    +0.000 A 
ATOM      3  C   UNL     1       4.902   5.959  17.581  0.00  0.00    +0.000 A 
ATOM      4  N   UNL     1       5.978   5.365  18.140  0.00  0.00    +0.000 NA
ATOM      5  C   UNL     1       6.728   4.974  17.092  0.00  0.00    +0.000 A 
ATOM      6  N   UNL     1       7.962   4.300  17.255  0.00  0.00    +0.000 N 
ATOM      7  H   UNL     1       8.307   4.095  18.204  0.00  0.00    +0.000 HD
ATOM      8  H   UNL     1       8.535   4.002  16.456  0.00  0.00    +0.000 HD
ENDROOT
BRANCH   1   9
ATOM      9  C   UNL     1       6.664   5.050  14.547  0.00  0.00    +0.000 C 
BRANCH   9  10
ATOM     10  C   UNL     1       6.006   3.801  13.954  0.00  0.00    +0.000 C 
BRANCH  10  11
ATOM     11  C   UNL     1       6.494   3.570  12.522  0.00  0.00    +0.000 C 
BRANCH  11  13
ATOM     12  C   UNL     1       6.316   1.477  11.147  0.00  0.00    +0.000 C 
ATOM     13  C   UNL     1       5.546   2.645  11.755  0.00  0.00    +0.000 C 
ENDBRANCH  11  13
ENDBRANCH  10  11
ENDBRANCH   9  10
ENDBRANCH   1   9
BRANCH   3  14
ATOM     14  C   UNL     1       3.766   6.571  18.344  0.00  0.00    +0.000 C 
BRANCH  14  15
ATOM     15  C   UNL     1       2.410   6.020  17.880  0.00  0.00    +0.000 C 
BRANCH  15  16
ATOM     16  C   UNL     1       1.944   4.876  18.740  0.00  0.00    +0.000 A 
ATOM     17  C   UNL     1       1.445   3.699  18.156  0.00  0.00    +0.000 A 
ATOM     18  C   UNL     1       1.022   2.637  18.961  0.00  0.00    +0.000 A 
ATOM     19  C   UNL     1       1.097   2.740  20.353  0.00  0.00    +0.000 A 
ATOM     20  C   UNL     1       1.595   3.904  20.942  0.00  0.00    +0.000 A 
ATOM     21  C   UNL     1       2.018   4.969  20.142  0.00  0.00    +0.000 A 
ENDBRANCH  15  16
ENDBRANCH  14  15
ENDBRANCH   3  14
TORSDOF 7
ENDMDL
MODEL 4
REMARK VINA RESULT:      -7.4      1.016      1.194
REMARK  Name = 
REMARK  8 active torsions:
REMARK  status: ('A' for Active; 'I' for Inactive)
REMARK    1  A    between atoms: C_1  and  C_2
REMARK    2  A    between atoms: C_2  and  C_3
REMARK    3  A    between atoms: C_3  and  C_4
REMARK    4  A    between atoms: C_4  and  C_5
REMARK    5  A    between atoms: C_5  and  N_6
REMARK    6  A    between atoms: C_8  and  C_9
REMARK    7  A    between atoms: C_9  and  C_10
REMARK    8  A    between atoms: C_10  and  C_11
REMARK                            x       y       z     vdW  Elec       q    Type
REMARK                         _______ _______ _______ _____ _____    ______ ____
ROOT
ATOM      1  N   UNL     1       6.645   4.188  13.526  0.00  0.00    +0.000 N 
ATOM      2  C   UNL     1       5.816   3.879  14.541  0.00  0.00    +0.000 A 
ATOM      3  C   UNL     1       6.140   4.680  15.613  0.00  0.00    +0.000 A 
ATOM      4  N   UNL     1       7.170   5.486  15.281  0.00  0.00    +0.000 NA
ATOM      5  C   UNL     1       7.453   5.162  14.005  0.00  0.00    +0.000 A 
ATOM      6  N   UNL     1       8.491   5.792  13.278  0.00  0.00    +0.000 N 
ATOM      7  H   UNL     1       9.056   6.525  13.731  0.00  0.00    +0.000 HD
ATOM      8  H   UNL     1       8.707   5.545  12.304  0.00  0.00    +0.000 HD
ENDROOT
BRANCH   1   9
ATOM      9  C   UNL     1       6.631   3.564  12.200  0.00  0.00    +0.000 C 
BRANCH   9  10
ATOM     10  C   UNL     1       5.297   2.855  11.953  0.00  0.00    +0.000 C 
BRANCH  10  11
ATOM     11  C   UNL     1       4.247   3.850  11.456  0.00  0.00    +0.000 C 
BRANCH  11  13
ATOM     12  C   UNL     1       2.837   4.214   9.411  0.00  0.00    +0.000 C 
ATOM     13  C   UNL     1       3.293   3.198  10.453  0.00  0.00    +0.000 C 
ENDBRANCH  11  13
ENDBRANCH  10  11
ENDBRANCH   9  10
ENDBRANCH   1   9
BRANCH   3  14
ATOM     14  C   UNL     1       5.454   4.665  16.947  0.00  0.00    +0.000 C 
BRANCH  14  15
ATOM     15  C   UNL     1       4.342   3.609  17.000  0.00  0.00    +0.000 C 
BRANCH  15  16
ATOM     16  C   UNL     1       3.532   3.707  18.266  0.00  0.00    +0.000 A 
ATOM     17  C   UNL     1       3.688   2.757  19.290  0.00  0.00    +0.000 A 
ATOM     18  C   UNL     1       2.940   2.861  20.467  0.00  0.00    +0.000 A 
ATOM     19  C   UNL     1       2.034   3.912  20.631  0.00  0.00    +0.000 A 
ATOM     20  C   UNL     1       1.876   4.862  19.620  0.00  0.00    +0.000 A 
ATOM     21  C   UNL     1       2.621   4.763  18.442  0.00  0.00    +0.000 A 
ENDBRANCH  15  16
ENDBRANCH  14  15
ENDBRANCH   3  14
TORSDOF 7
ENDMDL
MODEL 5
REMARK VINA RESULT:      -7.3      0.917      1.244
REMARK  Name = 
REMARK  8 active torsions:
REMARK  status: ('A' for Active; 'I' for Inactive)
REMARK    1  A    between atoms: C_1  and  C_2
REMARK    2  A    between atoms: C_2  and  C_3
REMARK    3  A    between atoms: C_3  and  C_4
REMARK    4  A    between atoms: C_4  and  C_5
REMARK    5  A    between atoms: C_5  and  N_6
REMARK    6  A    between atoms: C_8  and  C_9
REMARK    7  A    between atoms: C_9  and  C_10
REMARK    8  A    between atoms: C_10  and  C_11
REMARK                            x       y       z     vdW  Elec       q    Type
REMARK                         _______ _______ _______ _____ _____    ______ ____
ROOT
ATOM      1  N   UNL     1       6.579   4.081  13.648  0.00  0.00    +0.000 N 
ATOM      2  C   UNL     1       5.963   3.821  14.817  0.00  0.00    +0.000 A 
ATOM      3  C   UNL     1       6.458   4.694  15.760  0.00  0.00    +0.000 A 
ATOM      4  N   UNL     1       7.383   5.497  15.193  0.00  0.00    +0.000 NA
ATOM      5  C   UNL     1       7.433   5.098  13.908  0.00  0.00    +0.000 A 
ATOM      6  N   UNL     1       8.297   5.700  12.962  0.00  0.00    +0.000 N 
ATOM      7  H   UNL     1       8.915   6.470  13.257  0.00  0.00    +0.000 HD
ATOM      8  H   UNL     1       8.335   5.396  11.982  0.00  0.00    +0.000 HD
ENDROOT
BRANCH   1   9
ATOM      9  C   UNL     1       6.337   3.375  12.387  0.00  0.00    +0.000 C 
BRANCH   9  10
ATOM     10  C   UNL     1       4.834   3.266  12.111  0.00  0.00    +0.000 C 
BRANCH  10  11
ATOM     11  C   UNL     1       4.511   3.773  10.704  0.00  0.00    +0.000 C 
BRANCH  11  13
ATOM     12  C   UNL     1       2.586   4.456   9.245  0.00  0.00    +0.000 C 
ATOM     13  C   UNL     1       3.053   3.496  10.334  0.00  0.00    +0.000 C 
ENDBRANCH  11  13
ENDBRANCH  10  11
ENDBRANCH   9  10
ENDBRANCH   1   9
BRANCH   3  14
ATOM     14  C   UNL     1       6.034   4.752  17.198  0.00  0.00    +0.000 C 
BRANCH  14  15
ATOM     15  C   UNL     1       4.616   5.321  17.347  0.00  0.00    +0.000 C 
BRANCH  15  16
ATOM     16  C   UNL     1       3.684   4.340  18.009  0.00  0.00    +0.000 A 
ATOM     17  C   UNL     1       2.338   4.256  17.614  0.00  0.00    +0.000 A 
ATOM     18  C   UNL     1       1.480   3.337  18.226  0.00  0.00    +0.000 A 
ATOM     19  C   UNL     1       1.960   2.494  19.233  0.00  0.00    +0.000 A 
ATOM     20  C   UNL     1       3.297   2.569  19.628  0.00  0.00    +0.000 A 
ATOM     21  C   UNL     1       4.158   3.486  19.020  0.00  0.00    +0.000 A 
ENDBRANCH  15  16
ENDBRANCH  14  15
ENDBRANCH   3  14
TORSDOF 7
ENDMDL
MODEL 6
REMARK VINA RESULT:      -7.3      2.003      3.079
REMARK  Name = 
REMARK  8 active torsions:
REMARK  status: ('A' for Active; 'I' for Inactive)
REMARK    1  A    between atoms: C_1  and  C_2
REMARK    2  A    between atoms: C_2  and  C_3
REMARK    3  A    between atoms: C_3  and  C_4
REMARK    4  A    between atoms: C_4  and  C_5
REMARK    5  A    between atoms: C_5  and  N_6
REMARK    6  A    between atoms: C_8  and  C_9
REMARK    7  A    between atoms: C_9  and  C_10
REMARK    8  A    between atoms: C_10  and  C_11
REMARK                            x       y       z     vdW  Elec       q    Type
REMARK                         _______ _______ _______ _____ _____    ______ ____
ROOT
ATOM      1  N   UNL     1       5.896   4.554  16.446  0.00  0.00    +0.000 N 
ATOM      2  C   UNL     1       4.721   5.192  16.608  0.00  0.00    +0.000 A 
ATOM      3  C   UNL     1       4.726   5.778  17.855  0.00  0.00    +0.000 A 
ATOM      4  N   UNL     1       5.892   5.508  18.478  0.00  0.00    +0.000 NA
ATOM      5  C   UNL     1       6.581   4.762  17.594  0.00  0.00    +0.000 A 
ATOM      6  N   UNL     1       7.878   4.267  17.871  0.00  0.00    +0.000 N 
ATOM      7  H   UNL     1       8.319   4.478  18.778  0.00  0.00    +0.000 HD
ATOM      8  H   UNL     1       8.404   3.698  17.197  0.00  0.00    +0.000 HD
ENDROOT
BRANCH   1   9
ATOM      9  C   UNL     1       6.294   3.803  15.252  0.00  0.00    +0.000 C 
BRANCH   9  10
ATOM     10  C   UNL     1       6.981   4.725  14.241  0.00  0.00    +0.000 C 
BRANCH  10  11
ATOM     11  C   UNL     1       6.784   4.198  12.818  0.00  0.00    +0.000 C 
BRANCH  11  13
ATOM     12  C   UNL     1       5.569   2.394  11.564  0.00  0.00    +0.000 C 
ATOM     13  C   UNL     1       5.474   3.417  12.691  0.00  0.00    +0.000 C 
ENDBRANCH  11  13
ENDBRANCH  10  11
ENDBRANCH   9  10
ENDBRANCH   1   9
BRANCH   3  14
ATOM     14  C   UNL     1       3.609   6.595  18.435  0.00  0.00    +0.000 C 
BRANCH  14  15
ATOM     15  C   UNL     1       2.241   5.952  18.168  0.00  0.00    +0.000 C 
BRANCH  15  16
ATOM     16  C   UNL     1       1.940   4.845  19.144  0.00  0.00    +0.000 A 
ATOM     17  C   UNL     1       2.338   4.948  20.487  0.00  0.00    +0.000 A 
ATOM     18  C   UNL     1       2.048   3.921  21.390  0.00  0.00    +0.000 A 
ATOM     19  C   UNL     1       1.356   2.785  20.959  0.00  0.00    +0.000 A 
ATOM     20  C   UNL     1       0.953   2.676  19.627  0.00  0.00    +0.000 A 
ATOM     21  C   UNL     1       1.242   3.700  18.721  0.00  0.00    +0.000 A 
ENDBRANCH  15  16
ENDBRANCH  14  15
ENDBRANCH   3  14
TORSDOF 7
ENDMDL
MODEL 7
REMARK VINA RESULT:      -7.3      1.686      2.930
REMARK  Name = 
REMARK  8 active torsions:
REMARK  status: ('A' for Active; 'I' for Inactive)
REMARK    1  A    between atoms: C_1  and  C_2
REMARK    2  A    between atoms: C_2  and  C_3
REMARK    3  A    between atoms: C_3  and  C_4
REMARK    4  A    between atoms: C_4  and  C_5
REMARK    5  A    between atoms: C_5  and  N_6
REMARK    6  A    between atoms: C_8  and  C_9
REMARK    7  A    between atoms: C_9  and  C_10
REMARK    8  A    between atoms: C_10  and  C_11
REMARK                            x       y       z     vdW  Elec       q    Type
REMARK                         _______ _______ _______ _____ _____    ______ ____
ROOT
ATOM      1  N   UNL     1       6.021   5.262  16.392  0.00  0.00    +0.000 N 
ATOM      2  C   UNL     1       4.735   5.141  16.772  0.00  0.00    +0.000 A 
ATOM      3  C   UNL     1       4.375   6.298  17.426  0.00  0.00    +0.000 A 
ATOM      4  N   UNL     1       5.427   7.143  17.464  0.00  0.00    +0.000 NA
ATOM      5  C   UNL     1       6.412   6.483  16.827  0.00  0.00    +0.000 A 
ATOM      6  N   UNL     1       7.703   7.036  16.651  0.00  0.00    +0.000 N 
ATOM      7  H   UNL     1       7.907   7.976  17.020  0.00  0.00    +0.000 HD
ATOM      8  H   UNL     1       8.455   6.532  16.164  0.00  0.00    +0.000 HD
ENDROOT
BRANCH   1   9
ATOM      9  C   UNL     1       6.789   4.248  15.664  0.00  0.00    +0.000 C 
BRANCH   9  10
ATOM     10  C   UNL     1       6.724   4.506  14.156  0.00  0.00    +0.000 C 
BRANCH  10  11
ATOM     11  C   UNL     1       5.490   3.833  13.552  0.00  0.00    +0.000 C 
BRANCH  11  13
ATOM     12  C   UNL     1       4.524   3.048  11.371  0.00  0.00    +0.000 C 
ATOM     13  C   UNL     1       5.803   3.220  12.185  0.00  0.00    +0.000 C 
ENDBRANCH  11  13
ENDBRANCH  10  11
ENDBRANCH   9  10
ENDBRANCH   1   9
BRANCH   3  14
ATOM     14  C   UNL     1       3.021   6.583  18.006  0.00  0.00    +0.000 C 
BRANCH  14  15
ATOM     15  C   UNL     1       2.934   6.153  19.477  0.00  0.00    +0.000 C 
BRANCH  15  16
ATOM     16  C   UNL     1       2.201   4.848  19.638  0.00  0.00    +0.000 A 
ATOM     17  C   UNL     1       2.023   4.280  20.911  0.00  0.00    +0.000 A 
ATOM     18  C   UNL     1       1.334   3.072  21.055  0.00  0.00    +0.000 A 
ATOM     19  C   UNL     1       0.816   2.423  19.930  0.00  0.00    +0.000 A 
ATOM     20  C   UNL     1       0.985   2.982  18.662  0.00  0.00    +0.000 A 
ATOM     21  C   UNL     1       1.674   4.189  18.513  0.00  0.00    +0.000 A 
ENDBRANCH  15  16
ENDBRANCH  14  15
ENDBRANCH   3  14
TORSDOF 7
ENDMDL
MODEL 8
REMARK VINA RESULT:      -7.1      3.984      6.596
REMARK  Name = 
REMARK  8 active torsions:
REMARK  status: ('A' for Active; 'I' for Inactive)
REMARK    1  A    between atoms: C_1  and  C_2
REMARK    2  A    between atoms: C_2  and  C_3
REMARK    3  A    between atoms: C_3  and  C_4
REMARK    4  A    between atoms: C_4  and  C_5
REMARK    5  A    between atoms: C_5  and  N_6
REMARK    6  A    between atoms: C_8  and  C_9
REMARK    7  A    between atoms: C_9  and  C_10
REMARK    8  A    between atoms: C_10  and  C_11
REMARK                            x       y       z     vdW  Elec       q    Type
REMARK                         _______ _______ _______ _____ _____    ______ ____
ROOT
ATOM      1  N   UNL     1       7.780   6.703  18.436  0.00  0.00    +0.000 N 
ATOM      2  C   UNL     1       6.950   6.512  17.394  0.00  0.00    +0.000 A 
ATOM      3  C   UNL     1       6.428   5.242  17.494  0.00  0.00    +0.000 A 
ATOM      4  N   UNL     1       6.928   4.631  18.589  0.00  0.00    +0.000 NA
ATOM      5  C   UNL     1       7.748   5.547  19.140  0.00  0.00    +0.000 A 
ATOM      6  N   UNL     1       8.478   5.292  20.325  0.00  0.00    +0.000 N 
ATOM      7  H   UNL     1       8.388   4.378  20.790  0.00  0.00    +0.000 HD
ATOM      8  H   UNL     1       9.104   5.991  20.745  0.00  0.00    +0.000 HD
ENDROOT
BRANCH   1   9
ATOM      9  C   UNL     1       8.540   7.928  18.702  0.00  0.00    +0.000 C 
BRANCH   9  10
ATOM     10  C   UNL     1       8.079   9.057  17.776  0.00  0.00    +0.000 C 
BRANCH  10  11
ATOM     11  C   UNL     1       8.826  10.352  18.103  0.00  0.00    +0.000 C 
BRANCH  11  13
ATOM     12  C   UNL     1       9.471  11.754  20.083  0.00  0.00    +0.000 C 
ATOM     13  C   UNL     1       9.371  10.335  19.532  0.00  0.00    +0.000 C 
ENDBRANCH  11  13
ENDBRANCH  10  11
ENDBRANCH   9  10
ENDBRANCH   1   9
BRANCH   3  14
ATOM     14  C   UNL     1       5.449   4.626  16.538  0.00  0.00    +0.000 C 
BRANCH  14  15
ATOM     15  C   UNL     1       4.013   5.090  16.822  0.00  0.00    +0.000 C 
BRANCH  15  16
ATOM     16  C   UNL     1       3.205   4.026  17.515  0.00  0.00    +0.000 A 
ATOM     17  C   UNL     1       3.759   2.759  17.768  0.00  0.00    +0.000 A 
ATOM     18  C   UNL     1       3.006   1.778  18.421  0.00  0.00    +0.000 A 
ATOM     19  C   UNL     1       1.697   2.055  18.828  0.00  0.00    +0.000 A 
ATOM     20  C   UNL     1       1.141   3.312  18.583  0.00  0.00    +0.000 A 
ATOM     21  C   UNL     1       1.889   4.295  17.930  0.00  0.00    +0.000 A 
ENDBRANCH  15  16
ENDBRANCH  14  15
ENDBRANCH   3  14
TORSDOF 7
ENDMDL
MODEL 9
REMARK VINA RESULT:      -7.1      4.056      6.308
REMARK  Name = 
REMARK  8 active torsions:
REMARK  status: ('A' for Active; 'I' for Inactive)
REMARK    1  A    between atoms: C_1  and  C_2
REMARK    2  A    between atoms: C_2  and  C_3
REMARK    3  A    between atoms: C_3  and  C_4
REMARK    4  A    between atoms: C_4  and  C_5
REMARK    5  A    between atoms: C_5  and  N_6
REMARK    6  A    between atoms: C_8  and  C_9
REMARK    7  A    between atoms: C_9  and  C_10
REMARK    8  A    between atoms: C_10  and  C_11
REMARK                            x       y       z     vdW  Elec       q    Type
REMARK                         _______ _______ _______ _____ _____    ______ ____
ROOT
ATOM      1  N   UNL     1       7.180   6.559  17.749  0.00  0.00    +0.000 N 
ATOM      2  C   UNL     1       6.072   6.280  17.037  0.00  0.00    +0.000 A 
ATOM      3  C   UNL     1       5.387   5.280  17.691  0.00  0.00    +0.000 A 
ATOM      4  N   UNL     1       6.060   4.925  18.806  0.00  0.00    +0.000 NA
ATOM      5  C   UNL     1       7.146   5.722  18.812  0.00  0.00    +0.000 A 
ATOM      6  N   UNL     1       8.123   5.661  19.835  0.00  0.00    +0.000 N 
ATOM      7  H   UNL     1       8.010   4.987  20.606  0.00  0.00    +0.000 HD
ATOM      8  H   UNL     1       8.951   6.269  19.839  0.00  0.00    +0.000 HD
ENDROOT
BRANCH   1   9
ATOM      9  C   UNL     1       8.183   7.568  17.397  0.00  0.00    +0.000 C 
BRANCH   9  10
ATOM     10  C   UNL     1       7.755   8.950  17.900  0.00  0.00    +0.000 C 
BRANCH  10  11
ATOM     11  C   UNL     1       8.836   9.546  18.804  0.00  0.00    +0.000 C 
BRANCH  11  13
ATOM     12  C   UNL     1      10.504  11.397  19.109  0.00  0.00    +0.000 C 
ATOM     13  C   UNL     1       9.395  10.845  18.219  0.00  0.00    +0.000 C 
ENDBRANCH  11  13
ENDBRANCH  10  11
ENDBRANCH   9  10
ENDBRANCH   1   9
BRANCH   3  14
ATOM     14  C   UNL     1       4.090   4.677  17.241  0.00  0.00    +0.000 C 
BRANCH  14  15
ATOM     15  C   UNL     1       2.887   5.367  17.898  0.00  0.00    +0.000 C 
BRANCH  15  16
ATOM     16  C   UNL     1       2.304   4.539  19.013  0.00  0.00    +0.000 A 
ATOM     17  C   UNL     1       2.680   4.771  20.347  0.00  0.00    +0.000 A 
ATOM     18  C   UNL     1       2.128   4.004  21.378  0.00  0.00    +0.000 A 
ATOM     19  C   UNL     1       1.196   3.004  21.086  0.00  0.00    +0.000 A 
ATOM     20  C   UNL     1       0.815   2.770  19.763  0.00  0.00    +0.000 A 
ATOM     21  C   UNL     1       1.364   3.532  18.729  0.00  0.00    +0.000 A 
ENDBRANCH  15  16
ENDBRANCH  14  15
ENDBRANCH   3  14
TORSDOF 7
ENDMDL
