MODEL 1
REMARK VINA RESULT:      -8.6      0.000      0.000
REMARK  Name = 
REMARK  7 active torsions:
REMARK  status: ('A' for Active; 'I' for Inactive)
REMARK    1  A    between atoms: C_1  and  C_2
REMARK    2  A    between atoms: C_2  and  C_3
REMARK    3  A    between atoms: C_2  and  C_4
REMARK    4  A    between atoms: C_2  and  C_5
REMARK    5  A    between atoms: C_8  and  N_9
REMARK    6  A    between atoms: C_10  and  C_11
REMARK    7  A    between atoms: C_16  and  N_17
REMARK                            x       y       z     vdW  Elec       q    Type
REMARK                         _______ _______ _______ _____ _____    ______ ____
ROOT
ATOM      1  N   UNL     1       3.756   5.535  17.877  0.00  0.00    +0.000 N 
ATOM      2  C   UNL     1       3.706   4.196  18.314  0.00  0.00    +0.000 A 
ATOM      3  N   UNL     1       4.495   3.431  17.567  0.00  0.00    +0.000 NA
ATOM      4  C   UNL     1       5.015   4.249  16.600  0.00  0.00    +0.000 A 
ATOM      5  C   UNL     1       5.889   3.961  15.545  0.00  0.00    +0.000 A 
ATOM      6  C   UNL     1       6.242   5.019  14.711  0.00  0.00    +0.000 A 
ATOM      7 BR   UNL     1       7.410   4.729  13.257  0.00  0.00    +0.000 Br
ATOM      8  C   UNL     1       5.729   6.288  14.957  0.00  0.00    +0.000 A 
ATOM      9  N   UNL     1       4.881   6.609  15.965  0.00  0.00    +0.000 NA
ATOM     10  C   UNL     1       4.555   5.546  16.745  0.00  0.00    +0.000 A 
ENDROOT
BRANCH   1  14
ATOM     11  C   UNL     1       1.412   8.710  19.465  0.00  0.00    +0.000 A 
ATOM     12  C   UNL     1       1.885   7.672  20.282  0.00  0.00    +0.000 A 
ATOM     13  C   UNL     1       2.731   6.677  19.786  0.00  0.00    +0.000 A 
ATOM     14  C   UNL     1       3.081   6.661  18.434  0.00  0.00    +0.000 A 
ATOM     15  C   UNL     1       2.671   7.713  17.611  0.00  0.00    +0.000 A 
ATOM     16  C   UNL     1       1.839   8.718  18.123  0.00  0.00    +0.000 A 
BRANCH  11  18
ATOM     17  C   UNL     1       1.249  11.184  20.160  0.00  0.00    +0.000 C 
ATOM     18  C   UNL     1       0.512   9.834  20.007  0.00  0.00    +0.000 C 
ATOM     19  C   UNL     1      -0.056   9.472  21.398  0.00  0.00    +0.000 C 
ATOM     20  C   UNL     1      -0.660  10.053  19.029  0.00  0.00    +0.000 C 
ENDBRANCH  11  18
ENDBRANCH   1  14
BRANCH   2  21
ATOM     21  C   UNL     1       2.831   3.649  19.378  0.00  0.00    +0.000 A 
ATOM     22  C   UNL     1       1.445   3.878  19.378  0.00  0.00    +0.000 A 
ATOM     23  C   UNL     1       0.655   3.443  20.436  0.00  0.00    +0.000 A 
ATOM     24  C   UNL     1       1.259   2.702  21.429  0.00  0.00    +0.000 A 
ATOM     25  N   UNL     1       2.569   2.385  21.431  0.00  0.00    +0.000 NA
ATOM     26  C   UNL     1       3.334   2.853  20.419  0.00  0.00    +0.000 A 
BRANCH  26  27
ATOM     27  N   UNL     1       4.692   2.557  20.541  0.00  0.00    +0.000 N 
ATOM     28  H   UNL     1       4.785   1.815  21.228  0.00  0.00    +0.000 HD
ATOM     29  H   UNL     1       5.093   2.331  19.632  0.00  0.00    +0.000 HD
ENDBRANCH  26  27
ENDBRANCH   2  21
TORSDOF 4
ENDMDL
MODEL 2
REMARK VINA RESULT:      -8.2      0.873      1.536
REMARK  Name = 
REMARK  7 active torsions:
REMARK  status: ('A' for Active; 'I' for Inactive)
REMARK    1  A    between atoms: C_1  and  C_2
REMARK    2  A    between atoms: C_2  and  C_3
REMARK    3  A    between atoms: C_2  and  C_4
REMARK    4  A    between atoms: C_2  and  C_5
REMARK    5  A    between atoms: C_8  and  N_9
REMARK    6  A    between atoms: C_10  and  C_11
REMARK    7  A    between atoms: C_16  and  N_17
REMARK                            x       y       z     vdW  Elec       q    Type
REMARK                         _______ _______ _______ _____ _____    ______ ____
ROOT
ATOM      1  N   UNL     1       3.728   5.636  17.936  0.00  0.00    +0.000 N 
ATOM      2  C   UNL     1       3.680   4.308  18.406  0.00  0.00    +0.000 A 
ATOM      3  N   UNL     1       4.490   3.531  17.694  0.00  0.00    +0.000 NA
ATOM      4  C   UNL     1       5.022   4.329  16.716  0.00  0.00    +0.000 A 
ATOM      5  C   UNL     1       5.918   4.021  15.686  0.00  0.00    +0.000 A 
ATOM      6  C   UNL     1       6.279   5.060  14.832  0.00  0.00    +0.000 A 
ATOM      7 BR   UNL     1       7.477   4.744  13.408  0.00  0.00    +0.000 Br
ATOM      8  C   UNL     1       5.751   6.331  15.036  0.00  0.00    +0.000 A 
ATOM      9  N   UNL     1       4.881   6.670  16.019  0.00  0.00    +0.000 NA
ATOM     10  C   UNL     1       4.549   5.625  16.820  0.00  0.00    +0.000 A 
ENDROOT
BRANCH   1  14
ATOM     11  C   UNL     1       1.329   8.835  19.388  0.00  0.00    +0.000 A 
ATOM     12  C   UNL     1       1.766   7.807  20.237  0.00  0.00    +0.000 A 
ATOM     13  C   UNL     1       2.630   6.804  19.787  0.00  0.00    +0.000 A 
ATOM     14  C   UNL     1       3.034   6.770  18.451  0.00  0.00    +0.000 A 
ATOM     15  C   UNL     1       2.659   7.812  17.599  0.00  0.00    +0.000 A 
ATOM     16  C   UNL     1       1.809   8.824  18.064  0.00  0.00    +0.000 A 
BRANCH  11  18
ATOM     17  C   UNL     1      -0.806  10.207  18.955  0.00  0.00    +0.000 C 
ATOM     18  C   UNL     1       0.409   9.967  19.879  0.00  0.00    +0.000 C 
ATOM     19  C   UNL     1       1.174  11.306  19.975  0.00  0.00    +0.000 C 
ATOM     20  C   UNL     1      -0.134   9.600  21.275  0.00  0.00    +0.000 C 
ENDBRANCH  11  18
ENDBRANCH   1  14
BRANCH   2  21
ATOM     21  C   UNL     1       2.789   3.781  19.466  0.00  0.00    +0.000 A 
ATOM     22  C   UNL     1       3.256   3.556  20.772  0.00  0.00    +0.000 A 
ATOM     23  C   UNL     1       2.435   2.967  21.727  0.00  0.00    +0.000 A 
ATOM     24  C   UNL     1       1.128   2.701  21.377  0.00  0.00    +0.000 A 
ATOM     25  N   UNL     1       0.610   2.976  20.163  0.00  0.00    +0.000 NA
ATOM     26  C   UNL     1       1.433   3.506  19.230  0.00  0.00    +0.000 A 
BRANCH  26  27
ATOM     27  N   UNL     1       0.846   3.677  17.976  0.00  0.00    +0.000 N 
ATOM     28  H   UNL     1       0.595   2.757  17.626  0.00  0.00    +0.000 HD
ATOM     29  H   UNL     1       0.062   4.325  18.033  0.00  0.00    +0.000 HD
ENDBRANCH  26  27
ENDBRANCH   2  21
TORSDOF 4
ENDMDL
MODEL 3
REMARK VINA RESULT:      -8.0      5.346      8.684
REMARK  Name = 
REMARK  7 active torsions:
REMARK  status: ('A' for Active; 'I' for Inactive)
REMARK    1  A    between atoms: C_1  and  C_2
REMARK    2  A    between atoms: C_2  and  C_3
REMARK    3  A    between atoms: C_2  and  C_4
REMARK    4  A    between atoms: C_2  and  C_5
REMARK    5  A    between atoms: C_8  and  N_9
REMARK    6  A    between atoms: C_10  and  C_11
REMARK    7  A    between atoms: C_16  and  N_17
REMARK                            x       y       z     vdW  Elec       q    Type
REMARK                         _______ _______ _______ _____ _____    ______ ____
ROOT
ATOM      1  N   UNL     1       0.801  11.924  18.920  0.00  0.00    +0.000 N 
ATOM      2  C   UNL     1      -0.469  12.321  18.454  0.00  0.00    +0.000 A 
ATOM      3  N   UNL     1      -0.571  13.646  18.447  0.00  0.00    +0.000 NA
ATOM      4  C   UNL     1       0.603  14.122  18.969  0.00  0.00    +0.000 A 
ATOM      5  C   UNL     1       1.020  15.436  19.206  0.00  0.00    +0.000 A 
ATOM      6  C   UNL     1       2.288  15.607  19.756  0.00  0.00    +0.000 A 
ATOM      7 BR   UNL     1       2.938  17.341  20.118  0.00  0.00    +0.000 Br
ATOM      8  C   UNL     1       3.070  14.491  20.038  0.00  0.00    +0.000 A 
ATOM      9  N   UNL     1       2.703  13.203  19.825  0.00  0.00    +0.000 NA
ATOM     10  C   UNL     1       1.457  13.084  19.298  0.00  0.00    +0.000 A 
ENDROOT
BRANCH   1  14
ATOM     11  C   UNL     1       1.989   7.845  19.135  0.00  0.00    +0.000 A 
ATOM     12  C   UNL     1       2.303   8.640  18.021  0.00  0.00    +0.000 A 
ATOM     13  C   UNL     1       1.997  10.003  17.985  0.00  0.00    +0.000 A 
ATOM     14  C   UNL     1       1.310  10.598  19.045  0.00  0.00    +0.000 A 
ATOM     15  C   UNL     1       1.036   9.844  20.189  0.00  0.00    +0.000 A 
ATOM     16  C   UNL     1       1.365   8.483  20.224  0.00  0.00    +0.000 A 
BRANCH  11  18
ATOM     17  C   UNL     1       3.880   6.102  19.261  0.00  0.00    +0.000 C 
ATOM     18  C   UNL     1       2.356   6.352  19.204  0.00  0.00    +0.000 C 
ATOM     19  C   UNL     1       1.820   5.588  17.973  0.00  0.00    +0.000 C 
ATOM     20  C   UNL     1       1.738   5.744  20.479  0.00  0.00    +0.000 C 
ENDBRANCH  11  18
ENDBRANCH   1  14
BRANCH   2  21
ATOM     21  C   UNL     1      -1.600  11.427  18.111  0.00  0.00    +0.000 A 
ATOM     22  C   UNL     1      -1.426  10.308  17.280  0.00  0.00    +0.000 A 
ATOM     23  C   UNL     1      -2.516   9.540  16.887  0.00  0.00    +0.000 A 
ATOM     24  C   UNL     1      -3.749   9.855  17.416  0.00  0.00    +0.000 A 
ATOM     25  N   UNL     1      -3.953  10.867  18.283  0.00  0.00    +0.000 NA
ATOM     26  C   UNL     1      -2.892  11.634  18.620  0.00  0.00    +0.000 A 
BRANCH  26  27
ATOM     27  N   UNL     1      -3.202  12.713  19.449  0.00  0.00    +0.000 N 
ATOM     28  H   UNL     1      -2.327  13.111  19.777  0.00  0.00    +0.000 HD
ATOM     29  H   UNL     1      -3.802  13.377  18.963  0.00  0.00    +0.000 HD
ENDBRANCH  26  27
ENDBRANCH   2  21
TORSDOF 4
ENDMDL
MODEL 4
REMARK VINA RESULT:      -8.0      5.253      8.646
REMARK  Name = 
REMARK  7 active torsions:
REMARK  status: ('A' for Active; 'I' for Inactive)
REMARK    1  A    between atoms: C_1  and  C_2
REMARK    2  A    between atoms: C_2  and  C_3
REMARK    3  A    between atoms: C_2  and  C_4
REMARK    4  A    between atoms: C_2  and  C_5
REMARK    5  A    between atoms: C_8  and  N_9
REMARK    6  A    between atoms: C_10  and  C_11
REMARK    7  A    between atoms: C_16  and  N_17
REMARK                            x       y       z     vdW  Elec       q    Type
REMARK                         _______ _______ _______ _____ _____    ______ ____
ROOT
ATOM      1  N   UNL     1       0.575  11.729  18.892  0.00  0.00    +0.000 N 
ATOM      2  C   UNL     1      -0.647  12.290  18.467  0.00  0.00    +0.000 A 
ATOM      3  N   UNL     1      -0.598  13.617  18.529  0.00  0.00    +0.000 NA
ATOM      4  C   UNL     1       0.628  13.930  19.053  0.00  0.00    +0.000 A 
ATOM      5  C   UNL     1       1.195  15.175  19.347  0.00  0.00    +0.000 A 
ATOM      6  C   UNL     1       2.480  15.173  19.884  0.00  0.00    +0.000 A 
ATOM      7 BR   UNL     1       3.327  16.802  20.320  0.00  0.00    +0.000 Br
ATOM      8  C   UNL     1       3.133  13.963  20.097  0.00  0.00    +0.000 A 
ATOM      9  N   UNL     1       2.620  12.737  19.827  0.00  0.00    +0.000 NA
ATOM     10  C   UNL     1       1.363  12.787  19.316  0.00  0.00    +0.000 A 
ENDROOT
BRANCH   1  14
ATOM     11  C   UNL     1       1.986   7.725  19.163  0.00  0.00    +0.000 A 
ATOM     12  C   UNL     1       1.332   8.344  20.240  0.00  0.00    +0.000 A 
ATOM     13  C   UNL     1       0.785   9.625  20.126  0.00  0.00    +0.000 A 
ATOM     14  C   UNL     1       0.931  10.349  18.942  0.00  0.00    +0.000 A 
ATOM     15  C   UNL     1       1.527   9.737  17.836  0.00  0.00    +0.000 A 
ATOM     16  C   UNL     1       2.055   8.444  17.954  0.00  0.00    +0.000 A 
BRANCH  11  18
ATOM     17  C   UNL     1       4.104   6.267  19.295  0.00  0.00    +0.000 C 
ATOM     18  C   UNL     1       2.559   6.300  19.263  0.00  0.00    +0.000 C 
ATOM     19  C   UNL     1       2.115   5.435  18.062  0.00  0.00    +0.000 C 
ATOM     20  C   UNL     1       2.053   5.647  20.565  0.00  0.00    +0.000 C 
ENDBRANCH  11  18
ENDBRANCH   1  14
BRANCH   2  21
ATOM     21  C   UNL     1      -1.876  11.549  18.100  0.00  0.00    +0.000 A 
ATOM     22  C   UNL     1      -1.855  10.520  17.144  0.00  0.00    +0.000 A 
ATOM     23  C   UNL     1      -3.033   9.904  16.738  0.00  0.00    +0.000 A 
ATOM     24  C   UNL     1      -4.202  10.269  17.372  0.00  0.00    +0.000 A 
ATOM     25  N   UNL     1      -4.261  11.190  18.355  0.00  0.00    +0.000 NA
ATOM     26  C   UNL     1      -3.114  11.814  18.707  0.00  0.00    +0.000 A 
BRANCH  26  27
ATOM     27  N   UNL     1      -3.275  12.815  19.665  0.00  0.00    +0.000 N 
ATOM     28  H   UNL     1      -2.655  12.600  20.441  0.00  0.00    +0.000 HD
ATOM     29  H   UNL     1      -3.118  13.734  19.254  0.00  0.00    +0.000 HD
ENDBRANCH  26  27
ENDBRANCH   2  21
TORSDOF 4
ENDMDL
MODEL 5
REMARK VINA RESULT:      -7.9      0.915      1.711
REMARK  Name = 
REMARK  7 active torsions:
REMARK  status: ('A' for Active; 'I' for Inactive)
REMARK    1  A    between atoms: C_1  and  C_2
REMARK    2  A    between atoms: C_2  and  C_3
REMARK    3  A    between atoms: C_2  and  C_4
REMARK    4  A    between atoms: C_2  and  C_5
REMARK    5  A    between atoms: C_8  and  N_9
REMARK    6  A    between atoms: C_10  and  C_11
REMARK    7  A    between atoms: C_16  and  N_17
REMARK                            x       y       z     vdW  Elec       q    Type
REMARK                         _______ _______ _______ _____ _____    ______ ____
ROOT
ATOM      1  N   UNL     1       3.613   5.587  17.961  0.00  0.00    +0.000 N 
ATOM      2  C   UNL     1       3.707   4.290  18.504  0.00  0.00    +0.000 A 
ATOM      3  N   UNL     1       4.627   3.579  17.860  0.00  0.00    +0.000 NA
ATOM      4  C   UNL     1       5.093   4.381  16.853  0.00  0.00    +0.000 A 
ATOM      5  C   UNL     1       6.054   4.129  15.867  0.00  0.00    +0.000 A 
ATOM      6  C   UNL     1       6.318   5.157  14.965  0.00  0.00    +0.000 A 
ATOM      7 BR   UNL     1       7.592   4.911  13.595  0.00  0.00    +0.000 Br
ATOM      8  C   UNL     1       5.636   6.364  15.082  0.00  0.00    +0.000 A 
ATOM      9  N   UNL     1       4.700   6.648  16.020  0.00  0.00    +0.000 NA
ATOM     10  C   UNL     1       4.467   5.615  16.870  0.00  0.00    +0.000 A 
ENDROOT
BRANCH   1  14
ATOM     11  C   UNL     1       1.424   8.985  19.286  0.00  0.00    +0.000 A 
ATOM     12  C   UNL     1       1.668   8.760  17.923  0.00  0.00    +0.000 A 
ATOM     13  C   UNL     1       2.306   7.600  17.475  0.00  0.00    +0.000 A 
ATOM     14  C   UNL     1       2.772   6.655  18.391  0.00  0.00    +0.000 A 
ATOM     15  C   UNL     1       2.493   6.826  19.749  0.00  0.00    +0.000 A 
ATOM     16  C   UNL     1       1.835   7.984  20.187  0.00  0.00    +0.000 A 
BRANCH  11  18
ATOM     17  C   UNL     1      -0.806  10.268  19.394  0.00  0.00    +0.000 C 
ATOM     18  C   UNL     1       0.689  10.239  19.790  0.00  0.00    +0.000 C 
ATOM     19  C   UNL     1       1.329  11.527  19.224  0.00  0.00    +0.000 C 
ATOM     20  C   UNL     1       0.762  10.279  21.329  0.00  0.00    +0.000 C 
ENDBRANCH  11  18
ENDBRANCH   1  14
BRANCH   2  21
ATOM     21  C   UNL     1       2.850   3.716  19.568  0.00  0.00    +0.000 A 
ATOM     22  C   UNL     1       2.900   4.194  20.888  0.00  0.00    +0.000 A 
ATOM     23  C   UNL     1       2.164   3.578  21.894  0.00  0.00    +0.000 A 
ATOM     24  C   UNL     1       1.316   2.552  21.536  0.00  0.00    +0.000 A 
ATOM     25  N   UNL     1       1.170   2.114  20.269  0.00  0.00    +0.000 NA
ATOM     26  C   UNL     1       1.926   2.691  19.309  0.00  0.00    +0.000 A 
BRANCH  26  27
ATOM     27  N   UNL     1       1.782   2.122  18.043  0.00  0.00    +0.000 N 
ATOM     28  H   UNL     1       0.792   2.115  17.819  0.00  0.00    +0.000 HD
ATOM     29  H   UNL     1       2.357   2.614  17.361  0.00  0.00    +0.000 HD
ENDBRANCH  26  27
ENDBRANCH   2  21
TORSDOF 4
ENDMDL
MODEL 6
REMARK VINA RESULT:      -7.7      5.118      8.937
REMARK  Name = 
REMARK  7 active torsions:
REMARK  status: ('A' for Active; 'I' for Inactive)
REMARK    1  A    between atoms: C_1  and  C_2
REMARK    2  A    between atoms: C_2  and  C_3
REMARK    3  A    between atoms: C_2  and  C_4
REMARK    4  A    between atoms: C_2  and  C_5
REMARK    5  A    between atoms: C_8  and  N_9
REMARK    6  A    between atoms: C_10  and  C_11
REMARK    7  A    between atoms: C_16  and  N_17
REMARK                            x       y       z     vdW  Elec       q    Type
REMARK                         _______ _______ _______ _____ _____    ______ ____
ROOT
ATOM      1  N   UNL     1      -0.076  10.904  18.974  0.00  0.00    +0.000 N 
ATOM      2  C   UNL     1       0.146  12.238  19.373  0.00  0.00    +0.000 A 
ATOM      3  N   UNL     1      -0.990  12.926  19.356  0.00  0.00    +0.000 NA
ATOM      4  C   UNL     1      -1.949  12.069  18.885  0.00  0.00    +0.000 A 
ATOM      5  C   UNL     1      -3.313  12.277  18.651  0.00  0.00    +0.000 A 
ATOM      6  C   UNL     1      -4.042  11.197  18.160  0.00  0.00    +0.000 A 
ATOM      7 BR   UNL     1      -5.886  11.380  17.807  0.00  0.00    +0.000 Br
ATOM      8  C   UNL     1      -3.400   9.983  17.932  0.00  0.00    +0.000 A 
ATOM      9  N   UNL     1      -2.083   9.740  18.144  0.00  0.00    +0.000 NA
ATOM     10  C   UNL     1      -1.411  10.824  18.612  0.00  0.00    +0.000 A 
ENDROOT
BRANCH   1  14
ATOM     11  C   UNL     1       2.481   7.524  18.606  0.00  0.00    +0.000 A 
ATOM     12  C   UNL     1       2.313   8.431  17.549  0.00  0.00    +0.000 A 
ATOM     13  C   UNL     1       1.548   9.592  17.694  0.00  0.00    +0.000 A 
ATOM     14  C   UNL     1       0.877   9.847  18.892  0.00  0.00    +0.000 A 
ATOM     15  C   UNL     1       1.072   8.990  19.979  0.00  0.00    +0.000 A 
ATOM     16  C   UNL     1       1.857   7.840  19.829  0.00  0.00    +0.000 A 
BRANCH  11  18
ATOM     17  C   UNL     1       2.628   5.098  17.758  0.00  0.00    +0.000 C 
ATOM     18  C   UNL     1       3.352   6.263  18.472  0.00  0.00    +0.000 C 
ATOM     19  C   UNL     1       3.791   5.738  19.857  0.00  0.00    +0.000 C 
ATOM     20  C   UNL     1       4.607   6.607  17.645  0.00  0.00    +0.000 C 
ENDBRANCH  11  18
ENDBRANCH   1  14
BRANCH   2  21
ATOM     21  C   UNL     1       1.457  12.861  19.673  0.00  0.00    +0.000 A 
ATOM     22  C   UNL     1       1.870  13.103  20.993  0.00  0.00    +0.000 A 
ATOM     23  C   UNL     1       3.056  13.780  21.253  0.00  0.00    +0.000 A 
ATOM     24  C   UNL     1       3.854  14.115  20.180  0.00  0.00    +0.000 A 
ATOM     25  N   UNL     1       3.542  13.829  18.900  0.00  0.00    +0.000 NA
ATOM     26  C   UNL     1       2.363  13.212  18.660  0.00  0.00    +0.000 A 
BRANCH  26  27
ATOM     27  N   UNL     1       2.074  13.032  17.306  0.00  0.00    +0.000 N 
ATOM     28  H   UNL     1       2.947  13.102  16.793  0.00  0.00    +0.000 HD
ATOM     29  H   UNL     1       1.578  12.155  17.159  0.00  0.00    +0.000 HD
ENDBRANCH  26  27
ENDBRANCH   2  21
TORSDOF 4
ENDMDL
MODEL 7
REMARK VINA RESULT:      -7.4      8.712     11.185
REMARK  Name = 
REMARK  7 active torsions:
REMARK  status: ('A' for Active; 'I' for Inactive)
REMARK    1  A    between atoms: C_1  and  C_2
REMARK    2  A    between atoms: C_2  and  C_3
REMARK    3  A    between atoms: C_2  and  C_4
REMARK    4  A    between atoms: C_2  and  C_5
REMARK    5  A    between atoms: C_8  and  N_9
REMARK    6  A    between atoms: C_10  and  C_11
REMARK    7  A    between atoms: C_16  and  N_17
REMARK                            x       y       z     vdW  Elec       q    Type
REMARK                         _______ _______ _______ _____ _____    ______ ____
ROOT
ATOM      1  N   UNL     1      -3.384  12.731  20.213  0.00  0.00    +0.000 N 
ATOM      2  C   UNL     1      -4.161  12.009  19.284  0.00  0.00    +0.000 A 
ATOM      3  N   UNL     1      -5.419  11.912  19.701  0.00  0.00    +0.000 NA
ATOM      4  C   UNL     1      -5.459  12.511  20.932  0.00  0.00    +0.000 A 
ATOM      5  C   UNL     1      -6.526  12.675  21.823  0.00  0.00    +0.000 A 
ATOM      6  C   UNL     1      -6.254  13.335  23.019  0.00  0.00    +0.000 A 
ATOM      7 BR   UNL     1      -7.625  13.599  24.289  0.00  0.00    +0.000 Br
ATOM      8  C   UNL     1      -4.966  13.796  23.271  0.00  0.00    +0.000 A 
ATOM      9  N   UNL     1      -3.906  13.657  22.437  0.00  0.00    +0.000 NA
ATOM     10  C   UNL     1      -4.215  12.999  21.289  0.00  0.00    +0.000 A 
ENDROOT
BRANCH   1  14
ATOM     11  C   UNL     1       0.727  13.613  19.569  0.00  0.00    +0.000 A 
ATOM     12  C   UNL     1      -0.276  14.545  19.265  0.00  0.00    +0.000 A 
ATOM     13  C   UNL     1      -1.620  14.298  19.559  0.00  0.00    +0.000 A 
ATOM     14  C   UNL     1      -2.004  13.077  20.116  0.00  0.00    +0.000 A 
ATOM     15  C   UNL     1      -1.021  12.154  20.482  0.00  0.00    +0.000 A 
ATOM     16  C   UNL     1       0.326  12.419  20.200  0.00  0.00    +0.000 A 
BRANCH  11  18
ATOM     17  C   UNL     1       3.095  13.838  20.556  0.00  0.00    +0.000 C 
ATOM     18  C   UNL     1       2.214  13.888  19.286  0.00  0.00    +0.000 C 
ATOM     19  C   UNL     1       2.413  15.285  18.656  0.00  0.00    +0.000 C 
ATOM     20  C   UNL     1       2.745  12.818  18.310  0.00  0.00    +0.000 C 
ENDBRANCH  11  18
ENDBRANCH   1  14
BRANCH   2  21
ATOM     21  C   UNL     1      -3.669  11.340  18.056  0.00  0.00    +0.000 A 
ATOM     22  C   UNL     1      -2.624  10.403  18.101  0.00  0.00    +0.000 A 
ATOM     23  C   UNL     1      -2.107   9.861  16.929  0.00  0.00    +0.000 A 
ATOM     24  C   UNL     1      -2.715  10.200  15.740  0.00  0.00    +0.000 A 
ATOM     25  N   UNL     1      -3.775  11.030  15.654  0.00  0.00    +0.000 NA
ATOM     26  C   UNL     1      -4.237  11.585  16.796  0.00  0.00    +0.000 A 
BRANCH  26  27
ATOM     27  N   UNL     1      -5.275  12.500  16.612  0.00  0.00    +0.000 N 
ATOM     28  H   UNL     1      -4.953  13.402  16.950  0.00  0.00    +0.000 HD
ATOM     29  H   UNL     1      -5.578  12.507  15.640  0.00  0.00    +0.000 HD
ENDBRANCH  26  27
ENDBRANCH   2  21
TORSDOF 4
ENDMDL
MODEL 8
REMARK VINA RESULT:      -7.3      5.354      9.184
REMARK  Name = 
REMARK  7 active torsions:
REMARK  status: ('A' for Active; 'I' for Inactive)
REMARK    1  A    between atoms: C_1  and  C_2
REMARK    2  A    between atoms: C_2  and  C_3
REMARK    3  A    between atoms: C_2  and  C_4
REMARK    4  A    between atoms: C_2  and  C_5
REMARK    5  A    between atoms: C_8  and  N_9
REMARK    6  A    between atoms: C_10  and  C_11
REMARK    7  A    between atoms: C_16  and  N_17
REMARK                            x       y       z     vdW  Elec       q    Type
REMARK                         _______ _______ _______ _____ _____    ______ ____
ROOT
ATOM      1  N   UNL     1      -0.635  11.060  19.213  0.00  0.00    +0.000 N 
ATOM      2  C   UNL     1      -0.496  12.350  19.763  0.00  0.00    +0.000 A 
ATOM      3  N   UNL     1      -1.665  12.981  19.778  0.00  0.00    +0.000 NA
ATOM      4  C   UNL     1      -2.562  12.135  19.180  0.00  0.00    +0.000 A 
ATOM      5  C   UNL     1      -3.926  12.302  18.918  0.00  0.00    +0.000 A 
ATOM      6  C   UNL     1      -4.582  11.249  18.285  0.00  0.00    +0.000 A 
ATOM      7 BR   UNL     1      -6.420  11.382  17.883  0.00  0.00    +0.000 Br
ATOM      8  C   UNL     1      -3.871  10.101  17.950  0.00  0.00    +0.000 A 
ATOM      9  N   UNL     1      -2.551   9.899  18.185  0.00  0.00    +0.000 NA
ATOM     10  C   UNL     1      -1.951  10.955  18.793  0.00  0.00    +0.000 A 
ENDROOT
BRANCH   1  14
ATOM     11  C   UNL     1       2.093   7.843  18.658  0.00  0.00    +0.000 A 
ATOM     12  C   UNL     1       1.732   8.686  17.595  0.00  0.00    +0.000 A 
ATOM     13  C   UNL     1       0.910   9.799  17.791  0.00  0.00    +0.000 A 
ATOM     14  C   UNL     1       0.375  10.065  19.053  0.00  0.00    +0.000 A 
ATOM     15  C   UNL     1       0.762   9.276  20.139  0.00  0.00    +0.000 A 
ATOM     16  C   UNL     1       1.604   8.174  19.936  0.00  0.00    +0.000 A 
BRANCH  11  18
ATOM     17  C   UNL     1       3.622   6.109  19.790  0.00  0.00    +0.000 C 
ATOM     18  C   UNL     1       3.029   6.637  18.464  0.00  0.00    +0.000 C 
ATOM     19  C   UNL     1       4.221   6.997  17.550  0.00  0.00    +0.000 C 
ATOM     20  C   UNL     1       2.233   5.484  17.819  0.00  0.00    +0.000 C 
ENDBRANCH  11  18
ENDBRANCH   1  14
BRANCH   2  21
ATOM     21  C   UNL     1       0.771  12.998  20.179  0.00  0.00    +0.000 A 
ATOM     22  C   UNL     1       1.885  13.048  19.324  0.00  0.00    +0.000 A 
ATOM     23  C   UNL     1       3.095  13.569  19.767  0.00  0.00    +0.000 A 
ATOM     24  C   UNL     1       3.136  14.119  21.030  0.00  0.00    +0.000 A 
ATOM     25  N   UNL     1       2.071  14.172  21.856  0.00  0.00    +0.000 NA
ATOM     26  C   UNL     1       0.913  13.619  21.429  0.00  0.00    +0.000 A 
BRANCH  26  27
ATOM     27  N   UNL     1      -0.113  13.634  22.375  0.00  0.00    +0.000 N 
ATOM     28  H   UNL     1      -0.380  12.671  22.554  0.00  0.00    +0.000 HD
ATOM     29  H   UNL     1       0.174  14.145  23.208  0.00  0.00    +0.000 HD
ENDBRANCH  26  27
ENDBRANCH   2  21
TORSDOF 4
ENDMDL
MODEL 9
REMARK VINA RESULT:      -7.2      5.875      9.105
REMARK  Name = 
REMARK  7 active torsions:
REMARK  status: ('A' for Active; 'I' for Inactive)
REMARK    1  A    between atoms: C_1  and  C_2
REMARK    2  A    between atoms: C_2  and  C_3
REMARK    3  A    between atoms: C_2  and  C_4
REMARK    4  A    between atoms: C_2  and  C_5
REMARK    5  A    between atoms: C_8  and  N_9
REMARK    6  A    between atoms: C_10  and  C_11
REMARK    7  A    between atoms: C_16  and  N_17
REMARK                            x       y       z     vdW  Elec       q    Type
REMARK                         _______ _______ _______ _____ _____    ______ ____
ROOT
ATOM      1  N   UNL     1       0.231  12.522  19.736  0.00  0.00    +0.000 N 
ATOM      2  C   UNL     1      -0.165  11.179  19.566  0.00  0.00    +0.000 A 
ATOM      3  N   UNL     1      -1.473  11.049  19.766  0.00  0.00    +0.000 NA
ATOM      4  C   UNL     1      -1.928  12.288  20.130  0.00  0.00    +0.000 A 
ATOM      5  C   UNL     1      -3.217  12.713  20.472  0.00  0.00    +0.000 A 
ATOM      6  C   UNL     1      -3.372  14.056  20.804  0.00  0.00    +0.000 A 
ATOM      7 BR   UNL     1      -5.070  14.724  21.286  0.00  0.00    +0.000 Br
ATOM      8  C   UNL     1      -2.267  14.901  20.781  0.00  0.00    +0.000 A 
ATOM      9  N   UNL     1      -1.003  14.529  20.457  0.00  0.00    +0.000 NA
ATOM     10  C   UNL     1      -0.898  13.210  20.150  0.00  0.00    +0.000 A 
ENDROOT
BRANCH   1  14
ATOM     11  C   UNL     1       3.961  14.517  19.296  0.00  0.00    +0.000 A 
ATOM     12  C   UNL     1       3.494  14.113  20.556  0.00  0.00    +0.000 A 
ATOM     13  C   UNL     1       2.315  13.376  20.697  0.00  0.00    +0.000 A 
ATOM     14  C   UNL     1       1.536  13.074  19.578  0.00  0.00    +0.000 A 
ATOM     15  C   UNL     1       2.006  13.414  18.307  0.00  0.00    +0.000 A 
ATOM     16  C   UNL     1       3.200  14.136  18.174  0.00  0.00    +0.000 A 
BRANCH  11  18
ATOM     17  C   UNL     1       6.237  15.142  20.326  0.00  0.00    +0.000 C 
ATOM     18  C   UNL     1       5.278  15.295  19.123  0.00  0.00    +0.000 C 
ATOM     19  C   UNL     1       5.014  16.807  18.947  0.00  0.00    +0.000 C 
ATOM     20  C   UNL     1       6.012  14.766  17.874  0.00  0.00    +0.000 C 
ENDBRANCH  11  18
ENDBRANCH   1  14
BRANCH   2  21
ATOM     21  C   UNL     1       0.727  10.024  19.309  0.00  0.00    +0.000 A 
ATOM     22  C   UNL     1       1.313   9.815  18.049  0.00  0.00    +0.000 A 
ATOM     23  C   UNL     1       2.064   8.673  17.797  0.00  0.00    +0.000 A 
ATOM     24  C   UNL     1       2.292   7.808  18.846  0.00  0.00    +0.000 A 
ATOM     25  N   UNL     1       1.822   8.008  20.094  0.00  0.00    +0.000 NA
ATOM     26  C   UNL     1       1.054   9.099  20.312  0.00  0.00    +0.000 A 
BRANCH  26  27
ATOM     27  N   UNL     1       0.533   9.186  21.604  0.00  0.00    +0.000 N 
ATOM     28  H   UNL     1       0.097  10.098  21.699  0.00  0.00    +0.000 HD
ATOM     29  H   UNL     1      -0.095   8.406  21.790  0.00  0.00    +0.000 HD
ENDBRANCH  26  27
ENDBRANCH   2  21
TORSDOF 4
ENDMDL
