MODEL 1
REMARK VINA RESULT:      -6.8      0.000      0.000
REMARK  Name = 
REMARK  3 active torsions:
REMARK  status: ('A' for Active; 'I' for Inactive)
REMARK    1  A    between atoms: C_1  and  C_2
REMARK    2  A    between atoms: N_4  and  C_5
REMARK    3  A    between atoms: C_15  and  C_16
REMARK                            x       y       z     vdW  Elec       q    Type
REMARK                         _______ _______ _______ _____ _____    ______ ____
ROOT
ATOM      1  C   UNL     1       1.934   4.925  20.921  0.00  0.00    +0.000 C 
ATOM      2  C   UNL     1       1.780   6.351  20.512  0.00  0.00    +0.000 C 
ATOM      3  N   UNL     1       1.213   7.243  21.280  0.00  0.00    +0.000 NA
ATOM      4  N   UNL     1       1.214   8.440  20.568  0.00  0.00    +0.000 N 
ATOM      5  C   UNL     1       1.799   8.348  19.297  0.00  0.00    +0.000 C 
ATOM      6  O   UNL     1       1.963   9.169  18.413  0.00  0.00    +0.000 OA
ATOM      7  C   UNL     1       2.215   6.925  19.229  0.00  0.00    +0.000 C 
ATOM      8  C   UNL     1       2.832   6.446  18.143  0.00  0.00    +0.000 C 
ENDROOT
BRANCH   4   9
ATOM      9  C   UNL     1       0.606   9.575  21.160  0.00  0.00    +0.000 A 
ATOM     10  C   UNL     1       0.771  10.862  20.630  0.00  0.00    +0.000 A 
ATOM     11  C   UNL     1       0.152  11.970  21.222  0.00  0.00    +0.000 A 
ATOM     12  C   UNL     1      -0.630  11.801  22.361  0.00  0.00    +0.000 A 
ATOM     13 BR   UNL     1      -1.458  13.297  23.164  0.00  0.00    +0.000 Br
ATOM     14  C   UNL     1      -0.803  10.534  22.911  0.00  0.00    +0.000 A 
ATOM     15  C   UNL     1      -0.193   9.429  22.307  0.00  0.00    +0.000 A 
ENDBRANCH   4   9
BRANCH   8  16
ATOM     16  C   UNL     1       3.198   5.087  17.993  0.00  0.00    +0.000 A 
ATOM     17  C   UNL     1       2.453   4.058  17.449  0.00  0.00    +0.000 A 
ATOM     18  C   UNL     1       3.134   2.807  17.483  0.00  0.00    +0.000 A 
ATOM     19  C   UNL     1       4.397   2.926  18.018  0.00  0.00    +0.000 A 
ATOM     20  S   UNL     1       4.765   4.542  18.438  0.00  0.00    +0.000 S 
ENDBRANCH   8  16
TORSDOF 2
ENDMDL
MODEL 2
REMARK VINA RESULT:      -6.7      0.220      1.100
REMARK  Name = 
REMARK  3 active torsions:
REMARK  status: ('A' for Active; 'I' for Inactive)
REMARK    1  A    between atoms: C_1  and  C_2
REMARK    2  A    between atoms: N_4  and  C_5
REMARK    3  A    between atoms: C_15  and  C_16
REMARK                            x       y       z     vdW  Elec       q    Type
REMARK                         _______ _______ _______ _____ _____    ______ ____
ROOT
ATOM      1  C   UNL     1       1.911   5.115  20.940  0.00  0.00    +0.000 C 
ATOM      2  C   UNL     1       1.729   6.539  20.535  0.00  0.00    +0.000 C 
ATOM      3  N   UNL     1       1.169   7.424  21.316  0.00  0.00    +0.000 NA
ATOM      4  N   UNL     1       1.140   8.621  20.606  0.00  0.00    +0.000 N 
ATOM      5  C   UNL     1       1.697   8.537  19.322  0.00  0.00    +0.000 C 
ATOM      6  O   UNL     1       1.832   9.361  18.435  0.00  0.00    +0.000 OA
ATOM      7  C   UNL     1       2.129   7.119  19.243  0.00  0.00    +0.000 C 
ATOM      8  C   UNL     1       2.728   6.648  18.143  0.00  0.00    +0.000 C 
ENDROOT
BRANCH   4   9
ATOM      9  C   UNL     1       0.532   9.748  21.212  0.00  0.00    +0.000 A 
ATOM     10  C   UNL     1      -0.303   9.626  22.331  0.00  0.00    +0.000 A 
ATOM     11  C   UNL     1      -0.886  10.753  22.923  0.00  0.00    +0.000 A 
ATOM     12  C   UNL     1      -0.646  12.017  22.392  0.00  0.00    +0.000 A 
ATOM     13 BR   UNL     1      -1.438  13.538  23.185  0.00  0.00    +0.000 Br
ATOM     14  C   UNL     1       0.173  12.164  21.276  0.00  0.00    +0.000 A 
ATOM     15  C   UNL     1       0.762  11.035  20.697  0.00  0.00    +0.000 A 
ENDBRANCH   4   9
BRANCH   8  16
ATOM     16  C   UNL     1       3.107   5.294  17.984  0.00  0.00    +0.000 A 
ATOM     17  C   UNL     1       2.338   4.241  17.525  0.00  0.00    +0.000 A 
ATOM     18  C   UNL     1       3.045   3.005  17.519  0.00  0.00    +0.000 A 
ATOM     19  C   UNL     1       4.347   3.157  17.940  0.00  0.00    +0.000 A 
ATOM     20  S   UNL     1       4.717   4.787  18.299  0.00  0.00    +0.000 S 
ENDBRANCH   8  16
TORSDOF 2
ENDMDL
MODEL 3
REMARK VINA RESULT:      -6.7      1.342      1.602
REMARK  Name = 
REMARK  3 active torsions:
REMARK  status: ('A' for Active; 'I' for Inactive)
REMARK    1  A    between atoms: C_1  and  C_2
REMARK    2  A    between atoms: N_4  and  C_5
REMARK    3  A    between atoms: C_15  and  C_16
REMARK                            x       y       z     vdW  Elec       q    Type
REMARK                         _______ _______ _______ _____ _____    ______ ____
ROOT
ATOM      1  C   UNL     1       2.036   5.938  20.755  0.00  0.00    +0.000 C 
ATOM      2  C   UNL     1       1.851   7.234  20.040  0.00  0.00    +0.000 C 
ATOM      3  N   UNL     1       1.141   8.212  20.536  0.00  0.00    +0.000 NA
ATOM      4  N   UNL     1       1.161   9.236  19.593  0.00  0.00    +0.000 N 
ATOM      5  C   UNL     1       1.906   8.939  18.443  0.00  0.00    +0.000 C 
ATOM      6  O   UNL     1       2.133   9.576  17.429  0.00  0.00    +0.000 OA
ATOM      7  C   UNL     1       2.411   7.572  18.722  0.00  0.00    +0.000 C 
ATOM      8  C   UNL     1       3.187   6.936  17.837  0.00  0.00    +0.000 C 
ENDROOT
BRANCH   4   9
ATOM      9  C   UNL     1       0.418  10.412  19.861  0.00  0.00    +0.000 A 
ATOM     10  C   UNL     1      -0.750  10.727  19.152  0.00  0.00    +0.000 A 
ATOM     11  C   UNL     1      -1.476  11.889  19.440  0.00  0.00    +0.000 A 
ATOM     12  C   UNL     1      -1.034  12.755  20.435  0.00  0.00    +0.000 A 
ATOM     13 BR   UNL     1      -2.011  14.327  20.818  0.00  0.00    +0.000 Br
ATOM     14  C   UNL     1       0.127  12.469  21.148  0.00  0.00    +0.000 A 
ATOM     15  C   UNL     1       0.842  11.300  20.865  0.00  0.00    +0.000 A 
ENDBRANCH   4   9
BRANCH   8  16
ATOM     16  C   UNL     1       3.648   5.610  18.018  0.00  0.00    +0.000 A 
ATOM     17  C   UNL     1       3.084   4.439  17.547  0.00  0.00    +0.000 A 
ATOM     18  C   UNL     1       3.811   3.280  17.945  0.00  0.00    +0.000 A 
ATOM     19  C   UNL     1       4.931   3.604  18.677  0.00  0.00    +0.000 A 
ATOM     20  S   UNL     1       5.119   5.295  18.847  0.00  0.00    +0.000 S 
ENDBRANCH   8  16
TORSDOF 2
ENDMDL
MODEL 4
REMARK VINA RESULT:      -6.7      1.356      1.556
REMARK  Name = 
REMARK  3 active torsions:
REMARK  status: ('A' for Active; 'I' for Inactive)
REMARK    1  A    between atoms: C_1  and  C_2
REMARK    2  A    between atoms: N_4  and  C_5
REMARK    3  A    between atoms: C_15  and  C_16
REMARK                            x       y       z     vdW  Elec       q    Type
REMARK                         _______ _______ _______ _____ _____    ______ ____
ROOT
ATOM      1  C   UNL     1       1.999   5.885  20.788  0.00  0.00    +0.000 C 
ATOM      2  C   UNL     1       1.825   7.189  20.088  0.00  0.00    +0.000 C 
ATOM      3  N   UNL     1       1.120   8.167  20.592  0.00  0.00    +0.000 NA
ATOM      4  N   UNL     1       1.150   9.202  19.662  0.00  0.00    +0.000 N 
ATOM      5  C   UNL     1       1.897   8.913  18.510  0.00  0.00    +0.000 C 
ATOM      6  O   UNL     1       2.132   9.560  17.505  0.00  0.00    +0.000 OA
ATOM      7  C   UNL     1       2.391   7.539  18.776  0.00  0.00    +0.000 C 
ATOM      8  C   UNL     1       3.166   6.909  17.885  0.00  0.00    +0.000 C 
ENDROOT
BRANCH   4   9
ATOM      9  C   UNL     1       0.415  10.380  19.941  0.00  0.00    +0.000 A 
ATOM     10  C   UNL     1       0.930  11.398  20.757  0.00  0.00    +0.000 A 
ATOM     11  C   UNL     1       0.192  12.560  21.012  0.00  0.00    +0.000 A 
ATOM     12  C   UNL     1      -1.077  12.712  20.460  0.00  0.00    +0.000 A 
ATOM     13 BR   UNL     1      -2.075  14.277  20.810  0.00  0.00    +0.000 Br
ATOM     14  C   UNL     1      -1.613  11.712  19.653  0.00  0.00    +0.000 A 
ATOM     15  C   UNL     1      -0.866  10.559  19.391  0.00  0.00    +0.000 A 
ENDBRANCH   4   9
BRANCH   8  16
ATOM     16  C   UNL     1       3.617   5.578  18.052  0.00  0.00    +0.000 A 
ATOM     17  C   UNL     1       3.049   4.416  17.562  0.00  0.00    +0.000 A 
ATOM     18  C   UNL     1       3.766   3.248  17.949  0.00  0.00    +0.000 A 
ATOM     19  C   UNL     1       4.882   3.554  18.694  0.00  0.00    +0.000 A 
ATOM     20  S   UNL     1       5.080   5.241  18.887  0.00  0.00    +0.000 S 
ENDBRANCH   8  16
TORSDOF 2
ENDMDL
MODEL 5
REMARK VINA RESULT:      -6.6      1.850      2.309
REMARK  Name = 
REMARK  3 active torsions:
REMARK  status: ('A' for Active; 'I' for Inactive)
REMARK    1  A    between atoms: C_1  and  C_2
REMARK    2  A    between atoms: N_4  and  C_5
REMARK    3  A    between atoms: C_15  and  C_16
REMARK                            x       y       z     vdW  Elec       q    Type
REMARK                         _______ _______ _______ _____ _____    ______ ____
ROOT
ATOM      1  C   UNL     1       4.087   4.898  19.418  0.00  0.00    +0.000 C 
ATOM      2  C   UNL     1       3.416   6.211  19.196  0.00  0.00    +0.000 C 
ATOM      3  N   UNL     1       2.651   6.769  20.097  0.00  0.00    +0.000 NA
ATOM      4  N   UNL     1       2.177   7.953  19.539  0.00  0.00    +0.000 N 
ATOM      5  C   UNL     1       2.639   8.196  18.237  0.00  0.00    +0.000 C 
ATOM      6  O   UNL     1       2.431   9.105  17.453  0.00  0.00    +0.000 OA
ATOM      7  C   UNL     1       3.510   7.024  17.973  0.00  0.00    +0.000 C 
ATOM      8  C   UNL     1       4.152   6.900  16.805  0.00  0.00    +0.000 C 
ENDROOT
BRANCH   4   9
ATOM      9  C   UNL     1       1.274   8.739  20.296  0.00  0.00    +0.000 A 
ATOM     10  C   UNL     1       1.084   8.531  21.669  0.00  0.00    +0.000 A 
ATOM     11  C   UNL     1       0.195   9.327  22.403  0.00  0.00    +0.000 A 
ATOM     12  C   UNL     1      -0.522  10.335  21.765  0.00  0.00    +0.000 A 
ATOM     13 BR   UNL     1      -1.727  11.403  22.753  0.00  0.00    +0.000 Br
ATOM     14  C   UNL     1      -0.357  10.556  20.401  0.00  0.00    +0.000 A 
ATOM     15  C   UNL     1       0.542   9.766  19.676  0.00  0.00    +0.000 A 
ENDBRANCH   4   9
BRANCH   8  16
ATOM     16  C   UNL     1       4.946   5.777  16.471  0.00  0.00    +0.000 A 
ATOM     17  C   UNL     1       4.538   4.580  15.912  0.00  0.00    +0.000 A 
ATOM     18  C   UNL     1       5.613   3.663  15.733  0.00  0.00    +0.000 A 
ATOM     19  C   UNL     1       6.817   4.200  16.127  0.00  0.00    +0.000 A 
ATOM     20  S   UNL     1       6.651   5.813  16.671  0.00  0.00    +0.000 S 
ENDBRANCH   8  16
TORSDOF 2
ENDMDL
MODEL 6
REMARK VINA RESULT:      -6.6      1.878      2.656
REMARK  Name = 
REMARK  3 active torsions:
REMARK  status: ('A' for Active; 'I' for Inactive)
REMARK    1  A    between atoms: C_1  and  C_2
REMARK    2  A    between atoms: N_4  and  C_5
REMARK    3  A    between atoms: C_15  and  C_16
REMARK                            x       y       z     vdW  Elec       q    Type
REMARK                         _______ _______ _______ _____ _____    ______ ____
ROOT
ATOM      1  C   UNL     1       4.128   7.609  16.805  0.00  0.00    +0.000 C 
ATOM      2  C   UNL     1       3.304   7.424  18.034  0.00  0.00    +0.000 C 
ATOM      3  N   UNL     1       2.559   8.376  18.528  0.00  0.00    +0.000 NA
ATOM      4  N   UNL     1       1.967   7.863  19.679  0.00  0.00    +0.000 N 
ATOM      5  C   UNL     1       2.320   6.535  19.959  0.00  0.00    +0.000 C 
ATOM      6  O   UNL     1       2.011   5.782  20.865  0.00  0.00    +0.000 OA
ATOM      7  C   UNL     1       3.228   6.193  18.837  0.00  0.00    +0.000 C 
ATOM      8  C   UNL     1       3.777   4.975  18.750  0.00  0.00    +0.000 C 
ENDROOT
BRANCH   4   9
ATOM      9  C   UNL     1       1.136   8.716  20.446  0.00  0.00    +0.000 A 
ATOM     10  C   UNL     1       1.086   8.639  21.845  0.00  0.00    +0.000 A 
ATOM     11  C   UNL     1       0.267   9.499  22.586  0.00  0.00    +0.000 A 
ATOM     12  C   UNL     1      -0.521  10.441  21.932  0.00  0.00    +0.000 A 
ATOM     13 BR   UNL     1      -1.633  11.596  22.932  0.00  0.00    +0.000 Br
ATOM     14  C   UNL     1      -0.496  10.533  20.544  0.00  0.00    +0.000 A 
ATOM     15  C   UNL     1       0.335   9.679  19.809  0.00  0.00    +0.000 A 
ENDBRANCH   4   9
BRANCH   8  16
ATOM     16  C   UNL     1       4.698   4.609  17.740  0.00  0.00    +0.000 A 
ATOM     17  C   UNL     1       4.434   4.024  16.515  0.00  0.00    +0.000 A 
ATOM     18  C   UNL     1       5.615   3.774  15.759  0.00  0.00    +0.000 A 
ATOM     19  C   UNL     1       6.745   4.210  16.413  0.00  0.00    +0.000 A 
ATOM     20  S   UNL     1       6.373   4.949  17.909  0.00  0.00    +0.000 S 
ENDBRANCH   8  16
TORSDOF 2
ENDMDL
MODEL 7
REMARK VINA RESULT:      -6.5      1.865      2.478
REMARK  Name = 
REMARK  3 active torsions:
REMARK  status: ('A' for Active; 'I' for Inactive)
REMARK    1  A    between atoms: C_1  and  C_2
REMARK    2  A    between atoms: N_4  and  C_5
REMARK    3  A    between atoms: C_15  and  C_16
REMARK                            x       y       z     vdW  Elec       q    Type
REMARK                         _______ _______ _______ _____ _____    ______ ____
ROOT
ATOM      1  C   UNL     1       4.114   7.626  16.802  0.00  0.00    +0.000 C 
ATOM      2  C   UNL     1       3.283   7.449  18.027  0.00  0.00    +0.000 C 
ATOM      3  N   UNL     1       2.541   8.408  18.514  0.00  0.00    +0.000 NA
ATOM      4  N   UNL     1       1.941   7.902  19.664  0.00  0.00    +0.000 N 
ATOM      5  C   UNL     1       2.285   6.573  19.951  0.00  0.00    +0.000 C 
ATOM      6  O   UNL     1       1.967   5.824  20.857  0.00  0.00    +0.000 OA
ATOM      7  C   UNL     1       3.197   6.222  18.834  0.00  0.00    +0.000 C 
ATOM      8  C   UNL     1       3.740   5.001  18.754  0.00  0.00    +0.000 C 
ENDROOT
BRANCH   4   9
ATOM      9  C   UNL     1       1.110   8.762  20.424  0.00  0.00    +0.000 A 
ATOM     10  C   UNL     1       0.273   9.709  19.817  0.00  0.00    +0.000 A 
ATOM     11  C   UNL     1      -0.549  10.542  20.586  0.00  0.00    +0.000 A 
ATOM     12  C   UNL     1      -0.533  10.443  21.974  0.00  0.00    +0.000 A 
ATOM     13 BR   UNL     1      -1.637  11.573  23.011  0.00  0.00    +0.000 Br
ATOM     14  C   UNL     1       0.295   9.517  22.601  0.00  0.00    +0.000 A 
ATOM     15  C   UNL     1       1.104   8.678  21.827  0.00  0.00    +0.000 A 
ENDBRANCH   4   9
BRANCH   8  16
ATOM     16  C   UNL     1       4.664   4.626  17.750  0.00  0.00    +0.000 A 
ATOM     17  C   UNL     1       4.401   4.050  16.521  0.00  0.00    +0.000 A 
ATOM     18  C   UNL     1       5.584   3.787  15.772  0.00  0.00    +0.000 A 
ATOM     19  C   UNL     1       6.715   4.204  16.437  0.00  0.00    +0.000 A 
ATOM     20  S   UNL     1       6.342   4.943  17.934  0.00  0.00    +0.000 S 
ENDBRANCH   8  16
TORSDOF 2
ENDMDL
MODEL 8
REMARK VINA RESULT:      -6.5      1.648      1.820
REMARK  Name = 
REMARK  3 active torsions:
REMARK  status: ('A' for Active; 'I' for Inactive)
REMARK    1  A    between atoms: C_1  and  C_2
REMARK    2  A    between atoms: N_4  and  C_5
REMARK    3  A    between atoms: C_15  and  C_16
REMARK                            x       y       z     vdW  Elec       q    Type
REMARK                         _______ _______ _______ _____ _____    ______ ____
ROOT
ATOM      1  C   UNL     1       3.690   5.055  19.612  0.00  0.00    +0.000 C 
ATOM      2  C   UNL     1       3.094   6.398  19.357  0.00  0.00    +0.000 C 
ATOM      3  N   UNL     1       2.322   6.998  20.223  0.00  0.00    +0.000 NA
ATOM      4  N   UNL     1       1.929   8.200  19.641  0.00  0.00    +0.000 N 
ATOM      5  C   UNL     1       2.454   8.412  18.358  0.00  0.00    +0.000 C 
ATOM      6  O   UNL     1       2.322   9.324  17.562  0.00  0.00    +0.000 OA
ATOM      7  C   UNL     1       3.276   7.197  18.134  0.00  0.00    +0.000 C 
ATOM      8  C   UNL     1       3.957   7.034  16.994  0.00  0.00    +0.000 C 
ENDROOT
BRANCH   4   9
ATOM      9  C   UNL     1       1.036   9.035  20.357  0.00  0.00    +0.000 A 
ATOM     10  C   UNL     1       0.199   9.953  19.708  0.00  0.00    +0.000 A 
ATOM     11  C   UNL     1      -0.685  10.761  20.434  0.00  0.00    +0.000 A 
ATOM     12  C   UNL     1      -0.732  10.665  21.821  0.00  0.00    +0.000 A 
ATOM     13 BR   UNL     1      -1.920  11.762  22.800  0.00  0.00    +0.000 Br
ATOM     14  C   UNL     1       0.094   9.767  22.490  0.00  0.00    +0.000 A 
ATOM     15  C   UNL     1       0.966   8.953  21.759  0.00  0.00    +0.000 A 
ENDBRANCH   4   9
BRANCH   8  16
ATOM     16  C   UNL     1       4.707   5.871  16.697  0.00  0.00    +0.000 A 
ATOM     17  C   UNL     1       4.240   4.631  16.303  0.00  0.00    +0.000 A 
ATOM     18  C   UNL     1       5.286   3.684  16.112  0.00  0.00    +0.000 A 
ATOM     19  C   UNL     1       6.527   4.240  16.330  0.00  0.00    +0.000 A 
ATOM     20  S   UNL     1       6.424   5.901  16.723  0.00  0.00    +0.000 S 
ENDBRANCH   8  16
TORSDOF 2
ENDMDL
MODEL 9
REMARK VINA RESULT:      -6.5      1.218      1.780
REMARK  Name = 
REMARK  3 active torsions:
REMARK  status: ('A' for Active; 'I' for Inactive)
REMARK    1  A    between atoms: C_1  and  C_2
REMARK    2  A    between atoms: N_4  and  C_5
REMARK    3  A    between atoms: C_15  and  C_16
REMARK                            x       y       z     vdW  Elec       q    Type
REMARK                         _______ _______ _______ _____ _____    ______ ____
ROOT
ATOM      1  C   UNL     1       1.892   5.203  20.826  0.00  0.00    +0.000 C 
ATOM      2  C   UNL     1       1.925   6.482  20.060  0.00  0.00    +0.000 C 
ATOM      3  N   UNL     1       1.472   7.605  20.551  0.00  0.00    +0.000 NA
ATOM      4  N   UNL     1       1.632   8.568  19.558  0.00  0.00    +0.000 N 
ATOM      5  C   UNL     1       2.210   8.079  18.378  0.00  0.00    +0.000 C 
ATOM      6  O   UNL     1       2.486   8.617  17.320  0.00  0.00    +0.000 OA
ATOM      7  C   UNL     1       2.441   6.647  18.693  0.00  0.00    +0.000 C 
ATOM      8  C   UNL     1       3.000   5.832  17.791  0.00  0.00    +0.000 C 
ENDROOT
BRANCH   4   9
ATOM      9  C   UNL     1       1.171   9.882  19.815  0.00  0.00    +0.000 A 
ATOM     10  C   UNL     1       0.653  10.254  21.063  0.00  0.00    +0.000 A 
ATOM     11  C   UNL     1       0.213  11.562  21.300  0.00  0.00    +0.000 A 
ATOM     12  C   UNL     1       0.278  12.511  20.284  0.00  0.00    +0.000 A 
ATOM     13 BR   UNL     1      -0.323  14.274  20.602  0.00  0.00    +0.000 Br
ATOM     14  C   UNL     1       0.782  12.165  19.034  0.00  0.00    +0.000 A 
ATOM     15  C   UNL     1       1.232  10.860  18.807  0.00  0.00    +0.000 A 
ENDBRANCH   4   9
BRANCH   8  16
ATOM     16  C   UNL     1       3.188   4.446  18.009  0.00  0.00    +0.000 A 
ATOM     17  C   UNL     1       2.381   3.400  17.601  0.00  0.00    +0.000 A 
ATOM     18  C   UNL     1       2.872   2.131  18.020  0.00  0.00    +0.000 A 
ATOM     19  C   UNL     1       4.062   2.241  18.704  0.00  0.00    +0.000 A 
ATOM     20  S   UNL     1       4.595   3.863  18.802  0.00  0.00    +0.000 S 
ENDBRANCH   8  16
TORSDOF 2
ENDMDL
