MODEL 1
REMARK VINA RESULT:      -7.6      0.000      0.000
REMARK  Name = 
REMARK  11 active torsions:
REMARK  status: ('A' for Active; 'I' for Inactive)
REMARK    1  A    between atoms: C_1  and  C_2
REMARK    2  A    between atoms: C_3  and  C_4
REMARK    3  A    between atoms: C_4  and  N_5
REMARK    4  A    between atoms: N_8  and  C_9
REMARK    5  A    between atoms: C_9  and  C_10
REMARK    6  A    between atoms: C_10  and  C_11
REMARK    7  A    between atoms: C_10  and  C_12
REMARK    8  A    between atoms: C_10  and  C_13
REMARK    9  A    between atoms: C_14  and  C_15
REMARK   10  A    between atoms: C_15  and  C_16
REMARK   11  A    between atoms: C_16  and  O_17
REMARK                            x       y       z     vdW  Elec       q    Type
REMARK                         _______ _______ _______ _____ _____    ______ ____
ROOT
ATOM      1  N   UNL     1       2.512   6.508  18.458  0.00  0.00    +0.000 NA
ATOM      2  C   UNL     1       3.852   6.762  17.893  0.00  0.00    +0.000 C 
ATOM      3  C   UNL     1       4.895   5.662  18.181  0.00  0.00    +0.000 C 
ATOM      4  N   UNL     1       4.567   4.284  17.753  0.00  0.00    +0.000 NA
ATOM      5  C   UNL     1       3.247   3.998  18.404  0.00  0.00    +0.000 C 
ATOM      6  C   UNL     1       2.150   5.087  18.081  0.00  0.00    +0.000 C 
ENDROOT
BRANCH   1   7
ATOM      7  C   UNL     1       2.455   6.750  19.930  0.00  0.00    +0.000 C 
BRANCH   7  10
ATOM      8  C   UNL     1       1.252   9.549  18.358  0.00  0.00    +0.000 C 
ATOM      9  C   UNL     1       1.114   9.075  19.764  0.00  0.00    +0.000 A 
ATOM     10  C   UNL     1       1.576   7.916  20.409  0.00  0.00    +0.000 A 
ATOM     11  N   UNL     1       1.147   8.010  21.728  0.00  0.00    +0.000 N 
ATOM     12  C   UNL     1       0.419   9.179  21.931  0.00  0.00    +0.000 A 
ATOM     13  C   UNL     1      -0.234   9.681  23.070  0.00  0.00    +0.000 A 
ATOM     14  C   UNL     1      -0.905  10.906  22.949  0.00  0.00    +0.000 A 
ATOM     15  C   UNL     1      -0.901  11.634  21.758  0.00  0.00    +0.000 A 
ATOM     16  C   UNL     1      -0.231  11.129  20.651  0.00  0.00    +0.000 A 
ATOM     17  C   UNL     1       0.414   9.869  20.730  0.00  0.00    +0.000 A 
ATOM     18  H   UNL     1       1.328   7.319  22.424  0.00  0.00    +0.000 HD
ENDBRANCH   7  10
ENDBRANCH   1   7
BRANCH   4  19
ATOM     19  C   UNL     1       4.630   4.057  16.274  0.00  0.00    +0.000 C 
BRANCH  19  20
ATOM     20  C   UNL     1       5.910   4.580  15.477  0.00  0.00    +0.000 C 
ATOM     21  C   UNL     1       6.111   3.755  14.188  0.00  0.00    +0.000 C 
ATOM     22  C   UNL     1       5.761   6.078  15.077  0.00  0.00    +0.000 C 
ATOM     23  C   UNL     1       7.195   4.509  16.316  0.00  0.00    +0.000 C 
ENDBRANCH  19  20
ENDBRANCH   4  19
BRANCH   5  24
ATOM     24  C   UNL     1       2.784   2.518  18.317  0.00  0.00    +0.000 C 
BRANCH  24  25
ATOM     25  C   UNL     1       3.932   1.554  18.666  0.00  0.00    +0.000 C 
BRANCH  25  26
ATOM     26  O   UNL     1       4.791   2.129  19.647  0.00  0.00    +0.000 OA
ATOM     27  H   UNL     1       4.713   1.601  20.459  0.00  0.00    +0.000 HD
ENDBRANCH  25  26
ENDBRANCH  24  25
ENDBRANCH   5  24
TORSDOF 7
ENDMDL
MODEL 2
REMARK VINA RESULT:      -7.5      0.902      1.302
REMARK  Name = 
REMARK  11 active torsions:
REMARK  status: ('A' for Active; 'I' for Inactive)
REMARK    1  A    between atoms: C_1  and  C_2
REMARK    2  A    between atoms: C_3  and  C_4
REMARK    3  A    between atoms: C_4  and  N_5
REMARK    4  A    between atoms: N_8  and  C_9
REMARK    5  A    between atoms: C_9  and  C_10
REMARK    6  A    between atoms: C_10  and  C_11
REMARK    7  A    between atoms: C_10  and  C_12
REMARK    8  A    between atoms: C_10  and  C_13
REMARK    9  A    between atoms: C_14  and  C_15
REMARK   10  A    between atoms: C_15  and  C_16
REMARK   11  A    between atoms: C_16  and  O_17
REMARK                            x       y       z     vdW  Elec       q    Type
REMARK                         _______ _______ _______ _____ _____    ______ ____
ROOT
ATOM      1  N   UNL     1       2.404   6.430  18.592  0.00  0.00    +0.000 NA
ATOM      2  C   UNL     1       3.659   6.793  17.903  0.00  0.00    +0.000 C 
ATOM      3  C   UNL     1       4.848   5.851  18.185  0.00  0.00    +0.000 C 
ATOM      4  N   UNL     1       4.662   4.413  17.886  0.00  0.00    +0.000 NA
ATOM      5  C   UNL     1       3.438   4.029  18.660  0.00  0.00    +0.000 C 
ATOM      6  C   UNL     1       2.195   4.950  18.350  0.00  0.00    +0.000 C 
ENDROOT
BRANCH   1   7
ATOM      7  C   UNL     1       2.423   6.783  20.043  0.00  0.00    +0.000 C 
BRANCH   7  10
ATOM      8  C   UNL     1       1.214   9.528  18.382  0.00  0.00    +0.000 C 
ATOM      9  C   UNL     1       1.072   9.096  19.802  0.00  0.00    +0.000 A 
ATOM     10  C   UNL     1       1.538   7.959  20.483  0.00  0.00    +0.000 A 
ATOM     11  N   UNL     1       1.103   8.090  21.797  0.00  0.00    +0.000 N 
ATOM     12  C   UNL     1       0.369   9.262  21.962  0.00  0.00    +0.000 A 
ATOM     13  C   UNL     1      -0.290   9.794  23.083  0.00  0.00    +0.000 A 
ATOM     14  C   UNL     1      -0.967  11.011  22.923  0.00  0.00    +0.000 A 
ATOM     15  C   UNL     1      -0.962  11.704  21.711  0.00  0.00    +0.000 A 
ATOM     16  C   UNL     1      -0.285  11.169  20.622  0.00  0.00    +0.000 A 
ATOM     17  C   UNL     1       0.366   9.915  20.741  0.00  0.00    +0.000 A 
ATOM     18  H   UNL     1       1.285   7.421  22.514  0.00  0.00    +0.000 HD
ENDBRANCH   7  10
ENDBRANCH   1   7
BRANCH   4  19
ATOM     19  C   UNL     1       4.647   4.075  16.427  0.00  0.00    +0.000 C 
BRANCH  19  20
ATOM     20  C   UNL     1       5.860   4.572  15.517  0.00  0.00    +0.000 C 
ATOM     21  C   UNL     1       7.189   4.471  16.295  0.00  0.00    +0.000 C 
ATOM     22  C   UNL     1       5.990   3.719  14.221  0.00  0.00    +0.000 C 
ATOM     23  C   UNL     1       5.678   6.020  15.034  0.00  0.00    +0.000 C 
ENDBRANCH  19  20
ENDBRANCH   4  19
BRANCH   5  24
ATOM     24  C   UNL     1       3.157   2.501  18.718  0.00  0.00    +0.000 C 
BRANCH  24  25
ATOM     25  C   UNL     1       1.766   2.214  19.312  0.00  0.00    +0.000 C 
BRANCH  25  26
ATOM     26  O   UNL     1       0.859   1.803  18.293  0.00  0.00    +0.000 OA
ATOM     27  H   UNL     1       1.368   1.336  17.610  0.00  0.00    +0.000 HD
ENDBRANCH  25  26
ENDBRANCH  24  25
ENDBRANCH   5  24
TORSDOF 7
ENDMDL
MODEL 3
REMARK VINA RESULT:      -7.2      3.344      9.355
REMARK  Name = 
REMARK  11 active torsions:
REMARK  status: ('A' for Active; 'I' for Inactive)
REMARK    1  A    between atoms: C_1  and  C_2
REMARK    2  A    between atoms: C_3  and  C_4
REMARK    3  A    between atoms: C_4  and  N_5
REMARK    4  A    between atoms: N_8  and  C_9
REMARK    5  A    between atoms: C_9  and  C_10
REMARK    6  A    between atoms: C_10  and  C_11
REMARK    7  A    between atoms: C_10  and  C_12
REMARK    8  A    between atoms: C_10  and  C_13
REMARK    9  A    between atoms: C_14  and  C_15
REMARK   10  A    between atoms: C_15  and  C_16
REMARK   11  A    between atoms: C_16  and  O_17
REMARK                            x       y       z     vdW  Elec       q    Type
REMARK                         _______ _______ _______ _____ _____    ______ ____
ROOT
ATOM      1  N   UNL     1      -0.047   8.878  20.993  0.00  0.00    +0.000 NA
ATOM      2  C   UNL     1      -0.538   9.053  22.375  0.00  0.00    +0.000 C 
ATOM      3  C   UNL     1      -0.265  10.442  22.987  0.00  0.00    +0.000 C 
ATOM      4  N   UNL     1      -0.784  11.621  22.257  0.00  0.00    +0.000 NA
ATOM      5  C   UNL     1      -0.208  11.486  20.880  0.00  0.00    +0.000 C 
ATOM      6  C   UNL     1      -0.517  10.088  20.215  0.00  0.00    +0.000 C 
ENDROOT
BRANCH   1   7
ATOM      7  C   UNL     1       1.433   8.688  20.930  0.00  0.00    +0.000 C 
BRANCH   7  10
ATOM      8  C   UNL     1       2.684   8.147  17.783  0.00  0.00    +0.000 C 
ATOM      9  C   UNL     1       2.423   7.209  18.913  0.00  0.00    +0.000 A 
ATOM     10  C   UNL     1       1.941   7.426  20.214  0.00  0.00    +0.000 A 
ATOM     11  N   UNL     1       1.902   6.178  20.825  0.00  0.00    +0.000 N 
ATOM     12  C   UNL     1       2.357   5.187  19.959  0.00  0.00    +0.000 A 
ATOM     13  C   UNL     1       2.531   3.804  20.139  0.00  0.00    +0.000 A 
ATOM     14  C   UNL     1       3.030   3.065  19.058  0.00  0.00    +0.000 A 
ATOM     15  C   UNL     1       3.313   3.658  17.826  0.00  0.00    +0.000 A 
ATOM     16  C   UNL     1       3.113   5.023  17.665  0.00  0.00    +0.000 A 
ATOM     17  C   UNL     1       2.656   5.805  18.756  0.00  0.00    +0.000 A 
ATOM     18  H   UNL     1       1.601   6.026  21.764  0.00  0.00    +0.000 HD
ENDBRANCH   7  10
ENDBRANCH   1   7
BRANCH   4  19
ATOM     19  C   UNL     1      -2.269  11.799  22.332  0.00  0.00    +0.000 C 
BRANCH  19  20
ATOM     20  C   UNL     1      -2.844  13.124  23.010  0.00  0.00    +0.000 C 
ATOM     21  C   UNL     1      -3.581  13.984  21.962  0.00  0.00    +0.000 C 
ATOM     22  C   UNL     1      -3.843  12.793  24.157  0.00  0.00    +0.000 C 
ATOM     23  C   UNL     1      -1.744  13.976  23.663  0.00  0.00    +0.000 C 
ENDBRANCH  19  20
ENDBRANCH   4  19
BRANCH   5  24
ATOM     24  C   UNL     1      -0.398  12.731  19.970  0.00  0.00    +0.000 C 
BRANCH  24  25
ATOM     25  C   UNL     1      -1.380  12.437  18.822  0.00  0.00    +0.000 C 
BRANCH  25  26
ATOM     26  O   UNL     1      -0.907  12.994  17.600  0.00  0.00    +0.000 OA
ATOM     27  H   UNL     1      -1.679  13.253  17.071  0.00  0.00    +0.000 HD
ENDBRANCH  25  26
ENDBRANCH  24  25
ENDBRANCH   5  24
TORSDOF 7
ENDMDL
MODEL 4
REMARK VINA RESULT:      -7.2      1.016      1.378
REMARK  Name = 
REMARK  11 active torsions:
REMARK  status: ('A' for Active; 'I' for Inactive)
REMARK    1  A    between atoms: C_1  and  C_2
REMARK    2  A    between atoms: C_3  and  C_4
REMARK    3  A    between atoms: C_4  and  N_5
REMARK    4  A    between atoms: N_8  and  C_9
REMARK    5  A    between atoms: C_9  and  C_10
REMARK    6  A    between atoms: C_10  and  C_11
REMARK    7  A    between atoms: C_10  and  C_12
REMARK    8  A    between atoms: C_10  and  C_13
REMARK    9  A    between atoms: C_14  and  C_15
REMARK   10  A    between atoms: C_15  and  C_16
REMARK   11  A    between atoms: C_16  and  O_17
REMARK                            x       y       z     vdW  Elec       q    Type
REMARK                         _______ _______ _______ _____ _____    ______ ____
ROOT
ATOM      1  N   UNL     1       2.199   6.594  18.935  0.00  0.00    +0.000 NA
ATOM      2  C   UNL     1       3.349   6.991  18.098  0.00  0.00    +0.000 C 
ATOM      3  C   UNL     1       4.668   6.259  18.419  0.00  0.00    +0.000 C 
ATOM      4  N   UNL     1       4.657   4.781  18.357  0.00  0.00    +0.000 NA
ATOM      5  C   UNL     1       3.547   4.378  19.279  0.00  0.00    +0.000 C 
ATOM      6  C   UNL     1       2.174   5.080  18.937  0.00  0.00    +0.000 C 
ENDROOT
BRANCH   1   7
ATOM      7  C   UNL     1       2.262   7.174  20.309  0.00  0.00    +0.000 C 
BRANCH   7  10
ATOM      8  C   UNL     1       0.982   9.705  18.382  0.00  0.00    +0.000 C 
ATOM      9  C   UNL     1       0.808   9.385  19.827  0.00  0.00    +0.000 A 
ATOM     10  C   UNL     1       1.302   8.334  20.618  0.00  0.00    +0.000 A 
ATOM     11  N   UNL     1       0.812   8.551  21.900  0.00  0.00    +0.000 N 
ATOM     12  C   UNL     1       0.014   9.692  21.940  0.00  0.00    +0.000 A 
ATOM     13  C   UNL     1      -0.714  10.279  22.989  0.00  0.00    +0.000 A 
ATOM     14  C   UNL     1      -1.443  11.442  22.703  0.00  0.00    +0.000 A 
ATOM     15  C   UNL     1      -1.426  12.031  21.437  0.00  0.00    +0.000 A 
ATOM     16  C   UNL     1      -0.682  11.444  20.422  0.00  0.00    +0.000 A 
ATOM     17  C   UNL     1       0.026  10.240  20.669  0.00  0.00    +0.000 A 
ATOM     18  H   UNL     1       0.999   7.954  22.677  0.00  0.00    +0.000 HD
ENDBRANCH   7  10
ENDBRANCH   1   7
BRANCH   4  19
ATOM     19  C   UNL     1       4.596   4.213  16.972  0.00  0.00    +0.000 C 
BRANCH  19  20
ATOM     20  C   UNL     1       5.742   4.609  15.934  0.00  0.00    +0.000 C 
ATOM     21  C   UNL     1       7.113   4.646  16.641  0.00  0.00    +0.000 C 
ATOM     22  C   UNL     1       5.827   3.591  14.760  0.00  0.00    +0.000 C 
ATOM     23  C   UNL     1       5.489   5.973  15.272  0.00  0.00    +0.000 C 
ENDBRANCH  19  20
ENDBRANCH   4  19
BRANCH   5  24
ATOM     24  C   UNL     1       3.476   2.858  19.590  0.00  0.00    +0.000 C 
BRANCH  24  25
ATOM     25  C   UNL     1       2.312   2.538  20.545  0.00  0.00    +0.000 C 
BRANCH  25  26
ATOM     26  O   UNL     1       2.753   2.552  21.899  0.00  0.00    +0.000 OA
ATOM     27  H   UNL     1       3.630   2.969  21.924  0.00  0.00    +0.000 HD
ENDBRANCH  25  26
ENDBRANCH  24  25
ENDBRANCH   5  24
TORSDOF 7
ENDMDL
MODEL 5
REMARK VINA RESULT:      -7.2      3.133      9.097
REMARK  Name = 
REMARK  11 active torsions:
REMARK  status: ('A' for Active; 'I' for Inactive)
REMARK    1  A    between atoms: C_1  and  C_2
REMARK    2  A    between atoms: C_3  and  C_4
REMARK    3  A    between atoms: C_4  and  N_5
REMARK    4  A    between atoms: N_8  and  C_9
REMARK    5  A    between atoms: C_9  and  C_10
REMARK    6  A    between atoms: C_10  and  C_11
REMARK    7  A    between atoms: C_10  and  C_12
REMARK    8  A    between atoms: C_10  and  C_13
REMARK    9  A    between atoms: C_14  and  C_15
REMARK   10  A    between atoms: C_15  and  C_16
REMARK   11  A    between atoms: C_16  and  O_17
REMARK                            x       y       z     vdW  Elec       q    Type
REMARK                         _______ _______ _______ _____ _____    ______ ____
ROOT
ATOM      1  N   UNL     1       0.300   8.705  20.737  0.00  0.00    +0.000 NA
ATOM      2  C   UNL     1      -0.632   8.907  21.865  0.00  0.00    +0.000 C 
ATOM      3  C   UNL     1      -0.306  10.117  22.764  0.00  0.00    +0.000 C 
ATOM      4  N   UNL     1      -0.216  11.444  22.114  0.00  0.00    +0.000 NA
ATOM      5  C   UNL     1       0.799  11.256  21.027  0.00  0.00    +0.000 C 
ATOM      6  C   UNL     1       0.458  10.052  20.064  0.00  0.00    +0.000 C 
ENDROOT
BRANCH   1   7
ATOM      7  C   UNL     1       1.603   8.116  21.168  0.00  0.00    +0.000 C 
BRANCH   7  10
ATOM      8  C   UNL     1       2.673   7.904  17.917  0.00  0.00    +0.000 C 
ATOM      9  C   UNL     1       2.559   6.869  18.985  0.00  0.00    +0.000 A 
ATOM     10  C   UNL     1       2.151   6.953  20.326  0.00  0.00    +0.000 A 
ATOM     11  N   UNL     1       2.246   5.664  20.840  0.00  0.00    +0.000 N 
ATOM     12  C   UNL     1       2.712   4.778  19.873  0.00  0.00    +0.000 A 
ATOM     13  C   UNL     1       2.998   3.403  19.934  0.00  0.00    +0.000 A 
ATOM     14  C   UNL     1       3.475   2.785  18.770  0.00  0.00    +0.000 A 
ATOM     15  C   UNL     1       3.629   3.487  17.572  0.00  0.00    +0.000 A 
ATOM     16  C   UNL     1       3.319   4.840  17.530  0.00  0.00    +0.000 A 
ATOM     17  C   UNL     1       2.882   5.502  18.706  0.00  0.00    +0.000 A 
ATOM     18  H   UNL     1       2.022   5.422  21.781  0.00  0.00    +0.000 HD
ENDBRANCH   7  10
ENDBRANCH   1   7
BRANCH   4  19
ATOM     19  C   UNL     1      -1.531  12.022  21.689  0.00  0.00    +0.000 C 
BRANCH  19  20
ATOM     20  C   UNL     1      -2.264  13.047  22.668  0.00  0.00    +0.000 C 
ATOM     21  C   UNL     1      -1.225  13.845  23.482  0.00  0.00    +0.000 C 
ATOM     22  C   UNL     1      -3.145  14.060  21.879  0.00  0.00    +0.000 C 
ATOM     23  C   UNL     1      -3.224  12.346  23.642  0.00  0.00    +0.000 C 
ENDBRANCH  19  20
ENDBRANCH   4  19
BRANCH   5  24
ATOM     24  C   UNL     1       1.267  12.568  20.338  0.00  0.00    +0.000 C 
BRANCH  24  25
ATOM     25  C   UNL     1       1.519  12.348  18.836  0.00  0.00    +0.000 C 
BRANCH  25  26
ATOM     26  O   UNL     1       0.470  12.921  18.061  0.00  0.00    +0.000 OA
ATOM     27  H   UNL     1       0.622  12.686  17.131  0.00  0.00    +0.000 HD
ENDBRANCH  25  26
ENDBRANCH  24  25
ENDBRANCH   5  24
TORSDOF 7
ENDMDL
MODEL 6
REMARK VINA RESULT:      -7.1      3.272      9.231
REMARK  Name = 
REMARK  11 active torsions:
REMARK  status: ('A' for Active; 'I' for Inactive)
REMARK    1  A    between atoms: C_1  and  C_2
REMARK    2  A    between atoms: C_3  and  C_4
REMARK    3  A    between atoms: C_4  and  N_5
REMARK    4  A    between atoms: N_8  and  C_9
REMARK    5  A    between atoms: C_9  and  C_10
REMARK    6  A    between atoms: C_10  and  C_11
REMARK    7  A    between atoms: C_10  and  C_12
REMARK    8  A    between atoms: C_10  and  C_13
REMARK    9  A    between atoms: C_14  and  C_15
REMARK   10  A    between atoms: C_15  and  C_16
REMARK   11  A    between atoms: C_16  and  O_17
REMARK                            x       y       z     vdW  Elec       q    Type
REMARK                         _______ _______ _______ _____ _____    ______ ____
ROOT
ATOM      1  N   UNL     1       0.109   8.739  20.978  0.00  0.00    +0.000 NA
ATOM      2  C   UNL     1      -0.594   9.004  22.249  0.00  0.00    +0.000 C 
ATOM      3  C   UNL     1      -0.227  10.340  22.926  0.00  0.00    +0.000 C 
ATOM      4  N   UNL     1      -0.414  11.577  22.135  0.00  0.00    +0.000 NA
ATOM      5  C   UNL     1       0.376  11.340  20.884  0.00  0.00    +0.000 C 
ATOM      6  C   UNL     1      -0.018  10.000  20.148  0.00  0.00    +0.000 C 
ENDROOT
BRANCH   1   7
ATOM      7  C   UNL     1       1.528   8.321  21.182  0.00  0.00    +0.000 C 
BRANCH   7  10
ATOM      8  C   UNL     1       2.612   8.020  17.944  0.00  0.00    +0.000 C 
ATOM      9  C   UNL     1       2.437   7.004  19.021  0.00  0.00    +0.000 A 
ATOM     10  C   UNL     1       2.024   7.123  20.358  0.00  0.00    +0.000 A 
ATOM     11  N   UNL     1       2.049   5.837  20.886  0.00  0.00    +0.000 N 
ATOM     12  C   UNL     1       2.478   4.917  19.933  0.00  0.00    +0.000 A 
ATOM     13  C   UNL     1       2.694   3.531  20.012  0.00  0.00    +0.000 A 
ATOM     14  C   UNL     1       3.149   2.877  18.858  0.00  0.00    +0.000 A 
ATOM     15  C   UNL     1       3.347   3.556  17.655  0.00  0.00    +0.000 A 
ATOM     16  C   UNL     1       3.107   4.923  17.595  0.00  0.00    +0.000 A 
ATOM     17  C   UNL     1       2.694   5.619  18.760  0.00  0.00    +0.000 A 
ATOM     18  H   UNL     1       1.805   5.617  21.828  0.00  0.00    +0.000 HD
ENDBRANCH   7  10
ENDBRANCH   1   7
BRANCH   4  19
ATOM     19  C   UNL     1      -1.842  11.985  21.940  0.00  0.00    +0.000 C 
BRANCH  19  20
ATOM     20  C   UNL     1      -2.402  13.223  22.777  0.00  0.00    +0.000 C 
ATOM     21  C   UNL     1      -3.065  14.249  21.834  0.00  0.00    +0.000 C 
ATOM     22  C   UNL     1      -3.461  12.773  23.826  0.00  0.00    +0.000 C 
ATOM     23  C   UNL     1      -1.304  13.931  23.585  0.00  0.00    +0.000 C 
ENDBRANCH  19  20
ENDBRANCH   4  19
BRANCH   5  24
ATOM     24  C   UNL     1       0.551  12.589  19.976  0.00  0.00    +0.000 C 
BRANCH  24  25
ATOM     25  C   UNL     1       1.814  13.381  20.356  0.00  0.00    +0.000 C 
BRANCH  25  26
ATOM     26  O   UNL     1       1.795  13.727  21.738  0.00  0.00    +0.000 OA
ATOM     27  H   UNL     1       1.027  13.293  22.144  0.00  0.00    +0.000 HD
ENDBRANCH  25  26
ENDBRANCH  24  25
ENDBRANCH   5  24
TORSDOF 7
ENDMDL
MODEL 7
REMARK VINA RESULT:      -7.1      1.190      2.107
REMARK  Name = 
REMARK  11 active torsions:
REMARK  status: ('A' for Active; 'I' for Inactive)
REMARK    1  A    between atoms: C_1  and  C_2
REMARK    2  A    between atoms: C_3  and  C_4
REMARK    3  A    between atoms: C_4  and  N_5
REMARK    4  A    between atoms: N_8  and  C_9
REMARK    5  A    between atoms: C_9  and  C_10
REMARK    6  A    between atoms: C_10  and  C_11
REMARK    7  A    between atoms: C_10  and  C_12
REMARK    8  A    between atoms: C_10  and  C_13
REMARK    9  A    between atoms: C_14  and  C_15
REMARK   10  A    between atoms: C_15  and  C_16
REMARK   11  A    between atoms: C_16  and  O_17
REMARK                            x       y       z     vdW  Elec       q    Type
REMARK                         _______ _______ _______ _____ _____    ______ ____
ROOT
ATOM      1  N   UNL     1       2.304   6.920  18.264  0.00  0.00    +0.000 NA
ATOM      2  C   UNL     1       3.616   7.160  17.630  0.00  0.00    +0.000 C 
ATOM      3  C   UNL     1       4.757   6.254  18.139  0.00  0.00    +0.000 C 
ATOM      4  N   UNL     1       4.559   4.791  18.040  0.00  0.00    +0.000 NA
ATOM      5  C   UNL     1       3.271   4.541  18.764  0.00  0.00    +0.000 C 
ATOM      6  C   UNL     1       2.077   5.423  18.225  0.00  0.00    +0.000 C 
ENDROOT
BRANCH   1   7
ATOM      7  C   UNL     1       2.222   7.482  19.644  0.00  0.00    +0.000 C 
BRANCH   7  10
ATOM      8  C   UNL     1       1.060   9.100  22.435  0.00  0.00    +0.000 C 
ATOM      9  C   UNL     1       0.849   9.368  20.983  0.00  0.00    +0.000 A 
ATOM     10  C   UNL     1       1.346   8.730  19.835  0.00  0.00    +0.000 A 
ATOM     11  N   UNL     1       0.808   9.414  18.750  0.00  0.00    +0.000 N 
ATOM     12  C   UNL     1       0.004  10.468  19.176  0.00  0.00    +0.000 A 
ATOM     13  C   UNL     1      -0.708  11.442  18.457  0.00  0.00    +0.000 A 
ATOM     14  C   UNL     1      -1.427  12.396  19.190  0.00  0.00    +0.000 A 
ATOM     15  C   UNL     1      -1.479  12.369  20.585  0.00  0.00    +0.000 A 
ATOM     16  C   UNL     1      -0.784  11.383  21.274  0.00  0.00    +0.000 A 
ATOM     17  C   UNL     1      -0.007  10.435  20.560  0.00  0.00    +0.000 A 
ATOM     18  H   UNL     1       0.994   9.182  17.798  0.00  0.00    +0.000 HD
ENDBRANCH   7  10
ENDBRANCH   1   7
BRANCH   4  19
ATOM     19  C   UNL     1       4.646   4.241  16.649  0.00  0.00    +0.000 C 
BRANCH  19  20
ATOM     20  C   UNL     1       5.918   4.612  15.761  0.00  0.00    +0.000 C 
ATOM     21  C   UNL     1       7.204   4.538  16.611  0.00  0.00    +0.000 C 
ATOM     22  C   UNL     1       6.077   3.641  14.554  0.00  0.00    +0.000 C 
ATOM     23  C   UNL     1       5.814   6.016  15.143  0.00  0.00    +0.000 C 
ENDBRANCH  19  20
ENDBRANCH   4  19
BRANCH   5  24
ATOM     24  C   UNL     1       2.948   3.043  19.022  0.00  0.00    +0.000 C 
BRANCH  24  25
ATOM     25  C   UNL     1       3.816   2.475  20.159  0.00  0.00    +0.000 C 
BRANCH  25  26
ATOM     26  O   UNL     1       5.144   2.233  19.705  0.00  0.00    +0.000 OA
ATOM     27  H   UNL     1       5.756   2.626  20.348  0.00  0.00    +0.000 HD
ENDBRANCH  25  26
ENDBRANCH  24  25
ENDBRANCH   5  24
TORSDOF 7
ENDMDL
MODEL 8
REMARK VINA RESULT:      -7.0      3.480      9.398
REMARK  Name = 
REMARK  11 active torsions:
REMARK  status: ('A' for Active; 'I' for Inactive)
REMARK    1  A    between atoms: C_1  and  C_2
REMARK    2  A    between atoms: C_3  and  C_4
REMARK    3  A    between atoms: C_4  and  N_5
REMARK    4  A    between atoms: N_8  and  C_9
REMARK    5  A    between atoms: C_9  and  C_10
REMARK    6  A    between atoms: C_10  and  C_11
REMARK    7  A    between atoms: C_10  and  C_12
REMARK    8  A    between atoms: C_10  and  C_13
REMARK    9  A    between atoms: C_14  and  C_15
REMARK   10  A    between atoms: C_15  and  C_16
REMARK   11  A    between atoms: C_16  and  O_17
REMARK                            x       y       z     vdW  Elec       q    Type
REMARK                         _______ _______ _______ _____ _____    ______ ____
ROOT
ATOM      1  N   UNL     1       0.150   9.109  20.711  0.00  0.00    +0.000 NA
ATOM      2  C   UNL     1      -0.617   9.066  21.972  0.00  0.00    +0.000 C 
ATOM      3  C   UNL     1      -0.338  10.234  22.940  0.00  0.00    +0.000 C 
ATOM      4  N   UNL     1      -0.544  11.607  22.427  0.00  0.00    +0.000 NA
ATOM      5  C   UNL     1       0.309  11.675  21.197  0.00  0.00    +0.000 C 
ATOM      6  C   UNL     1       0.005  10.516  20.169  0.00  0.00    +0.000 C 
ENDROOT
BRANCH   1   7
ATOM      7  C   UNL     1       1.576   8.703  20.892  0.00  0.00    +0.000 C 
BRANCH   7  10
ATOM      8  C   UNL     1       2.720   8.041  17.728  0.00  0.00    +0.000 C 
ATOM      9  C   UNL     1       2.461   7.142  18.889  0.00  0.00    +0.000 A 
ATOM     10  C   UNL     1       2.022   7.408  20.197  0.00  0.00    +0.000 A 
ATOM     11  N   UNL     1       1.961   6.178  20.841  0.00  0.00    +0.000 N 
ATOM     12  C   UNL     1       2.360   5.151  19.990  0.00  0.00    +0.000 A 
ATOM     13  C   UNL     1       2.494   3.768  20.202  0.00  0.00    +0.000 A 
ATOM     14  C   UNL     1       2.939   2.985  19.128  0.00  0.00    +0.000 A 
ATOM     15  C   UNL     1       3.205   3.537  17.873  0.00  0.00    +0.000 A 
ATOM     16  C   UNL     1       3.045   4.903  17.681  0.00  0.00    +0.000 A 
ATOM     17  C   UNL     1       2.644   5.727  18.764  0.00  0.00    +0.000 A 
ATOM     18  H   UNL     1       1.683   6.060  21.792  0.00  0.00    +0.000 HD
ENDBRANCH   7  10
ENDBRANCH   1   7
BRANCH   4  19
ATOM     19  C   UNL     1      -1.979  12.000  22.252  0.00  0.00    +0.000 C 
BRANCH  19  20
ATOM     20  C   UNL     1      -2.511  13.298  23.013  0.00  0.00    +0.000 C 
ATOM     21  C   UNL     1      -3.628  12.915  24.006  0.00  0.00    +0.000 C 
ATOM     22  C   UNL     1      -1.373  14.002  23.809  0.00  0.00    +0.000 C 
ATOM     23  C   UNL     1      -3.052  14.365  22.047  0.00  0.00    +0.000 C 
ENDBRANCH  19  20
ENDBRANCH   4  19
BRANCH   5  24
ATOM     24  C   UNL     1       0.468  13.097  20.591  0.00  0.00    +0.000 C 
BRANCH  24  25
ATOM     25  C   UNL     1      -0.049  13.147  19.143  0.00  0.00    +0.000 C 
BRANCH  25  26
ATOM     26  O   UNL     1      -1.343  13.741  19.092  0.00  0.00    +0.000 OA
ATOM     27  H   UNL     1      -1.596  13.827  18.158  0.00  0.00    +0.000 HD
ENDBRANCH  25  26
ENDBRANCH  24  25
ENDBRANCH   5  24
TORSDOF 7
ENDMDL
MODEL 9
REMARK VINA RESULT:      -6.8      2.780      9.118
REMARK  Name = 
REMARK  11 active torsions:
REMARK  status: ('A' for Active; 'I' for Inactive)
REMARK    1  A    between atoms: C_1  and  C_2
REMARK    2  A    between atoms: C_3  and  C_4
REMARK    3  A    between atoms: C_4  and  N_5
REMARK    4  A    between atoms: N_8  and  C_9
REMARK    5  A    between atoms: C_9  and  C_10
REMARK    6  A    between atoms: C_10  and  C_11
REMARK    7  A    between atoms: C_10  and  C_12
REMARK    8  A    between atoms: C_10  and  C_13
REMARK    9  A    between atoms: C_14  and  C_15
REMARK   10  A    between atoms: C_15  and  C_16
REMARK   11  A    between atoms: C_16  and  O_17
REMARK                            x       y       z     vdW  Elec       q    Type
REMARK                         _______ _______ _______ _____ _____    ______ ____
ROOT
ATOM      1  N   UNL     1       0.463   8.698  20.316  0.00  0.00    +0.000 NA
ATOM      2  C   UNL     1      -0.444   8.868  21.470  0.00  0.00    +0.000 C 
ATOM      3  C   UNL     1      -0.087  10.041  22.405  0.00  0.00    +0.000 C 
ATOM      4  N   UNL     1       0.002  11.390  21.802  0.00  0.00    +0.000 NA
ATOM      5  C   UNL     1       0.992  11.232  20.688  0.00  0.00    +0.000 C 
ATOM      6  C   UNL     1       0.620  10.068  19.689  0.00  0.00    +0.000 C 
ENDROOT
BRANCH   1   7
ATOM      7  C   UNL     1       1.768   8.082  20.697  0.00  0.00    +0.000 C 
BRANCH   7  10
ATOM      8  C   UNL     1       1.349   4.680  20.634  0.00  0.00    +0.000 C 
ATOM      9  C   UNL     1       2.161   5.587  19.773  0.00  0.00    +0.000 A 
ATOM     10  C   UNL     1       2.314   6.983  19.772  0.00  0.00    +0.000 A 
ATOM     11  N   UNL     1       3.201   7.274  18.742  0.00  0.00    +0.000 N 
ATOM     12  C   UNL     1       3.598   6.112  18.086  0.00  0.00    +0.000 A 
ATOM     13  C   UNL     1       4.441   5.912  16.979  0.00  0.00    +0.000 A 
ATOM     14  C   UNL     1       4.636   4.595  16.540  0.00  0.00    +0.000 A 
ATOM     15  C   UNL     1       4.054   3.505  17.191  0.00  0.00    +0.000 A 
ATOM     16  C   UNL     1       3.242   3.726  18.296  0.00  0.00    +0.000 A 
ATOM     17  C   UNL     1       2.986   5.051  18.733  0.00  0.00    +0.000 A 
ATOM     18  H   UNL     1       3.494   8.197  18.503  0.00  0.00    +0.000 HD
ENDBRANCH   7  10
ENDBRANCH   1   7
BRANCH   4  19
ATOM     19  C   UNL     1      -1.315  11.995  21.426  0.00  0.00    +0.000 C 
BRANCH  19  20
ATOM     20  C   UNL     1      -2.041  12.954  22.476  0.00  0.00    +0.000 C 
ATOM     21  C   UNL     1      -0.994  13.710  23.321  0.00  0.00    +0.000 C 
ATOM     22  C   UNL     1      -2.943  14.004  21.764  0.00  0.00    +0.000 C 
ATOM     23  C   UNL     1      -2.979  12.187  23.422  0.00  0.00    +0.000 C 
ENDBRANCH  19  20
ENDBRANCH   4  19
BRANCH   5  24
ATOM     24  C   UNL     1       1.458  12.564  20.037  0.00  0.00    +0.000 C 
BRANCH  24  25
ATOM     25  C   UNL     1       1.089  12.613  18.544  0.00  0.00    +0.000 C 
BRANCH  25  26
ATOM     26  O   UNL     1       2.259  12.553  17.734  0.00  0.00    +0.000 OA
ATOM     27  H   UNL     1       2.944  12.079  18.232  0.00  0.00    +0.000 HD
ENDBRANCH  25  26
ENDBRANCH  24  25
ENDBRANCH   5  24
TORSDOF 7
ENDMDL
