MODEL 1
REMARK VINA RESULT:      -7.7      0.000      0.000
REMARK  Name = 
REMARK  6 active torsions:
REMARK  status: ('A' for Active; 'I' for Inactive)
REMARK    1  A    between atoms: O_1  and  N_2
REMARK    2  A    between atoms: C_3  and  C_4
REMARK    3  A    between atoms: N_8  and  C_9
REMARK    4  A    between atoms: C_12  and  N_13
REMARK    5  A    between atoms: C_17  and  C_18
REMARK    6  A    between atoms: N_19  and  O_20
REMARK                            x       y       z     vdW  Elec       q    Type
REMARK                         _______ _______ _______ _____ _____    ______ ____
ROOT
ATOM      1  C   UNL     1       2.896   7.095  18.319  0.00  0.00    +0.000 A 
ATOM      2  C   UNL     1       2.545   8.259  17.652  0.00  0.00    +0.000 A 
ATOM      3  C   UNL     1       1.738   9.147  18.434  0.00  0.00    +0.000 A 
ATOM      4  C   UNL     1       1.498   8.680  19.715  0.00  0.00    +0.000 A 
ATOM      5  S   UNL     1       2.182   7.109  19.887  0.00  0.00    +0.000 S 
ENDROOT
BRANCH   1  10
ATOM      6  C   UNL     1       5.234   5.219  16.181  0.00  0.00    +0.000 A 
ATOM      7  C   UNL     1       4.872   3.904  16.434  0.00  0.00    +0.000 A 
ATOM      8  C   UNL     1       3.925   3.648  17.408  0.00  0.00    +0.000 A 
ATOM      9  C   UNL     1       3.312   4.728  18.053  0.00  0.00    +0.000 A 
ATOM     10  N   UNL     1       3.652   6.022  17.774  0.00  0.00    +0.000 N 
ATOM     11  C   UNL     1       4.665   6.262  16.891  0.00  0.00    +0.000 A 
BRANCH   6  13
ATOM     12  N   UNL     1       7.334   5.142  15.104  0.00  0.00    +0.000 NA
ATOM     13  C   UNL     1       6.105   5.537  15.052  0.00  0.00    +0.000 C 
BRANCH  12  14
ATOM     14  O   UNL     1       8.015   5.642  13.984  0.00  0.00    +0.000 OA
ATOM     15  H   UNL     1       7.278   5.869  13.350  0.00  0.00    +0.000 HD
ENDBRANCH  12  14
ENDBRANCH   6  13
ENDBRANCH   1  10
BRANCH   4  16
ATOM     16  N   UNL     1       0.802   9.379  20.747  0.00  0.00    +0.000 N 
ATOM     17  C   UNL     1       0.845   8.939  22.035  0.00  0.00    +0.000 A 
ATOM     18  C   UNL     1       0.107   9.562  23.043  0.00  0.00    +0.000 A 
ATOM     19  C   UNL     1      -0.686  10.667  22.740  0.00  0.00    +0.000 A 
ATOM     20  C   UNL     1      -0.718  11.111  21.437  0.00  0.00    +0.000 A 
ATOM     21  C   UNL     1       0.036  10.468  20.453  0.00  0.00    +0.000 A 
BRANCH  20  22
ATOM     22  C   UNL     1      -1.548  12.268  21.081  0.00  0.00    +0.000 C 
ATOM     23  N   UNL     1      -2.218  12.280  19.976  0.00  0.00    +0.000 NA
BRANCH  23  24
ATOM     24  O   UNL     1      -2.920  13.487  19.905  0.00  0.00    +0.000 OA
ATOM     25  H   UNL     1      -3.838  13.209  19.722  0.00  0.00    +0.000 HD
ENDBRANCH  23  24
ENDBRANCH  20  22
ENDBRANCH   4  16
TORSDOF 6
ENDMDL
MODEL 2
REMARK VINA RESULT:      -7.4      0.626      9.016
REMARK  Name = 
REMARK  6 active torsions:
REMARK  status: ('A' for Active; 'I' for Inactive)
REMARK    1  A    between atoms: O_1  and  N_2
REMARK    2  A    between atoms: C_3  and  C_4
REMARK    3  A    between atoms: N_8  and  C_9
REMARK    4  A    between atoms: C_12  and  N_13
REMARK    5  A    between atoms: C_17  and  C_18
REMARK    6  A    between atoms: N_19  and  O_20
REMARK                            x       y       z     vdW  Elec       q    Type
REMARK                         _______ _______ _______ _____ _____    ______ ____
ROOT
ATOM      1  C   UNL     1       1.141   8.887  19.778  0.00  0.00    +0.000 A 
ATOM      2  C   UNL     1       1.468   9.405  18.533  0.00  0.00    +0.000 A 
ATOM      3  C   UNL     1       2.287   8.534  17.745  0.00  0.00    +0.000 A 
ATOM      4  C   UNL     1       2.561   7.330  18.372  0.00  0.00    +0.000 A 
ATOM      5  S   UNL     1       1.892   7.347  19.958  0.00  0.00    +0.000 S 
ENDROOT
BRANCH   1  10
ATOM      6  C   UNL     1      -0.814  11.475  21.521  0.00  0.00    +0.000 A 
ATOM      7  C   UNL     1      -0.794  11.023  22.832  0.00  0.00    +0.000 A 
ATOM      8  C   UNL     1      -0.225   9.793  23.106  0.00  0.00    +0.000 A 
ATOM      9  C   UNL     1       0.375   9.080  22.063  0.00  0.00    +0.000 A 
ATOM     10  N   UNL     1       0.379   9.548  20.778  0.00  0.00    +0.000 N 
ATOM     11  C   UNL     1      -0.280  10.710  20.498  0.00  0.00    +0.000 A 
BRANCH   6  13
ATOM     12  N   UNL     1      -1.490  13.135  19.984  0.00  0.00    +0.000 NA
ATOM     13  C   UNL     1      -1.256  12.833  21.218  0.00  0.00    +0.000 C 
BRANCH  12  14
ATOM     14  O   UNL     1      -1.792  14.502  19.904  0.00  0.00    +0.000 OA
ATOM     15  H   UNL     1      -1.752  14.690  18.924  0.00  0.00    +0.000 HD
ENDBRANCH  12  14
ENDBRANCH   6  13
ENDBRANCH   1  10
BRANCH   4  16
ATOM     16  N   UNL     1       3.277   6.234  17.805  0.00  0.00    +0.000 N 
ATOM     17  C   UNL     1       2.813   4.959  17.935  0.00  0.00    +0.000 A 
ATOM     18  C   UNL     1       3.539   3.867  17.457  0.00  0.00    +0.000 A 
ATOM     19  C   UNL     1       4.761   4.071  16.820  0.00  0.00    +0.000 A 
ATOM     20  C   UNL     1       5.219   5.363  16.684  0.00  0.00    +0.000 A 
ATOM     21  C   UNL     1       4.467   6.434  17.169  0.00  0.00    +0.000 A 
BRANCH  20  22
ATOM     22  C   UNL     1       6.506   5.614  16.024  0.00  0.00    +0.000 C 
ATOM     23  N   UNL     1       6.687   5.280  14.789  0.00  0.00    +0.000 NA
BRANCH  23  24
ATOM     24  O   UNL     1       7.986   5.645  14.424  0.00  0.00    +0.000 OA
ATOM     25  H   UNL     1       7.904   6.593  14.201  0.00  0.00    +0.000 HD
ENDBRANCH  23  24
ENDBRANCH  20  22
ENDBRANCH   4  16
TORSDOF 6
ENDMDL
MODEL 3
REMARK VINA RESULT:      -7.3      1.226      8.997
REMARK  Name = 
REMARK  6 active torsions:
REMARK  status: ('A' for Active; 'I' for Inactive)
REMARK    1  A    between atoms: O_1  and  N_2
REMARK    2  A    between atoms: C_3  and  C_4
REMARK    3  A    between atoms: N_8  and  C_9
REMARK    4  A    between atoms: C_12  and  N_13
REMARK    5  A    between atoms: C_17  and  C_18
REMARK    6  A    between atoms: N_19  and  O_20
REMARK                            x       y       z     vdW  Elec       q    Type
REMARK                         _______ _______ _______ _____ _____    ______ ____
ROOT
ATOM      1  C   UNL     1       1.371   8.734  19.654  0.00  0.00    +0.000 A 
ATOM      2  C   UNL     1       1.751   9.259  18.428  0.00  0.00    +0.000 A 
ATOM      3  C   UNL     1       2.580   8.379  17.659  0.00  0.00    +0.000 A 
ATOM      4  C   UNL     1       2.808   7.164  18.281  0.00  0.00    +0.000 A 
ATOM      5  S   UNL     1       2.085   7.177  19.843  0.00  0.00    +0.000 S 
ENDROOT
BRANCH   1  10
ATOM      6  C   UNL     1      -0.269  11.424  21.558  0.00  0.00    +0.000 A 
ATOM      7  C   UNL     1      -0.620  10.779  22.735  0.00  0.00    +0.000 A 
ATOM      8  C   UNL     1      -0.409   9.416  22.837  0.00  0.00    +0.000 A 
ATOM      9  C   UNL     1       0.217   8.750  21.778  0.00  0.00    +0.000 A 
ATOM     10  N   UNL     1       0.589   9.400  20.635  0.00  0.00    +0.000 N 
ATOM     11  C   UNL     1       0.278  10.723  20.498  0.00  0.00    +0.000 A 
BRANCH   6  13
ATOM     12  N   UNL     1       0.710  13.551  21.866  0.00  0.00    +0.000 NA
ATOM     13  C   UNL     1      -0.324  12.882  21.476  0.00  0.00    +0.000 C 
BRANCH  12  14
ATOM     14  O   UNL     1       0.408  14.920  21.807  0.00  0.00    +0.000 OA
ATOM     15  H   UNL     1       1.186  15.347  22.266  0.00  0.00    +0.000 HD
ENDBRANCH  12  14
ENDBRANCH   6  13
ENDBRANCH   1  10
BRANCH   4  16
ATOM     16  N   UNL     1       3.521   6.059  17.726  0.00  0.00    +0.000 N 
ATOM     17  C   UNL     1       3.375   4.807  18.244  0.00  0.00    +0.000 A 
ATOM     18  C   UNL     1       4.124   3.729  17.768  0.00  0.00    +0.000 A 
ATOM     19  C   UNL     1       5.035   3.922  16.732  0.00  0.00    +0.000 A 
ATOM     20  C   UNL     1       5.171   5.187  16.207  0.00  0.00    +0.000 A 
ATOM     21  C   UNL     1       4.404   6.243  16.703  0.00  0.00    +0.000 A 
BRANCH  20  22
ATOM     22  C   UNL     1       6.127   5.427  15.120  0.00  0.00    +0.000 C 
ATOM     23  N   UNL     1       7.398   5.324  15.329  0.00  0.00    +0.000 NA
BRANCH  23  24
ATOM     24  O   UNL     1       8.061   5.592  14.127  0.00  0.00    +0.000 OA
ATOM     25  H   UNL     1       7.365   5.480  13.451  0.00  0.00    +0.000 HD
ENDBRANCH  23  24
ENDBRANCH  20  22
ENDBRANCH   4  16
TORSDOF 6
ENDMDL
MODEL 4
REMARK VINA RESULT:      -7.2      2.087      2.519
REMARK  Name = 
REMARK  6 active torsions:
REMARK  status: ('A' for Active; 'I' for Inactive)
REMARK    1  A    between atoms: O_1  and  N_2
REMARK    2  A    between atoms: C_3  and  C_4
REMARK    3  A    between atoms: N_8  and  C_9
REMARK    4  A    between atoms: C_12  and  N_13
REMARK    5  A    between atoms: C_17  and  C_18
REMARK    6  A    between atoms: N_19  and  O_20
REMARK                            x       y       z     vdW  Elec       q    Type
REMARK                         _______ _______ _______ _____ _____    ______ ____
ROOT
ATOM      1  C   UNL     1       2.613   7.624  18.388  0.00  0.00    +0.000 A 
ATOM      2  C   UNL     1       2.150   8.771  17.759  0.00  0.00    +0.000 A 
ATOM      3  C   UNL     1       1.317   9.586  18.591  0.00  0.00    +0.000 A 
ATOM      4  C   UNL     1       1.167   9.081  19.872  0.00  0.00    +0.000 A 
ATOM      5  S   UNL     1       1.968   7.562  19.985  0.00  0.00    +0.000 S 
ENDROOT
BRANCH   1  10
ATOM      6  C   UNL     1       4.294   4.400  17.808  0.00  0.00    +0.000 A 
ATOM      7  C   UNL     1       5.263   4.738  16.875  0.00  0.00    +0.000 A 
ATOM      8  C   UNL     1       5.273   6.021  16.359  0.00  0.00    +0.000 A 
ATOM      9  C   UNL     1       4.351   6.952  16.848  0.00  0.00    +0.000 A 
ATOM     10  N   UNL     1       3.419   6.619  17.791  0.00  0.00    +0.000 N 
ATOM     11  C   UNL     1       3.346   5.323  18.216  0.00  0.00    +0.000 A 
BRANCH   6  13
ATOM     12  N   UNL     1       4.985   3.054  19.621  0.00  0.00    +0.000 NA
ATOM     13  C   UNL     1       4.353   3.112  18.495  0.00  0.00    +0.000 C 
BRANCH  12  14
ATOM     14  O   UNL     1       5.015   1.718  20.050  0.00  0.00    +0.000 OA
ATOM     15  H   UNL     1       5.991   1.516  20.103  0.00  0.00    +0.000 HD
ENDBRANCH  12  14
ENDBRANCH   6  13
ENDBRANCH   1  10
BRANCH   4  16
ATOM     16  N   UNL     1       0.468   9.712  20.945  0.00  0.00    +0.000 N 
ATOM     17  C   UNL     1       0.445   9.149  22.185  0.00  0.00    +0.000 A 
ATOM     18  C   UNL     1      -0.298   9.708  23.226  0.00  0.00    +0.000 A 
ATOM     19  C   UNL     1      -1.029  10.874  23.008  0.00  0.00    +0.000 A 
ATOM     20  C   UNL     1      -0.994  11.442  21.754  0.00  0.00    +0.000 A 
ATOM     21  C   UNL     1      -0.237  10.860  20.736  0.00  0.00    +0.000 A 
BRANCH  20  22
ATOM     22  C   UNL     1      -1.757  12.667  21.488  0.00  0.00    +0.000 C 
ATOM     23  N   UNL     1      -3.019  12.608  21.211  0.00  0.00    +0.000 NA
BRANCH  23  24
ATOM     24  O   UNL     1      -3.485  13.911  21.018  0.00  0.00    +0.000 OA
ATOM     25  H   UNL     1      -3.947  13.865  20.159  0.00  0.00    +0.000 HD
ENDBRANCH  23  24
ENDBRANCH  20  22
ENDBRANCH   4  16
TORSDOF 6
ENDMDL
MODEL 5
REMARK VINA RESULT:      -7.2      2.289      8.709
REMARK  Name = 
REMARK  6 active torsions:
REMARK  status: ('A' for Active; 'I' for Inactive)
REMARK    1  A    between atoms: O_1  and  N_2
REMARK    2  A    between atoms: C_3  and  C_4
REMARK    3  A    between atoms: N_8  and  C_9
REMARK    4  A    between atoms: C_12  and  N_13
REMARK    5  A    between atoms: C_17  and  C_18
REMARK    6  A    between atoms: N_19  and  O_20
REMARK                            x       y       z     vdW  Elec       q    Type
REMARK                         _______ _______ _______ _____ _____    ______ ____
ROOT
ATOM      1  C   UNL     1       1.244   9.267  19.157  0.00  0.00    +0.000 A 
ATOM      2  C   UNL     1       1.290   8.501  20.313  0.00  0.00    +0.000 A 
ATOM      3  C   UNL     1       2.112   7.334  20.196  0.00  0.00    +0.000 A 
ATOM      4  C   UNL     1       2.724   7.221  18.959  0.00  0.00    +0.000 A 
ATOM      5  S   UNL     1       2.187   8.497  17.937  0.00  0.00    +0.000 S 
ENDROOT
BRANCH   1  10
ATOM      6  C   UNL     1      -1.443  11.542  18.078  0.00  0.00    +0.000 A 
ATOM      7  C   UNL     1      -0.869  12.788  18.277  0.00  0.00    +0.000 A 
ATOM      8  C   UNL     1       0.373  12.863  18.880  0.00  0.00    +0.000 A 
ATOM      9  C   UNL     1       1.037  11.675  19.204  0.00  0.00    +0.000 A 
ATOM     10  N   UNL     1       0.477  10.449  18.975  0.00  0.00    +0.000 N 
ATOM     11  C   UNL     1      -0.794  10.387  18.480  0.00  0.00    +0.000 A 
BRANCH   6  13
ATOM     12  N   UNL     1      -2.579  10.986  16.084  0.00  0.00    +0.000 NA
ATOM     13  C   UNL     1      -2.672  11.414  17.299  0.00  0.00    +0.000 C 
BRANCH  12  14
ATOM     14  O   UNL     1      -3.848  11.044  15.488  0.00  0.00    +0.000 OA
ATOM     15  H   UNL     1      -4.262  11.851  15.906  0.00  0.00    +0.000 HD
ENDBRANCH  12  14
ENDBRANCH   6  13
ENDBRANCH   1  10
BRANCH   4  16
ATOM     16  N   UNL     1       3.661   6.215  18.576  0.00  0.00    +0.000 N 
ATOM     17  C   UNL     1       3.961   5.188  19.419  0.00  0.00    +0.000 A 
ATOM     18  C   UNL     1       4.933   4.239  19.096  0.00  0.00    +0.000 A 
ATOM     19  C   UNL     1       5.612   4.328  17.883  0.00  0.00    +0.000 A 
ATOM     20  C   UNL     1       5.298   5.363  17.032  0.00  0.00    +0.000 A 
ATOM     21  C   UNL     1       4.317   6.293  17.383  0.00  0.00    +0.000 A 
BRANCH  20  22
ATOM     22  C   UNL     1       5.998   5.491  15.749  0.00  0.00    +0.000 C 
ATOM     23  N   UNL     1       7.288   5.430  15.695  0.00  0.00    +0.000 NA
BRANCH  23  24
ATOM     24  O   UNL     1       7.677   5.567  14.360  0.00  0.00    +0.000 OA
ATOM     25  H   UNL     1       8.648   5.467  14.391  0.00  0.00    +0.000 HD
ENDBRANCH  23  24
ENDBRANCH  20  22
ENDBRANCH   4  16
TORSDOF 6
ENDMDL
MODEL 6
REMARK VINA RESULT:      -7.2      1.734      2.130
REMARK  Name = 
REMARK  6 active torsions:
REMARK  status: ('A' for Active; 'I' for Inactive)
REMARK    1  A    between atoms: O_1  and  N_2
REMARK    2  A    between atoms: C_3  and  C_4
REMARK    3  A    between atoms: N_8  and  C_9
REMARK    4  A    between atoms: C_12  and  N_13
REMARK    5  A    between atoms: C_17  and  C_18
REMARK    6  A    between atoms: N_19  and  O_20
REMARK                            x       y       z     vdW  Elec       q    Type
REMARK                         _______ _______ _______ _____ _____    ______ ____
ROOT
ATOM      1  C   UNL     1       2.621   6.788  18.779  0.00  0.00    +0.000 A 
ATOM      2  C   UNL     1       2.221   6.748  20.106  0.00  0.00    +0.000 A 
ATOM      3  C   UNL     1       1.514   7.920  20.528  0.00  0.00    +0.000 A 
ATOM      4  C   UNL     1       1.341   8.846  19.514  0.00  0.00    +0.000 A 
ATOM      5  S   UNL     1       2.147   8.297  18.096  0.00  0.00    +0.000 S 
ENDROOT
BRANCH   1  10
ATOM      6  C   UNL     1       5.057   5.185  16.530  0.00  0.00    +0.000 A 
ATOM      7  C   UNL     1       4.612   3.871  16.505  0.00  0.00    +0.000 A 
ATOM      8  C   UNL     1       3.568   3.505  17.333  0.00  0.00    +0.000 A 
ATOM      9  C   UNL     1       2.949   4.487  18.114  0.00  0.00    +0.000 A 
ATOM     10  N   UNL     1       3.373   5.786  18.108  0.00  0.00    +0.000 N 
ATOM     11  C   UNL     1       4.474   6.117  17.372  0.00  0.00    +0.000 A 
BRANCH   6  13
ATOM     12  N   UNL     1       6.859   4.775  15.060  0.00  0.00    +0.000 NA
ATOM     13  C   UNL     1       6.043   5.646  15.556  0.00  0.00    +0.000 C 
BRANCH  12  14
ATOM     14  O   UNL     1       7.783   5.440  14.240  0.00  0.00    +0.000 OA
ATOM     15  H   UNL     1       8.153   6.149  14.838  0.00  0.00    +0.000 HD
ENDBRANCH  12  14
ENDBRANCH   6  13
ENDBRANCH   1  10
BRANCH   4  16
ATOM     16  N   UNL     1       0.605  10.066  19.609  0.00  0.00    +0.000 N 
ATOM     17  C   UNL     1       0.793  10.910  20.661  0.00  0.00    +0.000 A 
ATOM     18  C   UNL     1       0.027  12.067  20.813  0.00  0.00    +0.000 A 
ATOM     19  C   UNL     1      -0.946  12.384  19.868  0.00  0.00    +0.000 A 
ATOM     20  C   UNL     1      -1.124  11.530  18.802  0.00  0.00    +0.000 A 
ATOM     21  C   UNL     1      -0.338  10.383  18.677  0.00  0.00    +0.000 A 
BRANCH  20  22
ATOM     22  C   UNL     1      -2.145  11.829  17.791  0.00  0.00    +0.000 C 
ATOM     23  N   UNL     1      -2.307  11.052  16.771  0.00  0.00    +0.000 NA
BRANCH  23  24
ATOM     24  O   UNL     1      -3.345  11.568  15.990  0.00  0.00    +0.000 OA
ATOM     25  H   UNL     1      -3.152  11.226  15.095  0.00  0.00    +0.000 HD
ENDBRANCH  23  24
ENDBRANCH  20  22
ENDBRANCH   4  16
TORSDOF 6
ENDMDL
MODEL 7
REMARK VINA RESULT:      -7.1      2.808      3.316
REMARK  Name = 
REMARK  6 active torsions:
REMARK  status: ('A' for Active; 'I' for Inactive)
REMARK    1  A    between atoms: O_1  and  N_2
REMARK    2  A    between atoms: C_3  and  C_4
REMARK    3  A    between atoms: N_8  and  C_9
REMARK    4  A    between atoms: C_12  and  N_13
REMARK    5  A    between atoms: C_17  and  C_18
REMARK    6  A    between atoms: N_19  and  O_20
REMARK                            x       y       z     vdW  Elec       q    Type
REMARK                         _______ _______ _______ _____ _____    ______ ____
ROOT
ATOM      1  C   UNL     1       2.414   7.148  19.026  0.00  0.00    +0.000 A 
ATOM      2  C   UNL     1       1.920   7.468  20.283  0.00  0.00    +0.000 A 
ATOM      3  C   UNL     1       1.206   8.709  20.320  0.00  0.00    +0.000 A 
ATOM      4  C   UNL     1       1.122   9.326  19.084  0.00  0.00    +0.000 A 
ATOM      5  S   UNL     1       2.017   8.416  17.929  0.00  0.00    +0.000 S 
ENDROOT
BRANCH   1  10
ATOM      6  C   UNL     1       5.317   4.926  18.590  0.00  0.00    +0.000 A 
ATOM      7  C   UNL     1       4.807   3.937  17.762  0.00  0.00    +0.000 A 
ATOM      8  C   UNL     1       3.460   3.957  17.449  0.00  0.00    +0.000 A 
ATOM      9  C   UNL     1       2.675   5.015  17.919  0.00  0.00    +0.000 A 
ATOM     10  N   UNL     1       3.193   6.004  18.708  0.00  0.00    +0.000 N 
ATOM     11  C   UNL     1       4.497   5.917  19.103  0.00  0.00    +0.000 A 
BRANCH   6  13
ATOM     12  N   UNL     1       7.175   5.253  20.010  0.00  0.00    +0.000 NA
ATOM     13  C   UNL     1       6.757   5.031  18.808  0.00  0.00    +0.000 C 
BRANCH  12  14
ATOM     14  O   UNL     1       8.567   5.427  19.979  0.00  0.00    +0.000 OA
ATOM     15  H   UNL     1       8.810   5.510  20.944  0.00  0.00    +0.000 HD
ENDBRANCH  12  14
ENDBRANCH   6  13
ENDBRANCH   1  10
BRANCH   4  16
ATOM     16  N   UNL     1       0.404  10.525  18.792  0.00  0.00    +0.000 N 
ATOM     17  C   UNL     1       0.970  11.744  19.013  0.00  0.00    +0.000 A 
ATOM     18  C   UNL     1       0.256  12.927  18.809  0.00  0.00    +0.000 A 
ATOM     19  C   UNL     1      -1.062  12.873  18.360  0.00  0.00    +0.000 A 
ATOM     20  C   UNL     1      -1.624  11.637  18.130  0.00  0.00    +0.000 A 
ATOM     21  C   UNL     1      -0.881  10.473  18.339  0.00  0.00    +0.000 A 
BRANCH  20  22
ATOM     22  C   UNL     1      -3.012  11.543  17.662  0.00  0.00    +0.000 C 
ATOM     23  N   UNL     1      -3.279  11.068  16.490  0.00  0.00    +0.000 NA
BRANCH  23  24
ATOM     24  O   UNL     1      -4.666  11.085  16.318  0.00  0.00    +0.000 OA
ATOM     25  H   UNL     1      -4.973  10.326  16.851  0.00  0.00    +0.000 HD
ENDBRANCH  23  24
ENDBRANCH  20  22
ENDBRANCH   4  16
TORSDOF 6
ENDMDL
MODEL 8
REMARK VINA RESULT:      -7.1      2.041      2.555
REMARK  Name = 
REMARK  6 active torsions:
REMARK  status: ('A' for Active; 'I' for Inactive)
REMARK    1  A    between atoms: O_1  and  N_2
REMARK    2  A    between atoms: C_3  and  C_4
REMARK    3  A    between atoms: N_8  and  C_9
REMARK    4  A    between atoms: C_12  and  N_13
REMARK    5  A    between atoms: C_17  and  C_18
REMARK    6  A    between atoms: N_19  and  O_20
REMARK                            x       y       z     vdW  Elec       q    Type
REMARK                         _______ _______ _______ _____ _____    ______ ____
ROOT
ATOM      1  C   UNL     1       2.633   6.837  18.757  0.00  0.00    +0.000 A 
ATOM      2  C   UNL     1       2.204   6.859  20.076  0.00  0.00    +0.000 A 
ATOM      3  C   UNL     1       1.515   8.062  20.436  0.00  0.00    +0.000 A 
ATOM      4  C   UNL     1       1.385   8.951  19.383  0.00  0.00    +0.000 A 
ATOM      5  S   UNL     1       2.209   8.328  18.005  0.00  0.00    +0.000 S 
ENDROOT
BRANCH   1  10
ATOM      6  C   UNL     1       5.011   5.085  16.558  0.00  0.00    +0.000 A 
ATOM      7  C   UNL     1       4.585   3.769  16.656  0.00  0.00    +0.000 A 
ATOM      8  C   UNL     1       3.577   3.458  17.550  0.00  0.00    +0.000 A 
ATOM      9  C   UNL     1       2.972   4.493  18.270  0.00  0.00    +0.000 A 
ATOM     10  N   UNL     1       3.376   5.793  18.144  0.00  0.00    +0.000 N 
ATOM     11  C   UNL     1       4.445   6.076  17.342  0.00  0.00    +0.000 A 
BRANCH   6  13
ATOM     12  N   UNL     1       7.142   4.970  15.549  0.00  0.00    +0.000 NA
ATOM     13  C   UNL     1       5.954   5.476  15.514  0.00  0.00    +0.000 C 
BRANCH  12  14
ATOM     14  O   UNL     1       7.911   5.557  14.533  0.00  0.00    +0.000 OA
ATOM     15  H   UNL     1       8.550   4.832  14.280  0.00  0.00    +0.000 HD
ENDBRANCH  12  14
ENDBRANCH   6  13
ENDBRANCH   1  10
BRANCH   4  16
ATOM     16  N   UNL     1       0.677  10.189  19.414  0.00  0.00    +0.000 N 
ATOM     17  C   UNL     1      -0.337  10.431  18.537  0.00  0.00    +0.000 A 
ATOM     18  C   UNL     1      -0.989  11.666  18.499  0.00  0.00    +0.000 A 
ATOM     19  C   UNL     1      -0.611  12.677  19.379  0.00  0.00    +0.000 A 
ATOM     20  C   UNL     1       0.409  12.422  20.268  0.00  0.00    +0.000 A 
ATOM     21  C   UNL     1       1.037  11.175  20.284  0.00  0.00    +0.000 A 
BRANCH  20  22
ATOM     22  C   UNL     1       0.837  13.467  21.206  0.00  0.00    +0.000 C 
ATOM     23  N   UNL     1       2.094  13.692  21.409  0.00  0.00    +0.000 NA
BRANCH  23  24
ATOM     24  O   UNL     1       2.206  14.737  22.330  0.00  0.00    +0.000 OA
ATOM     25  H   UNL     1       1.575  15.405  21.998  0.00  0.00    +0.000 HD
ENDBRANCH  23  24
ENDBRANCH  20  22
ENDBRANCH   4  16
TORSDOF 6
ENDMDL
MODEL 9
REMARK VINA RESULT:      -7.1      2.435      2.829
REMARK  Name = 
REMARK  6 active torsions:
REMARK  status: ('A' for Active; 'I' for Inactive)
REMARK    1  A    between atoms: O_1  and  N_2
REMARK    2  A    between atoms: C_3  and  C_4
REMARK    3  A    between atoms: N_8  and  C_9
REMARK    4  A    between atoms: C_12  and  N_13
REMARK    5  A    between atoms: C_17  and  C_18
REMARK    6  A    between atoms: N_19  and  O_20
REMARK                            x       y       z     vdW  Elec       q    Type
REMARK                         _______ _______ _______ _____ _____    ______ ____
ROOT
ATOM      1  C   UNL     1       2.467   7.734  18.474  0.00  0.00    +0.000 A 
ATOM      2  C   UNL     1       1.946   8.823  17.791  0.00  0.00    +0.000 A 
ATOM      3  C   UNL     1       1.139   9.680  18.608  0.00  0.00    +0.000 A 
ATOM      4  C   UNL     1       1.069   9.266  19.927  0.00  0.00    +0.000 A 
ATOM      5  S   UNL     1       1.909   7.774  20.104  0.00  0.00    +0.000 S 
ENDROOT
BRANCH   1  10
ATOM      6  C   UNL     1       4.113   4.476  17.987  0.00  0.00    +0.000 A 
ATOM      7  C   UNL     1       5.088   4.778  17.048  0.00  0.00    +0.000 A 
ATOM      8  C   UNL     1       5.114   6.046  16.497  0.00  0.00    +0.000 A 
ATOM      9  C   UNL     1       4.201   7.001  16.957  0.00  0.00    +0.000 A 
ATOM     10  N   UNL     1       3.264   6.703  17.907  0.00  0.00    +0.000 N 
ATOM     11  C   UNL     1       3.174   5.421  18.366  0.00  0.00    +0.000 A 
BRANCH   6  13
ATOM     12  N   UNL     1       5.093   3.036  19.581  0.00  0.00    +0.000 NA
ATOM     13  C   UNL     1       4.155   3.207  18.708  0.00  0.00    +0.000 C 
BRANCH  12  14
ATOM     14  O   UNL     1       5.018   1.724  20.071  0.00  0.00    +0.000 OA
ATOM     15  H   UNL     1       5.416   1.180  19.334  0.00  0.00    +0.000 HD
ENDBRANCH  12  14
ENDBRANCH   6  13
ENDBRANCH   1  10
BRANCH   4  16
ATOM     16  N   UNL     1       0.413   9.959  20.989  0.00  0.00    +0.000 N 
ATOM     17  C   UNL     1      -0.110   9.276  22.045  0.00  0.00    +0.000 A 
ATOM     18  C   UNL     1      -0.824   9.927  23.053  0.00  0.00    +0.000 A 
ATOM     19  C   UNL     1      -1.003  11.307  22.995  0.00  0.00    +0.000 A 
ATOM     20  C   UNL     1      -0.465  11.992  21.929  0.00  0.00    +0.000 A 
ATOM     21  C   UNL     1       0.248  11.311  20.940  0.00  0.00    +0.000 A 
BRANCH  20  22
ATOM     22  C   UNL     1      -0.640  13.446  21.832  0.00  0.00    +0.000 C 
ATOM     23  N   UNL     1      -0.068  14.234  22.682  0.00  0.00    +0.000 NA
BRANCH  23  24
ATOM     24  O   UNL     1      -0.396  15.550  22.345  0.00  0.00    +0.000 OA
ATOM     25  H   UNL     1      -0.791  15.906  23.165  0.00  0.00    +0.000 HD
ENDBRANCH  23  24
ENDBRANCH  20  22
ENDBRANCH   4  16
TORSDOF 6
ENDMDL
