MODEL 1
REMARK VINA RESULT:      -7.8      0.000      0.000
REMARK  Name = 
REMARK  11 active torsions:
REMARK  status: ('A' for Active; 'I' for Inactive)
REMARK    1  A    between atoms: C_1  and  O_2
REMARK    2  A    between atoms: O_2  and  C_3
REMARK    3  A    between atoms: C_3  and  C_5
REMARK    4  A    between atoms: C_9  and  S_10
REMARK    5  A    between atoms: S_10  and  N_13
REMARK    6  A    between atoms: N_13  and  C_14
REMARK    7  A    between atoms: N_13  and  C_26
REMARK    8  A    between atoms: C_14  and  C_15
REMARK    9  A    between atoms: N_17  and  C_18
REMARK   10  A    between atoms: C_20  and  C_21
REMARK   11  A    between atoms: C_23  and  C_24
REMARK                            x       y       z     vdW  Elec       q    Type
REMARK                         _______ _______ _______ _____ _____    ______ ____
ROOT
ATOM      1  N   UNL     1       6.536   5.927  17.741  0.00  0.00    +0.000 N 
ENDROOT
BRANCH   1   2
ATOM      2  C   UNL     1       6.317   5.402  16.419  0.00  0.00    +0.000 A 
ATOM      3  C   UNL     1       7.444   5.108  15.647  0.00  0.00    +0.000 A 
ATOM      4  C   UNL     1       7.302   4.540  14.381  0.00  0.00    +0.000 A 
ATOM      5  C   UNL     1       6.028   4.286  13.879  0.00  0.00    +0.000 A 
ATOM      6 CL   UNL     1       5.853   3.546  12.337  0.00  0.00    +0.000 Cl
ATOM      7  C   UNL     1       4.898   4.621  14.622  0.00  0.00    +0.000 A 
ATOM      8  C   UNL     1       5.040   5.196  15.889  0.00  0.00    +0.000 A 
ENDBRANCH   1   2
BRANCH   1   9
ATOM      9  S   UNL     1       5.956   4.878  18.968  0.00  0.00    +0.000 S 
ATOM     10  O   UNL     1       6.640   5.241  20.197  0.00  0.00    +0.000 OA
ATOM     11  O   UNL     1       5.934   3.511  18.498  0.00  0.00    +0.000 OA
BRANCH   9  16
ATOM     12  C   UNL     1       3.355   4.257  19.701  0.00  0.00    +0.000 A 
ATOM     13  S   UNL     1       1.819   4.983  19.991  0.00  0.00    +0.000 S 
ATOM     14  C   UNL     1       2.386   6.541  19.586  0.00  0.00    +0.000 A 
ATOM     15  C   UNL     1       3.722   6.530  19.257  0.00  0.00    +0.000 A 
ATOM     16  C   UNL     1       4.279   5.211  19.305  0.00  0.00    +0.000 A 
BRANCH  12  17
ATOM     17  C   UNL     1       3.532   2.823  19.839  0.00  0.00    +0.000 C 
ATOM     18  O   UNL     1       3.199   1.992  19.005  0.00  0.00    +0.000 OA
BRANCH  17  20
ATOM     19  C   UNL     1       5.021   1.404  21.007  0.00  0.00    +0.000 C 
ATOM     20  O   UNL     1       4.118   2.511  21.031  0.00  0.00    +0.000 OA
ENDBRANCH  17  20
ENDBRANCH  12  17
ENDBRANCH   9  16
ENDBRANCH   1   9
BRANCH   1  21
ATOM     21  C   UNL     1       7.865   6.527  18.032  0.00  0.00    +0.000 C 
BRANCH  21  22
ATOM     22  C   UNL     1       7.960   8.047  18.016  0.00  0.00    +0.000 C 
ATOM     23  O   UNL     1       7.183   8.669  17.292  0.00  0.00    +0.000 OA
ATOM     24  N   UNL     1       8.868   8.620  18.894  0.00  0.00    +0.000 N 
ATOM     25  H   UNL     1       9.487   7.993  19.385  0.00  0.00    +0.000 HD
BRANCH  24  26
ATOM     26  C   UNL     1       9.146   9.996  19.064  0.00  0.00    +0.000 A 
ATOM     27  C   UNL     1       9.569  10.827  18.024  0.00  0.00    +0.000 A 
ATOM     28  C   UNL     1       9.948  12.155  18.265  0.00  0.00    +0.000 A 
ATOM     29  C   UNL     1      10.476  13.004  17.147  0.00  0.00    +0.000 C 
ATOM     30  C   UNL     1       9.851  12.673  19.558  0.00  0.00    +0.000 A 
ATOM     31  C   UNL     1       9.387  11.877  20.610  0.00  0.00    +0.000 A 
ATOM     32  C   UNL     1       9.328  12.433  22.004  0.00  0.00    +0.000 C 
ATOM     33  C   UNL     1       9.033  10.540  20.353  0.00  0.00    +0.000 A 
ENDBRANCH  24  26
ENDBRANCH  21  22
ENDBRANCH   1  21
TORSDOF 8
ENDMDL
MODEL 2
REMARK VINA RESULT:      -7.8      0.925      1.226
REMARK  Name = 
REMARK  11 active torsions:
REMARK  status: ('A' for Active; 'I' for Inactive)
REMARK    1  A    between atoms: C_1  and  O_2
REMARK    2  A    between atoms: O_2  and  C_3
REMARK    3  A    between atoms: C_3  and  C_5
REMARK    4  A    between atoms: C_9  and  S_10
REMARK    5  A    between atoms: S_10  and  N_13
REMARK    6  A    between atoms: N_13  and  C_14
REMARK    7  A    between atoms: N_13  and  C_26
REMARK    8  A    between atoms: C_14  and  C_15
REMARK    9  A    between atoms: N_17  and  C_18
REMARK   10  A    between atoms: C_20  and  C_21
REMARK   11  A    between atoms: C_23  and  C_24
REMARK                            x       y       z     vdW  Elec       q    Type
REMARK                         _______ _______ _______ _____ _____    ______ ____
ROOT
ATOM      1  N   UNL     1       6.397   5.864  17.749  0.00  0.00    +0.000 N 
ENDROOT
BRANCH   1   2
ATOM      2  C   UNL     1       6.242   5.338  16.419  0.00  0.00    +0.000 A 
ATOM      3  C   UNL     1       7.405   5.044  15.702  0.00  0.00    +0.000 A 
ATOM      4  C   UNL     1       7.325   4.474  14.432  0.00  0.00    +0.000 A 
ATOM      5  C   UNL     1       6.077   4.219  13.870  0.00  0.00    +0.000 A 
ATOM      6 CL   UNL     1       5.976   3.477  12.322  0.00  0.00    +0.000 Cl
ATOM      7  C   UNL     1       4.912   4.554  14.557  0.00  0.00    +0.000 A 
ATOM      8  C   UNL     1       4.992   5.131  15.829  0.00  0.00    +0.000 A 
ENDBRANCH   1   2
BRANCH   1   9
ATOM      9  S   UNL     1       5.790   4.801  18.951  0.00  0.00    +0.000 S 
ATOM     10  O   UNL     1       6.538   5.064  20.169  0.00  0.00    +0.000 OA
ATOM     11  O   UNL     1       5.662   3.461  18.424  0.00  0.00    +0.000 OA
BRANCH   9  16
ATOM     12  C   UNL     1       3.230   4.351  19.916  0.00  0.00    +0.000 A 
ATOM     13  S   UNL     1       1.740   5.158  20.230  0.00  0.00    +0.000 S 
ATOM     14  C   UNL     1       2.322   6.646  19.629  0.00  0.00    +0.000 A 
ATOM     15  C   UNL     1       3.631   6.554  19.215  0.00  0.00    +0.000 A 
ATOM     16  C   UNL     1       4.151   5.227  19.362  0.00  0.00    +0.000 A 
BRANCH  12  17
ATOM     17  C   UNL     1       3.375   2.933  20.190  0.00  0.00    +0.000 C 
ATOM     18  O   UNL     1       4.018   2.462  21.118  0.00  0.00    +0.000 OA
BRANCH  17  20
ATOM     19  C   UNL     1       3.485   1.211  18.573  0.00  0.00    +0.000 C 
ATOM     20  O   UNL     1       2.703   2.182  19.271  0.00  0.00    +0.000 OA
ENDBRANCH  17  20
ENDBRANCH  12  17
ENDBRANCH   9  16
ENDBRANCH   1   9
BRANCH   1  21
ATOM     21  C   UNL     1       7.701   6.491  18.095  0.00  0.00    +0.000 C 
BRANCH  21  22
ATOM     22  C   UNL     1       7.830   7.993  17.877  0.00  0.00    +0.000 C 
ATOM     23  O   UNL     1       7.093   8.524  17.046  0.00  0.00    +0.000 OA
ATOM     24  N   UNL     1       8.718   8.664  18.704  0.00  0.00    +0.000 N 
ATOM     25  H   UNL     1       9.305   8.099  19.299  0.00  0.00    +0.000 HD
BRANCH  24  26
ATOM     26  C   UNL     1       9.020  10.046  18.697  0.00  0.00    +0.000 A 
ATOM     27  C   UNL     1       8.236  11.000  18.043  0.00  0.00    +0.000 A 
ATOM     28  C   UNL     1       8.640  12.339  17.962  0.00  0.00    +0.000 A 
ATOM     29  C   UNL     1       7.823  13.328  17.186  0.00  0.00    +0.000 C 
ATOM     30  C   UNL     1       9.821  12.739  18.592  0.00  0.00    +0.000 A 
ATOM     31  C   UNL     1      10.602  11.815  19.293  0.00  0.00    +0.000 A 
ATOM     32  C   UNL     1      11.891  12.249  19.928  0.00  0.00    +0.000 C 
ATOM     33  C   UNL     1      10.192  10.471  19.343  0.00  0.00    +0.000 A 
ENDBRANCH  24  26
ENDBRANCH  21  22
ENDBRANCH   1  21
TORSDOF 8
ENDMDL
MODEL 3
REMARK VINA RESULT:      -7.5      1.586      3.017
REMARK  Name = 
REMARK  11 active torsions:
REMARK  status: ('A' for Active; 'I' for Inactive)
REMARK    1  A    between atoms: C_1  and  O_2
REMARK    2  A    between atoms: O_2  and  C_3
REMARK    3  A    between atoms: C_3  and  C_5
REMARK    4  A    between atoms: C_9  and  S_10
REMARK    5  A    between atoms: S_10  and  N_13
REMARK    6  A    between atoms: N_13  and  C_14
REMARK    7  A    between atoms: N_13  and  C_26
REMARK    8  A    between atoms: C_14  and  C_15
REMARK    9  A    between atoms: N_17  and  C_18
REMARK   10  A    between atoms: C_20  and  C_21
REMARK   11  A    between atoms: C_23  and  C_24
REMARK                            x       y       z     vdW  Elec       q    Type
REMARK                         _______ _______ _______ _____ _____    ______ ____
ROOT
ATOM      1  N   UNL     1       6.365   6.033  17.638  0.00  0.00    +0.000 N 
ENDROOT
BRANCH   1   2
ATOM      2  C   UNL     1       6.196   5.381  16.366  0.00  0.00    +0.000 A 
ATOM      3  C   UNL     1       5.286   5.945  15.468  0.00  0.00    +0.000 A 
ATOM      4  C   UNL     1       5.119   5.398  14.196  0.00  0.00    +0.000 A 
ATOM      5  C   UNL     1       5.851   4.271  13.831  0.00  0.00    +0.000 A 
ATOM      6 CL   UNL     1       5.678   3.621  12.249  0.00  0.00    +0.000 Cl
ATOM      7  C   UNL     1       6.724   3.672  14.737  0.00  0.00    +0.000 A 
ATOM      8  C   UNL     1       6.887   4.217  16.015  0.00  0.00    +0.000 A 
ENDBRANCH   1   2
BRANCH   1   9
ATOM      9  S   UNL     1       5.588   5.192  18.915  0.00  0.00    +0.000 S 
ATOM     10  O   UNL     1       5.226   6.181  19.918  0.00  0.00    +0.000 OA
ATOM     11  O   UNL     1       6.333   4.005  19.268  0.00  0.00    +0.000 OA
BRANCH   9  16
ATOM     12  C   UNL     1       2.881   5.289  18.321  0.00  0.00    +0.000 A 
ATOM     13  S   UNL     1       1.599   4.329  17.684  0.00  0.00    +0.000 S 
ATOM     14  C   UNL     1       2.603   2.962  17.498  0.00  0.00    +0.000 A 
ATOM     15  C   UNL     1       3.897   3.221  17.886  0.00  0.00    +0.000 A 
ATOM     16  C   UNL     1       4.057   4.557  18.377  0.00  0.00    +0.000 A 
BRANCH  12  17
ATOM     17  C   UNL     1       2.640   6.655  18.750  0.00  0.00    +0.000 C 
ATOM     18  O   UNL     1       2.175   6.975  19.836  0.00  0.00    +0.000 OA
BRANCH  17  20
ATOM     19  C   UNL     1       2.260   8.772  17.768  0.00  0.00    +0.000 C 
ATOM     20  O   UNL     1       2.993   7.546  17.780  0.00  0.00    +0.000 OA
ENDBRANCH  17  20
ENDBRANCH  12  17
ENDBRANCH   9  16
ENDBRANCH   1   9
BRANCH   1  21
ATOM     21  C   UNL     1       7.722   6.536  17.979  0.00  0.00    +0.000 C 
BRANCH  21  22
ATOM     22  C   UNL     1       7.909   8.047  18.037  0.00  0.00    +0.000 C 
ATOM     23  O   UNL     1       7.188   8.748  17.327  0.00  0.00    +0.000 OA
ATOM     24  N   UNL     1       8.830   8.522  18.959  0.00  0.00    +0.000 N 
ATOM     25  H   UNL     1       9.398   7.835  19.432  0.00  0.00    +0.000 HD
BRANCH  24  26
ATOM     26  C   UNL     1       9.187   9.869  19.199  0.00  0.00    +0.000 A 
ATOM     27  C   UNL     1       9.058  10.487  20.445  0.00  0.00    +0.000 A 
ATOM     28  C   UNL     1       9.312  11.855  20.606  0.00  0.00    +0.000 A 
ATOM     29  C   UNL     1       9.088  12.514  21.934  0.00  0.00    +0.000 C 
ATOM     30  C   UNL     1       9.752  12.606  19.512  0.00  0.00    +0.000 A 
ATOM     31  C   UNL     1       9.934  12.003  18.264  0.00  0.00    +0.000 A 
ATOM     32  C   UNL     1      10.366  12.829  17.086  0.00  0.00    +0.000 C 
ATOM     33  C   UNL     1       9.652  10.633  18.117  0.00  0.00    +0.000 A 
ENDBRANCH  24  26
ENDBRANCH  21  22
ENDBRANCH   1  21
TORSDOF 8
ENDMDL
MODEL 4
REMARK VINA RESULT:      -7.4      1.746      2.711
REMARK  Name = 
REMARK  11 active torsions:
REMARK  status: ('A' for Active; 'I' for Inactive)
REMARK    1  A    between atoms: C_1  and  O_2
REMARK    2  A    between atoms: O_2  and  C_3
REMARK    3  A    between atoms: C_3  and  C_5
REMARK    4  A    between atoms: C_9  and  S_10
REMARK    5  A    between atoms: S_10  and  N_13
REMARK    6  A    between atoms: N_13  and  C_14
REMARK    7  A    between atoms: N_13  and  C_26
REMARK    8  A    between atoms: C_14  and  C_15
REMARK    9  A    between atoms: N_17  and  C_18
REMARK   10  A    between atoms: C_20  and  C_21
REMARK   11  A    between atoms: C_23  and  C_24
REMARK                            x       y       z     vdW  Elec       q    Type
REMARK                         _______ _______ _______ _____ _____    ______ ____
ROOT
ATOM      1  N   UNL     1       6.220   5.890  17.973  0.00  0.00    +0.000 N 
ENDROOT
BRANCH   1   2
ATOM      2  C   UNL     1       6.102   5.384  16.631  0.00  0.00    +0.000 A 
ATOM      3  C   UNL     1       6.886   4.279  16.287  0.00  0.00    +0.000 A 
ATOM      4  C   UNL     1       6.774   3.702  15.022  0.00  0.00    +0.000 A 
ATOM      5  C   UNL     1       5.892   4.246  14.093  0.00  0.00    +0.000 A 
ATOM      6 CL   UNL     1       5.722   3.511  12.548  0.00  0.00    +0.000 Cl
ATOM      7  C   UNL     1       5.143   5.378  14.410  0.00  0.00    +0.000 A 
ATOM      8  C   UNL     1       5.259   5.960  15.676  0.00  0.00    +0.000 A 
ENDBRANCH   1   2
BRANCH   1   9
ATOM      9  S   UNL     1       5.391   4.917  19.116  0.00  0.00    +0.000 S 
ATOM     10  O   UNL     1       4.957   5.796  20.189  0.00  0.00    +0.000 OA
ATOM     11  O   UNL     1       6.138   3.710  19.392  0.00  0.00    +0.000 OA
BRANCH   9  16
ATOM     12  C   UNL     1       2.768   5.087  18.231  0.00  0.00    +0.000 A 
ATOM     13  S   UNL     1       1.527   4.151  17.487  0.00  0.00    +0.000 S 
ATOM     14  C   UNL     1       2.494   2.746  17.448  0.00  0.00    +0.000 A 
ATOM     15  C   UNL     1       3.748   2.972  17.965  0.00  0.00    +0.000 A 
ATOM     16  C   UNL     1       3.903   4.317  18.434  0.00  0.00    +0.000 A 
BRANCH  12  17
ATOM     17  C   UNL     1       2.533   6.473  18.594  0.00  0.00    +0.000 C 
ATOM     18  O   UNL     1       2.885   7.439  17.931  0.00  0.00    +0.000 OA
BRANCH  17  20
ATOM     19  C   UNL     1       1.798   7.874  20.351  0.00  0.00    +0.000 C 
ATOM     20  O   UNL     1       1.869   6.565  19.782  0.00  0.00    +0.000 OA
ENDBRANCH  17  20
ENDBRANCH  12  17
ENDBRANCH   9  16
ENDBRANCH   1   9
BRANCH   1  21
ATOM     21  C   UNL     1       7.563   6.345  18.422  0.00  0.00    +0.000 C 
BRANCH  21  22
ATOM     22  C   UNL     1       8.011   7.732  17.978  0.00  0.00    +0.000 C 
ATOM     23  O   UNL     1       7.813   8.058  16.808  0.00  0.00    +0.000 OA
ATOM     24  N   UNL     1       8.535   8.557  18.962  0.00  0.00    +0.000 N 
ATOM     25  H   UNL     1       8.700   8.142  19.866  0.00  0.00    +0.000 HD
BRANCH  24  26
ATOM     26  C   UNL     1       9.024   9.875  18.805  0.00  0.00    +0.000 A 
ATOM     27  C   UNL     1      10.185  10.341  19.425  0.00  0.00    +0.000 A 
ATOM     28  C   UNL     1      10.565  11.687  19.336  0.00  0.00    +0.000 A 
ATOM     29  C   UNL     1      11.771  12.182  20.078  0.00  0.00    +0.000 C 
ATOM     30  C   UNL     1       9.798  12.568  18.571  0.00  0.00    +0.000 A 
ATOM     31  C   UNL     1       8.655  12.118  17.901  0.00  0.00    +0.000 A 
ATOM     32  C   UNL     1       7.815  13.085  17.117  0.00  0.00    +0.000 C 
ATOM     33  C   UNL     1       8.278  10.769  18.021  0.00  0.00    +0.000 A 
ENDBRANCH  24  26
ENDBRANCH  21  22
ENDBRANCH   1  21
TORSDOF 8
ENDMDL
MODEL 5
REMARK VINA RESULT:      -7.3      4.181      5.653
REMARK  Name = 
REMARK  11 active torsions:
REMARK  status: ('A' for Active; 'I' for Inactive)
REMARK    1  A    between atoms: C_1  and  O_2
REMARK    2  A    between atoms: O_2  and  C_3
REMARK    3  A    between atoms: C_3  and  C_5
REMARK    4  A    between atoms: C_9  and  S_10
REMARK    5  A    between atoms: S_10  and  N_13
REMARK    6  A    between atoms: N_13  and  C_14
REMARK    7  A    between atoms: N_13  and  C_26
REMARK    8  A    between atoms: C_14  and  C_15
REMARK    9  A    between atoms: N_17  and  C_18
REMARK   10  A    between atoms: C_20  and  C_21
REMARK   11  A    between atoms: C_23  and  C_24
REMARK                            x       y       z     vdW  Elec       q    Type
REMARK                         _______ _______ _______ _____ _____    ______ ____
ROOT
ATOM      1  N   UNL     1       4.445   5.629  17.396  0.00  0.00    +0.000 N 
ENDROOT
BRANCH   1   2
ATOM      2  C   UNL     1       5.270   5.275  16.271  0.00  0.00    +0.000 A 
ATOM      3  C   UNL     1       4.698   4.474  15.279  0.00  0.00    +0.000 A 
ATOM      4  C   UNL     1       5.423   4.145  14.134  0.00  0.00    +0.000 A 
ATOM      5  C   UNL     1       6.731   4.602  13.992  0.00  0.00    +0.000 A 
ATOM      6 CL   UNL     1       7.611   4.233  12.562  0.00  0.00    +0.000 Cl
ATOM      7  C   UNL     1       7.326   5.360  15.000  0.00  0.00    +0.000 A 
ATOM      8  C   UNL     1       6.601   5.684  16.151  0.00  0.00    +0.000 A 
ENDBRANCH   1   2
BRANCH   1   9
ATOM      9  S   UNL     1       4.911   4.816  18.833  0.00  0.00    +0.000 S 
ATOM     10  O   UNL     1       5.404   5.827  19.754  0.00  0.00    +0.000 OA
ATOM     11  O   UNL     1       5.694   3.642  18.520  0.00  0.00    +0.000 OA
BRANCH   9  16
ATOM     12  C   UNL     1       2.633   3.253  19.067  0.00  0.00    +0.000 A 
ATOM     13  S   UNL     1       1.410   2.800  20.194  0.00  0.00    +0.000 S 
ATOM     14  C   UNL     1       2.047   3.808  21.416  0.00  0.00    +0.000 A 
ATOM     15  C   UNL     1       3.181   4.465  20.999  0.00  0.00    +0.000 A 
ATOM     16  C   UNL     1       3.511   4.160  19.638  0.00  0.00    +0.000 A 
BRANCH  12  17
ATOM     17  C   UNL     1       2.621   2.728  17.713  0.00  0.00    +0.000 C 
ATOM     18  O   UNL     1       1.931   3.161  16.801  0.00  0.00    +0.000 OA
BRANCH  17  20
ATOM     19  C   UNL     1       3.760   0.955  18.787  0.00  0.00    +0.000 C 
ATOM     20  O   UNL     1       3.481   1.677  17.585  0.00  0.00    +0.000 OA
ENDBRANCH  17  20
ENDBRANCH  12  17
ENDBRANCH   9  16
ENDBRANCH   1   9
BRANCH   1  21
ATOM     21  C   UNL     1       4.124   7.068  17.589  0.00  0.00    +0.000 C 
BRANCH  21  22
ATOM     22  C   UNL     1       2.697   7.413  17.996  0.00  0.00    +0.000 C 
ATOM     23  O   UNL     1       1.867   6.504  18.028  0.00  0.00    +0.000 OA
ATOM     24  N   UNL     1       2.464   8.723  18.385  0.00  0.00    +0.000 N 
ATOM     25  H   UNL     1       3.217   9.381  18.251  0.00  0.00    +0.000 HD
BRANCH  24  26
ATOM     26  C   UNL     1       1.235   9.291  18.797  0.00  0.00    +0.000 A 
ATOM     27  C   UNL     1       0.239   9.693  17.906  0.00  0.00    +0.000 A 
ATOM     28  C   UNL     1      -0.910  10.359  18.353  0.00  0.00    +0.000 A 
ATOM     29  C   UNL     1      -1.928  10.854  17.369  0.00  0.00    +0.000 C 
ATOM     30  C   UNL     1      -1.087  10.578  19.722  0.00  0.00    +0.000 A 
ATOM     31  C   UNL     1      -0.127  10.145  20.641  0.00  0.00    +0.000 A 
ATOM     32  C   UNL     1      -0.308  10.425  22.106  0.00  0.00    +0.000 C 
ATOM     33  C   UNL     1       1.030   9.499  20.171  0.00  0.00    +0.000 A 
ENDBRANCH  24  26
ENDBRANCH  21  22
ENDBRANCH   1  21
TORSDOF 8
ENDMDL
MODEL 6
REMARK VINA RESULT:      -7.2      7.006     10.050
REMARK  Name = 
REMARK  11 active torsions:
REMARK  status: ('A' for Active; 'I' for Inactive)
REMARK    1  A    between atoms: C_1  and  O_2
REMARK    2  A    between atoms: O_2  and  C_3
REMARK    3  A    between atoms: C_3  and  C_5
REMARK    4  A    between atoms: C_9  and  S_10
REMARK    5  A    between atoms: S_10  and  N_13
REMARK    6  A    between atoms: N_13  and  C_14
REMARK    7  A    between atoms: N_13  and  C_26
REMARK    8  A    between atoms: C_14  and  C_15
REMARK    9  A    between atoms: N_17  and  C_18
REMARK   10  A    between atoms: C_20  and  C_21
REMARK   11  A    between atoms: C_23  and  C_24
REMARK                            x       y       z     vdW  Elec       q    Type
REMARK                         _______ _______ _______ _____ _____    ______ ____
ROOT
ATOM      1  N   UNL     1       1.046  11.193  19.226  0.00  0.00    +0.000 N 
ENDROOT
BRANCH   1   2
ATOM      2  C   UNL     1       1.890  12.354  19.339  0.00  0.00    +0.000 A 
ATOM      3  C   UNL     1       2.527  12.803  18.179  0.00  0.00    +0.000 A 
ATOM      4  C   UNL     1       3.309  13.957  18.206  0.00  0.00    +0.000 A 
ATOM      5  C   UNL     1       3.471  14.651  19.403  0.00  0.00    +0.000 A 
ATOM      6 CL   UNL     1       4.399  16.097  19.429  0.00  0.00    +0.000 Cl
ATOM      7  C   UNL     1       2.878  14.182  20.575  0.00  0.00    +0.000 A 
ATOM      8  C   UNL     1       2.099  13.022  20.549  0.00  0.00    +0.000 A 
ENDBRANCH   1   2
BRANCH   1   9
ATOM      9  S   UNL     1      -0.623  11.586  19.284  0.00  0.00    +0.000 S 
ATOM     10  O   UNL     1      -1.344  10.469  18.698  0.00  0.00    +0.000 OA
ATOM     11  O   UNL     1      -0.840  12.941  18.827  0.00  0.00    +0.000 OA
BRANCH   9  16
ATOM     12  C   UNL     1      -2.292  12.329  21.370  0.00  0.00    +0.000 A 
ATOM     13  S   UNL     1      -2.546  12.078  23.056  0.00  0.00    +0.000 S 
ATOM     14  C   UNL     1      -1.184  11.058  23.195  0.00  0.00    +0.000 A 
ATOM     15  C   UNL     1      -0.552  10.882  21.986  0.00  0.00    +0.000 A 
ATOM     16  C   UNL     1      -1.177  11.628  20.935  0.00  0.00    +0.000 A 
BRANCH  12  17
ATOM     17  C   UNL     1      -3.162  13.211  20.614  0.00  0.00    +0.000 C 
ATOM     18  O   UNL     1      -3.147  14.433  20.679  0.00  0.00    +0.000 OA
BRANCH  17  20
ATOM     19  C   UNL     1      -5.394  12.567  20.173  0.00  0.00    +0.000 C 
ATOM     20  O   UNL     1      -4.012  12.501  19.818  0.00  0.00    +0.000 OA
ENDBRANCH  17  20
ENDBRANCH  12  17
ENDBRANCH   9  16
ENDBRANCH   1   9
BRANCH   1  21
ATOM     21  C   UNL     1       1.397  10.184  18.192  0.00  0.00    +0.000 C 
BRANCH  21  22
ATOM     22  C   UNL     1       1.846   8.813  18.683  0.00  0.00    +0.000 C 
ATOM     23  O   UNL     1       1.575   8.495  19.841  0.00  0.00    +0.000 OA
ATOM     24  N   UNL     1       2.456   7.990  17.748  0.00  0.00    +0.000 N 
ATOM     25  H   UNL     1       2.674   8.400  16.852  0.00  0.00    +0.000 HD
BRANCH  24  26
ATOM     26  C   UNL     1       2.964   6.686  17.955  0.00  0.00    +0.000 A 
ATOM     27  C   UNL     1       4.328   6.388  17.971  0.00  0.00    +0.000 A 
ATOM     28  C   UNL     1       4.780   5.065  18.059  0.00  0.00    +0.000 A 
ATOM     29  C   UNL     1       6.248   4.762  17.992  0.00  0.00    +0.000 C 
ATOM     30  C   UNL     1       3.852   4.028  18.186  0.00  0.00    +0.000 A 
ATOM     31  C   UNL     1       2.481   4.303  18.219  0.00  0.00    +0.000 A 
ATOM     32  C   UNL     1       1.491   3.176  18.313  0.00  0.00    +0.000 C 
ATOM     33  C   UNL     1       2.046   5.635  18.106  0.00  0.00    +0.000 A 
ENDBRANCH  24  26
ENDBRANCH  21  22
ENDBRANCH   1  21
TORSDOF 8
ENDMDL
MODEL 7
REMARK VINA RESULT:      -7.1      1.064      1.833
REMARK  Name = 
REMARK  11 active torsions:
REMARK  status: ('A' for Active; 'I' for Inactive)
REMARK    1  A    between atoms: C_1  and  O_2
REMARK    2  A    between atoms: O_2  and  C_3
REMARK    3  A    between atoms: C_3  and  C_5
REMARK    4  A    between atoms: C_9  and  S_10
REMARK    5  A    between atoms: S_10  and  N_13
REMARK    6  A    between atoms: N_13  and  C_14
REMARK    7  A    between atoms: N_13  and  C_26
REMARK    8  A    between atoms: C_14  and  C_15
REMARK    9  A    between atoms: N_17  and  C_18
REMARK   10  A    between atoms: C_20  and  C_21
REMARK   11  A    between atoms: C_23  and  C_24
REMARK                            x       y       z     vdW  Elec       q    Type
REMARK                         _______ _______ _______ _____ _____    ______ ____
ROOT
ATOM      1  N   UNL     1       6.286   5.670  17.761  0.00  0.00    +0.000 N 
ENDROOT
BRANCH   1   2
ATOM      2  C   UNL     1       6.260   5.132  16.426  0.00  0.00    +0.000 A 
ATOM      3  C   UNL     1       5.008   4.904  15.847  0.00  0.00    +0.000 A 
ATOM      4  C   UNL     1       4.912   4.441  14.535  0.00  0.00    +0.000 A 
ATOM      5  C   UNL     1       6.073   4.186  13.809  0.00  0.00    +0.000 A 
ATOM      6 CL   UNL     1       5.957   3.656  12.178  0.00  0.00    +0.000 Cl
ATOM      7  C   UNL     1       7.325   4.363  14.395  0.00  0.00    +0.000 A 
ATOM      8  C   UNL     1       7.421   4.822  15.713  0.00  0.00    +0.000 A 
ENDBRANCH   1   2
BRANCH   1   9
ATOM      9  S   UNL     1       5.500   4.651  18.895  0.00  0.00    +0.000 S 
ATOM     10  O   UNL     1       6.266   4.717  20.129  0.00  0.00    +0.000 OA
ATOM     11  O   UNL     1       5.163   3.383  18.289  0.00  0.00    +0.000 OA
BRANCH   9  16
ATOM     12  C   UNL     1       2.979   4.632  20.051  0.00  0.00    +0.000 A 
ATOM     13  S   UNL     1       1.607   5.638  20.324  0.00  0.00    +0.000 S 
ATOM     14  C   UNL     1       2.298   6.952  19.481  0.00  0.00    +0.000 A 
ATOM     15  C   UNL     1       3.558   6.656  19.016  0.00  0.00    +0.000 A 
ATOM     16  C   UNL     1       3.947   5.312  19.327  0.00  0.00    +0.000 A 
BRANCH  12  17
ATOM     17  C   UNL     1       2.995   3.259  20.521  0.00  0.00    +0.000 C 
ATOM     18  O   UNL     1       3.313   2.291  19.844  0.00  0.00    +0.000 OA
BRANCH  17  20
ATOM     19  C   UNL     1       1.390   2.461  22.064  0.00  0.00    +0.000 C 
ATOM     20  O   UNL     1       2.602   3.180  21.825  0.00  0.00    +0.000 OA
ENDBRANCH  17  20
ENDBRANCH  12  17
ENDBRANCH   9  16
ENDBRANCH   1   9
BRANCH   1  21
ATOM     21  C   UNL     1       7.568   6.245  18.247  0.00  0.00    +0.000 C 
BRANCH  21  22
ATOM     22  C   UNL     1       7.840   7.709  17.923  0.00  0.00    +0.000 C 
ATOM     23  O   UNL     1       7.317   8.187  16.916  0.00  0.00    +0.000 OA
ATOM     24  N   UNL     1       8.594   8.417  18.847  0.00  0.00    +0.000 N 
ATOM     25  H   UNL     1       9.014   7.887  19.596  0.00  0.00    +0.000 HD
BRANCH  24  26
ATOM     26  C   UNL     1       8.987   9.774  18.774  0.00  0.00    +0.000 A 
ATOM     27  C   UNL     1      10.039  10.309  19.520  0.00  0.00    +0.000 A 
ATOM     28  C   UNL     1      10.314  11.683  19.505  0.00  0.00    +0.000 A 
ATOM     29  C   UNL     1      11.396  12.247  20.376  0.00  0.00    +0.000 C 
ATOM     30  C   UNL     1       9.556  12.526  18.688  0.00  0.00    +0.000 A 
ATOM     31  C   UNL     1       8.526  12.010  17.895  0.00  0.00    +0.000 A 
ATOM     32  C   UNL     1       7.690  12.933  17.055  0.00  0.00    +0.000 C 
ATOM     33  C   UNL     1       8.250  10.632  17.942  0.00  0.00    +0.000 A 
ENDBRANCH  24  26
ENDBRANCH  21  22
ENDBRANCH   1  21
TORSDOF 8
ENDMDL
MODEL 8
REMARK VINA RESULT:      -7.1      8.498     11.607
REMARK  Name = 
REMARK  11 active torsions:
REMARK  status: ('A' for Active; 'I' for Inactive)
REMARK    1  A    between atoms: C_1  and  O_2
REMARK    2  A    between atoms: O_2  and  C_3
REMARK    3  A    between atoms: C_3  and  C_5
REMARK    4  A    between atoms: C_9  and  S_10
REMARK    5  A    between atoms: S_10  and  N_13
REMARK    6  A    between atoms: N_13  and  C_14
REMARK    7  A    between atoms: N_13  and  C_26
REMARK    8  A    between atoms: C_14  and  C_15
REMARK    9  A    between atoms: N_17  and  C_18
REMARK   10  A    between atoms: C_20  and  C_21
REMARK   11  A    between atoms: C_23  and  C_24
REMARK                            x       y       z     vdW  Elec       q    Type
REMARK                         _______ _______ _______ _____ _____    ______ ____
ROOT
ATOM      1  N   UNL     1       0.122  11.166  19.374  0.00  0.00    +0.000 N 
ENDROOT
BRANCH   1   2
ATOM      2  C   UNL     1       0.841   9.922  19.296  0.00  0.00    +0.000 A 
ATOM      3  C   UNL     1       1.413   9.584  18.067  0.00  0.00    +0.000 A 
ATOM      4  C   UNL     1       2.174   8.422  17.939  0.00  0.00    +0.000 A 
ATOM      5  C   UNL     1       2.345   7.587  19.040  0.00  0.00    +0.000 A 
ATOM      6 CL   UNL     1       3.318   6.177  18.896  0.00  0.00    +0.000 Cl
ATOM      7  C   UNL     1       1.737   7.891  20.257  0.00  0.00    +0.000 A 
ATOM      8  C   UNL     1       0.968   9.052  20.383  0.00  0.00    +0.000 A 
ENDBRANCH   1   2
BRANCH   1   9
ATOM      9  S   UNL     1       1.136  12.485  19.791  0.00  0.00    +0.000 S 
ATOM     10  O   UNL     1       1.939  12.792  18.620  0.00  0.00    +0.000 OA
ATOM     11  O   UNL     1       1.747  12.266  21.083  0.00  0.00    +0.000 OA
BRANCH   9  16
ATOM     12  C   UNL     1      -0.539  14.197  21.189  0.00  0.00    +0.000 A 
ATOM     13  S   UNL     1      -1.300  15.739  21.075  0.00  0.00    +0.000 S 
ATOM     14  C   UNL     1      -0.674  16.026  19.514  0.00  0.00    +0.000 A 
ATOM     15  C   UNL     1       0.119  14.989  19.082  0.00  0.00    +0.000 A 
ATOM     16  C   UNL     1       0.185  13.924  20.039  0.00  0.00    +0.000 A 
BRANCH  12  17
ATOM     17  C   UNL     1      -0.735  13.360  22.359  0.00  0.00    +0.000 C 
ATOM     18  O   UNL     1      -0.345  13.632  23.487  0.00  0.00    +0.000 OA
BRANCH  17  20
ATOM     19  C   UNL     1      -1.257  11.133  22.959  0.00  0.00    +0.000 C 
ATOM     20  O   UNL     1      -1.408  12.218  22.041  0.00  0.00    +0.000 OA
ENDBRANCH  17  20
ENDBRANCH  12  17
ENDBRANCH   9  16
ENDBRANCH   1   9
BRANCH   1  21
ATOM     21  C   UNL     1      -0.854  11.467  18.293  0.00  0.00    +0.000 C 
BRANCH  21  22
ATOM     22  C   UNL     1      -2.333  11.386  18.649  0.00  0.00    +0.000 C 
ATOM     23  O   UNL     1      -2.945  10.361  18.352  0.00  0.00    +0.000 OA
ATOM     24  N   UNL     1      -2.856  12.453  19.364  0.00  0.00    +0.000 N 
ATOM     25  H   UNL     1      -2.260  13.258  19.486  0.00  0.00    +0.000 HD
BRANCH  24  26
ATOM     26  C   UNL     1      -4.191  12.619  19.803  0.00  0.00    +0.000 A 
ATOM     27  C   UNL     1      -4.546  12.739  21.148  0.00  0.00    +0.000 A 
ATOM     28  C   UNL     1      -5.889  12.781  21.543  0.00  0.00    +0.000 A 
ATOM     29  C   UNL     1      -6.248  12.828  22.999  0.00  0.00    +0.000 C 
ATOM     30  C   UNL     1      -6.892  12.756  20.570  0.00  0.00    +0.000 A 
ATOM     31  C   UNL     1      -6.564  12.682  19.213  0.00  0.00    +0.000 A 
ATOM     32  C   UNL     1      -7.652  12.612  18.180  0.00  0.00    +0.000 C 
ATOM     33  C   UNL     1      -5.210  12.618  18.838  0.00  0.00    +0.000 A 
ENDBRANCH  24  26
ENDBRANCH  21  22
ENDBRANCH   1  21
TORSDOF 8
ENDMDL
MODEL 9
REMARK VINA RESULT:      -7.1      1.158      1.660
REMARK  Name = 
REMARK  11 active torsions:
REMARK  status: ('A' for Active; 'I' for Inactive)
REMARK    1  A    between atoms: C_1  and  O_2
REMARK    2  A    between atoms: O_2  and  C_3
REMARK    3  A    between atoms: C_3  and  C_5
REMARK    4  A    between atoms: C_9  and  S_10
REMARK    5  A    between atoms: S_10  and  N_13
REMARK    6  A    between atoms: N_13  and  C_14
REMARK    7  A    between atoms: N_13  and  C_26
REMARK    8  A    between atoms: C_14  and  C_15
REMARK    9  A    between atoms: N_17  and  C_18
REMARK   10  A    between atoms: C_20  and  C_21
REMARK   11  A    between atoms: C_23  and  C_24
REMARK                            x       y       z     vdW  Elec       q    Type
REMARK                         _______ _______ _______ _____ _____    ______ ____
ROOT
ATOM      1  N   UNL     1       6.236   6.172  17.401  0.00  0.00    +0.000 N 
ENDROOT
BRANCH   1   2
ATOM      2  C   UNL     1       6.295   5.465  16.149  0.00  0.00    +0.000 A 
ATOM      3  C   UNL     1       5.146   5.467  15.353  0.00  0.00    +0.000 A 
ATOM      4  C   UNL     1       5.156   4.853  14.100  0.00  0.00    +0.000 A 
ATOM      5  C   UNL     1       6.312   4.218  13.654  0.00  0.00    +0.000 A 
ATOM      6 CL   UNL     1       6.339   3.498  12.093  0.00  0.00    +0.000 Cl
ATOM      7  C   UNL     1       7.447   4.170  14.462  0.00  0.00    +0.000 A 
ATOM      8  C   UNL     1       7.435   4.780  15.720  0.00  0.00    +0.000 A 
ENDBRANCH   1   2
BRANCH   1   9
ATOM      9  S   UNL     1       5.149   5.447  18.513  0.00  0.00    +0.000 S 
ATOM     10  O   UNL     1       5.763   5.535  19.827  0.00  0.00    +0.000 OA
ATOM     11  O   UNL     1       4.661   4.188  17.996  0.00  0.00    +0.000 OA
BRANCH   9  16
ATOM     12  C   UNL     1       2.620   6.078  19.459  0.00  0.00    +0.000 A 
ATOM     13  S   UNL     1       1.410   7.302  19.377  0.00  0.00    +0.000 S 
ATOM     14  C   UNL     1       2.320   8.245  18.283  0.00  0.00    +0.000 A 
ATOM     15  C   UNL     1       3.534   7.666  17.995  0.00  0.00    +0.000 A 
ATOM     16  C   UNL     1       3.702   6.407  18.658  0.00  0.00    +0.000 A 
BRANCH  12  17
ATOM     17  C   UNL     1       2.411   4.884  20.257  0.00  0.00    +0.000 C 
ATOM     18  O   UNL     1       2.664   4.786  21.450  0.00  0.00    +0.000 OA
BRANCH  17  20
ATOM     19  C   UNL     1       2.237   2.549  19.925  0.00  0.00    +0.000 C 
ATOM     20  O   UNL     1       1.898   3.871  19.502  0.00  0.00    +0.000 OA
ENDBRANCH  17  20
ENDBRANCH  12  17
ENDBRANCH   9  16
ENDBRANCH   1   9
BRANCH   1  21
ATOM     21  C   UNL     1       7.522   6.611  18.006  0.00  0.00    +0.000 C 
BRANCH  21  22
ATOM     22  C   UNL     1       7.847   8.098  17.944  0.00  0.00    +0.000 C 
ATOM     23  O   UNL     1       7.264   8.784  17.104  0.00  0.00    +0.000 OA
ATOM     24  N   UNL     1       8.722   8.580  18.905  0.00  0.00    +0.000 N 
ATOM     25  H   UNL     1       9.176   7.898  19.493  0.00  0.00    +0.000 HD
BRANCH  24  26
ATOM     26  C   UNL     1       9.184   9.909  19.055  0.00  0.00    +0.000 A 
ATOM     27  C   UNL     1       9.782  10.634  18.023  0.00  0.00    +0.000 A 
ATOM     28  C   UNL     1      10.332  11.903  18.251  0.00  0.00    +0.000 A 
ATOM     29  C   UNL     1      11.042  12.628  17.147  0.00  0.00    +0.000 C 
ATOM     30  C   UNL     1      10.235  12.475  19.522  0.00  0.00    +0.000 A 
ATOM     31  C   UNL     1       9.600  11.790  20.563  0.00  0.00    +0.000 A 
ATOM     32  C   UNL     1       9.540  12.398  21.935  0.00  0.00    +0.000 C 
ATOM     33  C   UNL     1       9.075  10.509  20.320  0.00  0.00    +0.000 A 
ENDBRANCH  24  26
ENDBRANCH  21  22
ENDBRANCH   1  21
TORSDOF 8
ENDMDL
