MODEL 1
REMARK VINA RESULT:      -7.6      0.000      0.000
REMARK  Name = 
REMARK  4 active torsions:
REMARK  status: ('A' for Active; 'I' for Inactive)
REMARK    1  A    between atoms: O_1  and  C_2
REMARK    2  A    between atoms: C_2  and  C_3
REMARK    3  A    between atoms: C_3  and  C_4
REMARK    4  A    between atoms: C_10  and  O_11
REMARK                            x       y       z     vdW  Elec       q    Type
REMARK                         _______ _______ _______ _____ _____    ______ ____
ROOT
ATOM      1  C   UNL     1       5.830   4.745  15.550  0.00  0.00    +0.000 A 
ATOM      2  C   UNL     1       5.326   6.036  15.351  0.00  0.00    +0.000 A 
ATOM      3  C   UNL     1       4.676   6.703  16.387  0.00  0.00    +0.000 A 
ATOM      4  C   UNL     1       4.508   6.066  17.614  0.00  0.00    +0.000 A 
ATOM      5  C   UNL     1       5.006   4.783  17.854  0.00  0.00    +0.000 A 
ATOM      6  C   UNL     1       5.667   4.128  16.802  0.00  0.00    +0.000 A 
ATOM      7  C   UNL     1       4.840   4.194  19.242  0.00  0.00    +0.000 C 
ATOM      8  C   UNL     1       3.385   3.939  19.649  0.00  0.00    +0.000 A 
ATOM      9  C   UNL     1       3.050   2.738  20.316  0.00  0.00    +0.000 A 
ATOM     10  C   UNL     1       1.743   2.454  20.712  0.00  0.00    +0.000 A 
ATOM     11  C   UNL     1       0.736   3.377  20.479  0.00  0.00    +0.000 A 
ATOM     12  C   UNL     1       1.043   4.587  19.861  0.00  0.00    +0.000 A 
ATOM     13  C   UNL     1       2.360   4.894  19.450  0.00  0.00    +0.000 A 
ATOM     14  C   UNL     1       2.541   6.245  18.773  0.00  0.00    +0.000 C 
ATOM     15  O   UNL     1       3.879   6.731  18.631  0.00  0.00    +0.000 OA
ENDROOT
BRANCH   7  16
ATOM     16  O   UNL     1       5.618   2.993  19.335  0.00  0.00    +0.000 OA
ATOM     17  H   UNL     1       5.056   2.349  19.795  0.00  0.00    +0.000 HD
ENDBRANCH   7  16
BRANCH   1  18
ATOM     18  C   UNL     1       6.536   4.014  14.436  0.00  0.00    +0.000 C 
BRANCH  18  19
ATOM     19  C   UNL     1       5.621   3.757  13.243  0.00  0.00    +0.000 C 
BRANCH  19  20
ATOM     20  O   UNL     1       6.217   2.781  12.395  0.00  0.00    +0.000 OA
ATOM     21  H   UNL     1       6.634   3.260  11.659  0.00  0.00    +0.000 HD
ENDBRANCH  19  20
ENDBRANCH  18  19
ENDBRANCH   1  18
TORSDOF 4
ENDMDL
MODEL 2
REMARK VINA RESULT:      -7.4      2.242      3.824
REMARK  Name = 
REMARK  4 active torsions:
REMARK  status: ('A' for Active; 'I' for Inactive)
REMARK    1  A    between atoms: O_1  and  C_2
REMARK    2  A    between atoms: C_2  and  C_3
REMARK    3  A    between atoms: C_3  and  C_4
REMARK    4  A    between atoms: C_10  and  O_11
REMARK                            x       y       z     vdW  Elec       q    Type
REMARK                         _______ _______ _______ _____ _____    ______ ____
ROOT
ATOM      1  C   UNL     1       6.915   6.195  17.727  0.00  0.00    +0.000 A 
ATOM      2  C   UNL     1       7.230   5.103  16.909  0.00  0.00    +0.000 A 
ATOM      3  C   UNL     1       6.225   4.242  16.471  0.00  0.00    +0.000 A 
ATOM      4  C   UNL     1       4.910   4.460  16.876  0.00  0.00    +0.000 A 
ATOM      5  C   UNL     1       4.556   5.544  17.683  0.00  0.00    +0.000 A 
ATOM      6  C   UNL     1       5.579   6.408  18.107  0.00  0.00    +0.000 A 
ATOM      7  C   UNL     1       3.090   5.744  18.017  0.00  0.00    +0.000 C 
ATOM      8  C   UNL     1       2.480   4.631  18.873  0.00  0.00    +0.000 A 
ATOM      9  C   UNL     1       1.617   4.968  19.942  0.00  0.00    +0.000 A 
ATOM     10  C   UNL     1       1.032   3.996  20.753  0.00  0.00    +0.000 A 
ATOM     11  C   UNL     1       1.268   2.655  20.501  0.00  0.00    +0.000 A 
ATOM     12  C   UNL     1       2.081   2.290  19.430  0.00  0.00    +0.000 A 
ATOM     13  C   UNL     1       2.685   3.258  18.597  0.00  0.00    +0.000 A 
ATOM     14  C   UNL     1       3.560   2.711  17.478  0.00  0.00    +0.000 C 
ATOM     15  O   UNL     1       3.928   3.618  16.434  0.00  0.00    +0.000 OA
ENDROOT
BRANCH   7  16
ATOM     16  O   UNL     1       2.925   7.023  18.643  0.00  0.00    +0.000 OA
ATOM     17  H   UNL     1       1.967   7.169  18.700  0.00  0.00    +0.000 HD
ENDBRANCH   7  16
BRANCH   1  18
ATOM     18  C   UNL     1       7.994   7.134  18.205  0.00  0.00    +0.000 C 
BRANCH  18  19
ATOM     19  C   UNL     1       7.816   8.545  17.653  0.00  0.00    +0.000 C 
BRANCH  19  20
ATOM     20  O   UNL     1       8.566   9.458  18.447  0.00  0.00    +0.000 OA
ATOM     21  H   UNL     1       7.929  10.064  18.863  0.00  0.00    +0.000 HD
ENDBRANCH  19  20
ENDBRANCH  18  19
ENDBRANCH   1  18
TORSDOF 4
ENDMDL
MODEL 3
REMARK VINA RESULT:      -7.3      1.206      1.290
REMARK  Name = 
REMARK  4 active torsions:
REMARK  status: ('A' for Active; 'I' for Inactive)
REMARK    1  A    between atoms: O_1  and  C_2
REMARK    2  A    between atoms: C_2  and  C_3
REMARK    3  A    between atoms: C_3  and  C_4
REMARK    4  A    between atoms: C_10  and  O_11
REMARK                            x       y       z     vdW  Elec       q    Type
REMARK                         _______ _______ _______ _____ _____    ______ ____
ROOT
ATOM      1  C   UNL     1       5.315   4.432  14.954  0.00  0.00    +0.000 A 
ATOM      2  C   UNL     1       5.790   5.690  15.342  0.00  0.00    +0.000 A 
ATOM      3  C   UNL     1       5.805   6.050  16.688  0.00  0.00    +0.000 A 
ATOM      4  C   UNL     1       5.318   5.159  17.642  0.00  0.00    +0.000 A 
ATOM      5  C   UNL     1       4.846   3.891  17.295  0.00  0.00    +0.000 A 
ATOM      6  C   UNL     1       4.847   3.540  15.935  0.00  0.00    +0.000 A 
ATOM      7  C   UNL     1       4.401   2.959  18.406  0.00  0.00    +0.000 C 
ATOM      8  C   UNL     1       3.171   3.442  19.180  0.00  0.00    +0.000 A 
ATOM      9  C   UNL     1       2.155   2.518  19.519  0.00  0.00    +0.000 A 
ATOM     10  C   UNL     1       1.015   2.901  20.224  0.00  0.00    +0.000 A 
ATOM     11  C   UNL     1       0.869   4.215  20.638  0.00  0.00    +0.000 A 
ATOM     12  C   UNL     1       1.871   5.139  20.355  0.00  0.00    +0.000 A 
ATOM     13  C   UNL     1       3.034   4.773  19.640  0.00  0.00    +0.000 A 
ATOM     14  C   UNL     1       4.034   5.893  19.390  0.00  0.00    +0.000 C 
ATOM     15  O   UNL     1       5.346   5.515  18.962  0.00  0.00    +0.000 OA
ENDROOT
BRANCH   7  16
ATOM     16  O   UNL     1       4.184   1.652  17.860  0.00  0.00    +0.000 OA
ATOM     17  H   UNL     1       3.386   1.723  17.311  0.00  0.00    +0.000 HD
ENDBRANCH   7  16
BRANCH   1  18
ATOM     18  C   UNL     1       5.296   4.030  13.501  0.00  0.00    +0.000 C 
BRANCH  18  19
ATOM     19  C   UNL     1       6.699   3.816  12.943  0.00  0.00    +0.000 C 
BRANCH  19  20
ATOM     20  O   UNL     1       6.692   2.687  12.076  0.00  0.00    +0.000 OA
ATOM     21  H   UNL     1       7.575   2.633  11.670  0.00  0.00    +0.000 HD
ENDBRANCH  19  20
ENDBRANCH  18  19
ENDBRANCH   1  18
TORSDOF 4
ENDMDL
MODEL 4
REMARK VINA RESULT:      -7.2      2.002      3.553
REMARK  Name = 
REMARK  4 active torsions:
REMARK  status: ('A' for Active; 'I' for Inactive)
REMARK    1  A    between atoms: O_1  and  C_2
REMARK    2  A    between atoms: C_2  and  C_3
REMARK    3  A    between atoms: C_3  and  C_4
REMARK    4  A    between atoms: C_10  and  O_11
REMARK                            x       y       z     vdW  Elec       q    Type
REMARK                         _______ _______ _______ _____ _____    ______ ____
ROOT
ATOM      1  C   UNL     1       6.532   6.076  17.002  0.00  0.00    +0.000 A 
ATOM      2  C   UNL     1       6.716   4.934  16.215  0.00  0.00    +0.000 A 
ATOM      3  C   UNL     1       5.670   4.030  16.035  0.00  0.00    +0.000 A 
ATOM      4  C   UNL     1       4.450   4.258  16.667  0.00  0.00    +0.000 A 
ATOM      5  C   UNL     1       4.226   5.392  17.452  0.00  0.00    +0.000 A 
ATOM      6  C   UNL     1       5.287   6.297  17.615  0.00  0.00    +0.000 A 
ATOM      7  C   UNL     1       2.844   5.595  18.044  0.00  0.00    +0.000 C 
ATOM      8  C   UNL     1       2.437   4.537  19.074  0.00  0.00    +0.000 A 
ATOM      9  C   UNL     1       1.783   4.939  20.262  0.00  0.00    +0.000 A 
ATOM     10  C   UNL     1       1.387   4.019  21.233  0.00  0.00    +0.000 A 
ATOM     11  C   UNL     1       1.608   2.666  21.031  0.00  0.00    +0.000 A 
ATOM     12  C   UNL     1       2.213   2.237  19.853  0.00  0.00    +0.000 A 
ATOM     13  C   UNL     1       2.623   3.152  18.857  0.00  0.00    +0.000 A 
ATOM     14  C   UNL     1       3.285   2.538  17.631  0.00  0.00    +0.000 C 
ATOM     15  O   UNL     1       3.425   3.373  16.477  0.00  0.00    +0.000 OA
ENDROOT
BRANCH   7  16
ATOM     16  O   UNL     1       2.766   6.914  18.603  0.00  0.00    +0.000 OA
ATOM     17  H   UNL     1       3.322   7.474  18.037  0.00  0.00    +0.000 HD
ENDBRANCH   7  16
BRANCH   1  18
ATOM     18  C   UNL     1       7.656   7.062  17.202  0.00  0.00    +0.000 C 
BRANCH  18  19
ATOM     19  C   UNL     1       8.024   7.226  18.673  0.00  0.00    +0.000 C 
BRANCH  19  20
ATOM     20  O   UNL     1       8.286   5.945  19.237  0.00  0.00    +0.000 OA
ATOM     21  H   UNL     1       9.063   6.040  19.814  0.00  0.00    +0.000 HD
ENDBRANCH  19  20
ENDBRANCH  18  19
ENDBRANCH   1  18
TORSDOF 4
ENDMDL
MODEL 5
REMARK VINA RESULT:      -6.8      3.423      6.286
REMARK  Name = 
REMARK  4 active torsions:
REMARK  status: ('A' for Active; 'I' for Inactive)
REMARK    1  A    between atoms: O_1  and  C_2
REMARK    2  A    between atoms: C_2  and  C_3
REMARK    3  A    between atoms: C_3  and  C_4
REMARK    4  A    between atoms: C_10  and  O_11
REMARK                            x       y       z     vdW  Elec       q    Type
REMARK                         _______ _______ _______ _____ _____    ______ ____
ROOT
ATOM      1  C   UNL     1       1.725   4.361  19.665  0.00  0.00    +0.000 A 
ATOM      2  C   UNL     1       2.331   4.418  18.404  0.00  0.00    +0.000 A 
ATOM      3  C   UNL     1       2.772   5.637  17.892  0.00  0.00    +0.000 A 
ATOM      4  C   UNL     1       2.582   6.802  18.633  0.00  0.00    +0.000 A 
ATOM      5  C   UNL     1       1.992   6.783  19.900  0.00  0.00    +0.000 A 
ATOM      6  C   UNL     1       1.561   5.545  20.405  0.00  0.00    +0.000 A 
ATOM      7  C   UNL     1       1.890   8.088  20.665  0.00  0.00    +0.000 C 
ATOM      8  C   UNL     1       0.974   9.130  20.016  0.00  0.00    +0.000 A 
ATOM      9  C   UNL     1       0.089   9.879  20.827  0.00  0.00    +0.000 A 
ATOM     10  C   UNL     1      -0.766  10.842  20.291  0.00  0.00    +0.000 A 
ATOM     11  C   UNL     1      -0.741  11.106  18.931  0.00  0.00    +0.000 A 
ATOM     12  C   UNL     1       0.149  10.413  18.113  0.00  0.00    +0.000 A 
ATOM     13  C   UNL     1       1.022   9.432  18.635  0.00  0.00    +0.000 A 
ATOM     14  C   UNL     1       1.925   8.746  17.619  0.00  0.00    +0.000 C 
ATOM     15  O   UNL     1       3.028   7.992  18.130  0.00  0.00    +0.000 OA
ENDROOT
BRANCH   7  16
ATOM     16  O   UNL     1       1.479   7.809  22.010  0.00  0.00    +0.000 OA
ATOM     17  H   UNL     1       1.050   8.619  22.330  0.00  0.00    +0.000 HD
ENDBRANCH   7  16
BRANCH   1  18
ATOM     18  C   UNL     1       1.245   3.048  20.230  0.00  0.00    +0.000 C 
BRANCH  18  19
ATOM     19  C   UNL     1       1.484   2.944  21.733  0.00  0.00    +0.000 C 
BRANCH  19  20
ATOM     20  O   UNL     1       2.817   2.503  21.967  0.00  0.00    +0.000 OA
ATOM     21  H   UNL     1       3.383   3.295  21.973  0.00  0.00    +0.000 HD
ENDBRANCH  19  20
ENDBRANCH  18  19
ENDBRANCH   1  18
TORSDOF 4
ENDMDL
MODEL 6
REMARK VINA RESULT:      -6.7      2.310      5.861
REMARK  Name = 
REMARK  4 active torsions:
REMARK  status: ('A' for Active; 'I' for Inactive)
REMARK    1  A    between atoms: O_1  and  C_2
REMARK    2  A    between atoms: C_2  and  C_3
REMARK    3  A    between atoms: C_3  and  C_4
REMARK    4  A    between atoms: C_10  and  O_11
REMARK                            x       y       z     vdW  Elec       q    Type
REMARK                         _______ _______ _______ _____ _____    ______ ____
ROOT
ATOM      1  C   UNL     1       1.976   3.973  19.275  0.00  0.00    +0.000 A 
ATOM      2  C   UNL     1       1.529   3.964  17.949  0.00  0.00    +0.000 A 
ATOM      3  C   UNL     1       2.443   4.027  16.899  0.00  0.00    +0.000 A 
ATOM      4  C   UNL     1       3.805   4.125  17.181  0.00  0.00    +0.000 A 
ATOM      5  C   UNL     1       4.289   4.125  18.491  0.00  0.00    +0.000 A 
ATOM      6  C   UNL     1       3.355   4.052  19.537  0.00  0.00    +0.000 A 
ATOM      7  C   UNL     1       5.791   4.163  18.703  0.00  0.00    +0.000 C 
ATOM      8  C   UNL     1       6.463   5.453  18.225  0.00  0.00    +0.000 A 
ATOM      9  C   UNL     1       7.460   6.057  19.026  0.00  0.00    +0.000 A 
ATOM     10  C   UNL     1       8.106   7.231  18.640  0.00  0.00    +0.000 A 
ATOM     11  C   UNL     1       7.797   7.820  17.425  0.00  0.00    +0.000 A 
ATOM     12  C   UNL     1       6.849   7.227  16.596  0.00  0.00    +0.000 A 
ATOM     13  C   UNL     1       6.181   6.039  16.968  0.00  0.00    +0.000 A 
ATOM     14  C   UNL     1       5.159   5.516  15.968  0.00  0.00    +0.000 C 
ATOM     15  O   UNL     1       4.697   4.174  16.146  0.00  0.00    +0.000 OA
ENDROOT
BRANCH   7  16
ATOM     16  O   UNL     1       6.073   3.919  20.087  0.00  0.00    +0.000 OA
ATOM     17  H   UNL     1       5.751   3.021  20.268  0.00  0.00    +0.000 HD
ENDBRANCH   7  16
BRANCH   1  18
ATOM     18  C   UNL     1       0.995   3.904  20.419  0.00  0.00    +0.000 C 
BRANCH  18  19
ATOM     19  C   UNL     1       1.263   2.717  21.338  0.00  0.00    +0.000 C 
BRANCH  19  20
ATOM     20  O   UNL     1       2.096   3.136  22.414  0.00  0.00    +0.000 OA
ATOM     21  H   UNL     1       1.509   3.365  23.156  0.00  0.00    +0.000 HD
ENDBRANCH  19  20
ENDBRANCH  18  19
ENDBRANCH   1  18
TORSDOF 4
ENDMDL
MODEL 7
REMARK VINA RESULT:      -6.6      2.180      3.388
REMARK  Name = 
REMARK  4 active torsions:
REMARK  status: ('A' for Active; 'I' for Inactive)
REMARK    1  A    between atoms: O_1  and  C_2
REMARK    2  A    between atoms: C_2  and  C_3
REMARK    3  A    between atoms: C_3  and  C_4
REMARK    4  A    between atoms: C_10  and  O_11
REMARK                            x       y       z     vdW  Elec       q    Type
REMARK                         _______ _______ _______ _____ _____    ______ ____
ROOT
ATOM      1  C   UNL     1       6.111   3.612  13.055  0.00  0.00    +0.000 A 
ATOM      2  C   UNL     1       7.053   4.643  12.956  0.00  0.00    +0.000 A 
ATOM      3  C   UNL     1       7.363   5.420  14.071  0.00  0.00    +0.000 A 
ATOM      4  C   UNL     1       6.708   5.179  15.278  0.00  0.00    +0.000 A 
ATOM      5  C   UNL     1       5.771   4.153  15.418  0.00  0.00    +0.000 A 
ATOM      6  C   UNL     1       5.478   3.373  14.287  0.00  0.00    +0.000 A 
ATOM      7  C   UNL     1       5.161   3.917  16.786  0.00  0.00    +0.000 C 
ATOM      8  C   UNL     1       4.294   5.071  17.297  0.00  0.00    +0.000 A 
ATOM      9  C   UNL     1       3.063   4.787  17.934  0.00  0.00    +0.000 A 
ATOM     10  C   UNL     1       2.234   5.798  18.420  0.00  0.00    +0.000 A 
ATOM     11  C   UNL     1       2.624   7.122  18.312  0.00  0.00    +0.000 A 
ATOM     12  C   UNL     1       3.850   7.431  17.727  0.00  0.00    +0.000 A 
ATOM     13  C   UNL     1       4.704   6.423  17.225  0.00  0.00    +0.000 A 
ATOM     14  C   UNL     1       6.003   6.912  16.598  0.00  0.00    +0.000 C 
ATOM     15  O   UNL     1       7.026   5.938  16.371  0.00  0.00    +0.000 OA
ENDROOT
BRANCH   7  16
ATOM     16  O   UNL     1       4.421   2.689  16.762  0.00  0.00    +0.000 OA
ATOM     17  H   UNL     1       3.512   2.923  17.009  0.00  0.00    +0.000 HD
ENDBRANCH   7  16
BRANCH   1  18
ATOM     18  C   UNL     1       5.770   2.764  11.855  0.00  0.00    +0.000 C 
BRANCH  18  19
ATOM     19  C   UNL     1       6.965   1.956  11.361  0.00  0.00    +0.000 C 
BRANCH  19  20
ATOM     20  O   UNL     1       6.582   0.594  11.211  0.00  0.00    +0.000 OA
ATOM     21  H   UNL     1       5.646   0.531  11.468  0.00  0.00    +0.000 HD
ENDBRANCH  19  20
ENDBRANCH  18  19
ENDBRANCH   1  18
TORSDOF 4
ENDMDL
MODEL 8
REMARK VINA RESULT:      -6.6      3.806      6.444
REMARK  Name = 
REMARK  4 active torsions:
REMARK  status: ('A' for Active; 'I' for Inactive)
REMARK    1  A    between atoms: O_1  and  C_2
REMARK    2  A    between atoms: C_2  and  C_3
REMARK    3  A    between atoms: C_3  and  C_4
REMARK    4  A    between atoms: C_10  and  O_11
REMARK                            x       y       z     vdW  Elec       q    Type
REMARK                         _______ _______ _______ _____ _____    ______ ____
ROOT
ATOM      1  C   UNL     1       1.830   4.958  20.114  0.00  0.00    +0.000 A 
ATOM      2  C   UNL     1       2.302   4.958  18.796  0.00  0.00    +0.000 A 
ATOM      3  C   UNL     1       2.582   6.162  18.151  0.00  0.00    +0.000 A 
ATOM      4  C   UNL     1       2.362   7.365  18.819  0.00  0.00    +0.000 A 
ATOM      5  C   UNL     1       1.903   7.404  20.138  0.00  0.00    +0.000 A 
ATOM      6  C   UNL     1       1.635   6.182  20.776  0.00  0.00    +0.000 A 
ATOM      7  C   UNL     1       1.761   8.756  20.810  0.00  0.00    +0.000 C 
ATOM      8  C   UNL     1       0.698   9.663  20.185  0.00  0.00    +0.000 A 
ATOM      9  C   UNL     1      -0.166  10.404  21.025  0.00  0.00    +0.000 A 
ATOM     10  C   UNL     1      -1.151  11.247  20.511  0.00  0.00    +0.000 A 
ATOM     11  C   UNL     1      -1.283  11.398  19.140  0.00  0.00    +0.000 A 
ATOM     12  C   UNL     1      -0.420  10.713  18.288  0.00  0.00    +0.000 A 
ATOM     13  C   UNL     1       0.583   9.852  18.788  0.00  0.00    +0.000 A 
ATOM     14  C   UNL     1       1.440   9.159  17.737  0.00  0.00    +0.000 C 
ATOM     15  O   UNL     1       2.650   8.541  18.185  0.00  0.00    +0.000 OA
ENDROOT
BRANCH   7  16
ATOM     16  O   UNL     1       1.511   8.557  22.208  0.00  0.00    +0.000 OA
ATOM     17  H   UNL     1       1.136   9.393  22.531  0.00  0.00    +0.000 HD
ENDBRANCH   7  16
BRANCH   1  18
ATOM     18  C   UNL     1       1.526   3.661  20.822  0.00  0.00    +0.000 C 
BRANCH  18  19
ATOM     19  C   UNL     1       1.382   2.494  19.851  0.00  0.00    +0.000 C 
BRANCH  19  20
ATOM     20  O   UNL     1       0.049   2.462  19.350  0.00  0.00    +0.000 OA
ATOM     21  H   UNL     1      -0.212   1.527  19.295  0.00  0.00    +0.000 HD
ENDBRANCH  19  20
ENDBRANCH  18  19
ENDBRANCH   1  18
TORSDOF 4
ENDMDL
MODEL 9
REMARK VINA RESULT:      -6.5      3.037      5.728
REMARK  Name = 
REMARK  4 active torsions:
REMARK  status: ('A' for Active; 'I' for Inactive)
REMARK    1  A    between atoms: O_1  and  C_2
REMARK    2  A    between atoms: C_2  and  C_3
REMARK    3  A    between atoms: C_3  and  C_4
REMARK    4  A    between atoms: C_10  and  O_11
REMARK                            x       y       z     vdW  Elec       q    Type
REMARK                         _______ _______ _______ _____ _____    ______ ____
ROOT
ATOM      1  C   UNL     1       1.208   9.424  19.042  0.00  0.00    +0.000 A 
ATOM      2  C   UNL     1       0.674   9.238  20.323  0.00  0.00    +0.000 A 
ATOM      3  C   UNL     1       1.013   8.111  21.068  0.00  0.00    +0.000 A 
ATOM      4  C   UNL     1       1.866   7.156  20.518  0.00  0.00    +0.000 A 
ATOM      5  C   UNL     1       2.427   7.312  19.248  0.00  0.00    +0.000 A 
ATOM      6  C   UNL     1       2.082   8.459  18.514  0.00  0.00    +0.000 A 
ATOM      7  C   UNL     1       3.401   6.258  18.758  0.00  0.00    +0.000 C 
ATOM      8  C   UNL     1       2.780   4.873  18.550  0.00  0.00    +0.000 A 
ATOM      9  C   UNL     1       3.123   4.122  17.402  0.00  0.00    +0.000 A 
ATOM     10  C   UNL     1       2.591   2.855  17.163  0.00  0.00    +0.000 A 
ATOM     11  C   UNL     1       1.722   2.288  18.081  0.00  0.00    +0.000 A 
ATOM     12  C   UNL     1       1.397   2.986  19.241  0.00  0.00    +0.000 A 
ATOM     13  C   UNL     1       1.924   4.272  19.502  0.00  0.00    +0.000 A 
ATOM     14  C   UNL     1       1.467   4.920  20.802  0.00  0.00    +0.000 C 
ATOM     15  O   UNL     1       2.203   6.058  21.259  0.00  0.00    +0.000 OA
ENDROOT
BRANCH   7  16
ATOM     16  O   UNL     1       4.028   6.726  17.556  0.00  0.00    +0.000 OA
ATOM     17  H   UNL     1       3.391   6.558  16.842  0.00  0.00    +0.000 HD
ENDBRANCH   7  16
BRANCH   1  18
ATOM     18  C   UNL     1       0.849  10.642  18.228  0.00  0.00    +0.000 C 
BRANCH  18  19
ATOM     19  C   UNL     1       1.716  11.846  18.579  0.00  0.00    +0.000 C 
BRANCH  19  20
ATOM     20  O   UNL     1       2.577  12.140  17.484  0.00  0.00    +0.000 OA
ATOM     21  H   UNL     1       3.483  12.183  17.837  0.00  0.00    +0.000 HD
ENDBRANCH  19  20
ENDBRANCH  18  19
ENDBRANCH   1  18
TORSDOF 4
ENDMDL
