MODEL 1
REMARK VINA RESULT:      -6.6      0.000      0.000
REMARK  Name = 
REMARK  6 active torsions:
REMARK  status: ('A' for Active; 'I' for Inactive)
REMARK    1  A    between atoms: C_1  and  C_2
REMARK    2  A    between atoms: C_19  and  C_21
REMARK    3  A    between atoms: C_21  and  C_22
REMARK    4  A    between atoms: C_22  and  N_23
REMARK    5  A    between atoms: N_23  and  C_24
REMARK    6  A    between atoms: N_23  and  C_25
REMARK                            x       y       z     vdW  Elec       q    Type
REMARK                         _______ _______ _______ _____ _____    ______ ____
ROOT
ATOM      1  C   UNL     1      -1.460  14.123  20.819  0.00  0.00    +0.000 C 
ATOM      2  C   UNL     1      -2.452  13.131  20.183  0.00  0.00    +0.000 C 
ATOM      3  C   UNL     1      -3.613  12.829  21.093  0.00  0.00    +0.000 A 
ATOM      4  C   UNL     1      -3.629  12.951  22.492  0.00  0.00    +0.000 A 
ATOM      5  C   UNL     1      -4.845  13.006  23.208  0.00  0.00    +0.000 A 
ATOM      6  C   UNL     1      -6.068  12.996  22.542  0.00  0.00    +0.000 A 
ATOM      7  C   UNL     1      -6.031  12.764  21.187  0.00  0.00    +0.000 A 
ATOM      8  C   UNL     1      -4.823  12.578  20.491  0.00  0.00    +0.000 A 
ATOM      9  N   UNL     1      -5.050  12.110  19.173  0.00  0.00    +0.000 N 
ATOM     10  C   UNL     1      -6.433  11.575  19.320  0.00  0.00    +0.000 C 
ATOM     11  C   UNL     1      -7.145  12.597  20.212  0.00  0.00    +0.000 C 
ATOM     12  C   UNL     1      -4.183  11.665  18.162  0.00  0.00    +0.000 A 
ATOM     13  C   UNL     1      -4.787  11.302  16.928  0.00  0.00    +0.000 A 
ATOM     14  C   UNL     1      -4.073  10.869  15.817  0.00  0.00    +0.000 A 
ATOM     15  C   UNL     1      -2.698  10.793  15.901  0.00  0.00    +0.000 A 
ATOM     16  C   UNL     1      -2.058  11.155  17.087  0.00  0.00    +0.000 A 
ATOM     17  C   UNL     1      -2.754  11.582  18.248  0.00  0.00    +0.000 A 
ATOM     18  N   UNL     1      -1.945  11.955  19.423  0.00  0.00    +0.000 N 
ATOM     19  C   UNL     1      -0.778  11.210  19.710  0.00  0.00    +0.000 C 
ATOM     20  O   UNL     1      -0.435  10.197  19.088  0.00  0.00    +0.000 OA
ENDROOT
BRANCH  19  21
ATOM     21  C   UNL     1       0.094  11.652  20.871  0.00  0.00    +0.000 C 
BRANCH  21  22
ATOM     22  C   UNL     1       0.908  10.520  21.518  0.00  0.00    +0.000 C 
BRANCH  22  23
ATOM     23  N   UNL     1       0.182   9.880  22.643  0.00  0.00    +0.000 NA
ATOM     24  C   UNL     1      -0.929  10.707  23.120  0.00  0.00    +0.000 C 
ATOM     25  C   UNL     1      -0.327   8.567  22.233  0.00  0.00    +0.000 C 
ENDBRANCH  22  23
ENDBRANCH  21  22
ENDBRANCH  19  21
TORSDOF 3
ENDMDL
MODEL 2
REMARK VINA RESULT:      -6.6      0.957      1.059
REMARK  Name = 
REMARK  6 active torsions:
REMARK  status: ('A' for Active; 'I' for Inactive)
REMARK    1  A    between atoms: C_1  and  C_2
REMARK    2  A    between atoms: C_19  and  C_21
REMARK    3  A    between atoms: C_21  and  C_22
REMARK    4  A    between atoms: C_22  and  N_23
REMARK    5  A    between atoms: N_23  and  C_24
REMARK    6  A    between atoms: N_23  and  C_25
REMARK                            x       y       z     vdW  Elec       q    Type
REMARK                         _______ _______ _______ _____ _____    ______ ____
ROOT
ATOM      1  C   UNL     1      -1.521  14.021  21.638  0.00  0.00    +0.000 C 
ATOM      2  C   UNL     1      -2.626  13.145  21.019  0.00  0.00    +0.000 C 
ATOM      3  C   UNL     1      -3.693  12.789  22.020  0.00  0.00    +0.000 A 
ATOM      4  C   UNL     1      -3.547  12.754  23.416  0.00  0.00    +0.000 A 
ATOM      5  C   UNL     1      -4.672  12.776  24.270  0.00  0.00    +0.000 A 
ATOM      6  C   UNL     1      -5.960  12.887  23.753  0.00  0.00    +0.000 A 
ATOM      7  C   UNL     1      -6.086  12.806  22.386  0.00  0.00    +0.000 A 
ATOM      8  C   UNL     1      -4.974  12.652  21.539  0.00  0.00    +0.000 A 
ATOM      9  N   UNL     1      -5.369  12.343  20.214  0.00  0.00    +0.000 N 
ATOM     10  C   UNL     1      -6.752  11.848  20.462  0.00  0.00    +0.000 C 
ATOM     11  C   UNL     1      -7.308  12.791  21.535  0.00  0.00    +0.000 C 
ATOM     12  C   UNL     1      -4.643  11.981  19.068  0.00  0.00    +0.000 A 
ATOM     13  C   UNL     1      -5.398  11.780  17.880  0.00  0.00    +0.000 A 
ATOM     14  C   UNL     1      -4.834  11.447  16.654  0.00  0.00    +0.000 A 
ATOM     15  C   UNL     1      -3.465  11.310  16.570  0.00  0.00    +0.000 A 
ATOM     16  C   UNL     1      -2.680  11.512  17.706  0.00  0.00    +0.000 A 
ATOM     17  C   UNL     1      -3.220  11.834  18.978  0.00  0.00    +0.000 A 
ATOM     18  N   UNL     1      -2.267  12.043  20.085  0.00  0.00    +0.000 N 
ATOM     19  C   UNL     1      -1.115  11.226  20.153  0.00  0.00    +0.000 C 
ATOM     20  O   UNL     1      -0.895  10.276  19.392  0.00  0.00    +0.000 OA
ENDROOT
BRANCH  19  21
ATOM     21  C   UNL     1      -0.098  11.502  21.246  0.00  0.00    +0.000 C 
BRANCH  21  22
ATOM     22  C   UNL     1       1.167  10.634  21.167  0.00  0.00    +0.000 C 
BRANCH  22  23
ATOM     23  N   UNL     1       1.166   9.545  22.175  0.00  0.00    +0.000 NA
ATOM     24  C   UNL     1       0.012   9.634  23.074  0.00  0.00    +0.000 C 
ATOM     25  C   UNL     1       1.166   8.240  21.508  0.00  0.00    +0.000 C 
ENDBRANCH  22  23
ENDBRANCH  21  22
ENDBRANCH  19  21
TORSDOF 3
ENDMDL
MODEL 3
REMARK VINA RESULT:      -6.6      7.479     10.696
REMARK  Name = 
REMARK  6 active torsions:
REMARK  status: ('A' for Active; 'I' for Inactive)
REMARK    1  A    between atoms: C_1  and  C_2
REMARK    2  A    between atoms: C_19  and  C_21
REMARK    3  A    between atoms: C_21  and  C_22
REMARK    4  A    between atoms: C_22  and  N_23
REMARK    5  A    between atoms: N_23  and  C_24
REMARK    6  A    between atoms: N_23  and  C_25
REMARK                            x       y       z     vdW  Elec       q    Type
REMARK                         _______ _______ _______ _____ _____    ______ ____
ROOT
ATOM      1  C   UNL     1       6.821   5.349  18.899  0.00  0.00    +0.000 C 
ATOM      2  C   UNL     1       5.296   5.554  18.856  0.00  0.00    +0.000 C 
ATOM      3  C   UNL     1       4.546   4.304  19.237  0.00  0.00    +0.000 A 
ATOM      4  C   UNL     1       5.024   2.987  19.150  0.00  0.00    +0.000 A 
ATOM      5  C   UNL     1       4.407   1.936  19.864  0.00  0.00    +0.000 A 
ATOM      6  C   UNL     1       3.337   2.185  20.720  0.00  0.00    +0.000 A 
ATOM      7  C   UNL     1       2.815   3.457  20.702  0.00  0.00    +0.000 A 
ATOM      8  C   UNL     1       3.349   4.474  19.891  0.00  0.00    +0.000 A 
ATOM      9  N   UNL     1       2.501   5.609  19.856  0.00  0.00    +0.000 N 
ATOM     10  C   UNL     1       1.220   4.992  20.301  0.00  0.00    +0.000 C 
ATOM     11  C   UNL     1       1.631   4.018  21.411  0.00  0.00    +0.000 C 
ATOM     12  C   UNL     1       2.534   6.795  19.105  0.00  0.00    +0.000 A 
ATOM     13  C   UNL     1       1.509   7.742  19.376  0.00  0.00    +0.000 A 
ATOM     14  C   UNL     1       1.412   8.977  18.744  0.00  0.00    +0.000 A 
ATOM     15  C   UNL     1       2.364   9.318  17.807  0.00  0.00    +0.000 A 
ATOM     16  C   UNL     1       3.399   8.427  17.518  0.00  0.00    +0.000 A 
ATOM     17  C   UNL     1       3.520   7.151  18.127  0.00  0.00    +0.000 A 
ATOM     18  N   UNL     1       4.679   6.324  17.741  0.00  0.00    +0.000 N 
ATOM     19  C   UNL     1       5.114   6.349  16.396  0.00  0.00    +0.000 C 
ATOM     20  O   UNL     1       4.526   6.952  15.490  0.00  0.00    +0.000 OA
ENDROOT
BRANCH  19  21
ATOM     21  C   UNL     1       6.357   5.561  16.025  0.00  0.00    +0.000 C 
BRANCH  21  22
ATOM     22  C   UNL     1       6.075   4.149  15.488  0.00  0.00    +0.000 C 
BRANCH  22  23
ATOM     23  N   UNL     1       6.650   3.937  14.137  0.00  0.00    +0.000 NA
ATOM     24  C   UNL     1       5.612   3.692  13.132  0.00  0.00    +0.000 C 
ATOM     25  C   UNL     1       7.449   5.100  13.740  0.00  0.00    +0.000 C 
ENDBRANCH  22  23
ENDBRANCH  21  22
ENDBRANCH  19  21
TORSDOF 3
ENDMDL
MODEL 4
REMARK VINA RESULT:      -6.5      1.962      3.992
REMARK  Name = 
REMARK  6 active torsions:
REMARK  status: ('A' for Active; 'I' for Inactive)
REMARK    1  A    between atoms: C_1  and  C_2
REMARK    2  A    between atoms: C_19  and  C_21
REMARK    3  A    between atoms: C_21  and  C_22
REMARK    4  A    between atoms: C_22  and  N_23
REMARK    5  A    between atoms: N_23  and  C_24
REMARK    6  A    between atoms: N_23  and  C_25
REMARK                            x       y       z     vdW  Elec       q    Type
REMARK                         _______ _______ _______ _____ _____    ______ ____
ROOT
ATOM      1  C   UNL     1      -2.452  14.386  20.943  0.00  0.00    +0.000 C 
ATOM      2  C   UNL     1      -2.335  13.013  20.257  0.00  0.00    +0.000 C 
ATOM      3  C   UNL     1      -3.658  12.532  19.723  0.00  0.00    +0.000 A 
ATOM      4  C   UNL     1      -4.930  12.923  20.173  0.00  0.00    +0.000 A 
ATOM      5  C   UNL     1      -6.082  12.714  19.383  0.00  0.00    +0.000 A 
ATOM      6  C   UNL     1      -5.984  12.160  18.109  0.00  0.00    +0.000 A 
ATOM      7  C   UNL     1      -4.750  11.682  17.736  0.00  0.00    +0.000 A 
ATOM      8  C   UNL     1      -3.627  11.773  18.577  0.00  0.00    +0.000 A 
ATOM      9  N   UNL     1      -2.547  10.998  18.086  0.00  0.00    +0.000 N 
ATOM     10  C   UNL     1      -3.281  10.073  17.177  0.00  0.00    +0.000 C 
ATOM     11  C   UNL     1      -4.335  10.957  16.503  0.00  0.00    +0.000 C 
ATOM     12  C   UNL     1      -1.291  10.673  18.624  0.00  0.00    +0.000 A 
ATOM     13  C   UNL     1      -0.439   9.885  17.804  0.00  0.00    +0.000 A 
ATOM     14  C   UNL     1       0.845   9.499  18.171  0.00  0.00    +0.000 A 
ATOM     15  C   UNL     1       1.335   9.906  19.394  0.00  0.00    +0.000 A 
ATOM     16  C   UNL     1       0.541  10.695  20.228  0.00  0.00    +0.000 A 
ATOM     17  C   UNL     1      -0.780  11.092  19.896  0.00  0.00    +0.000 A 
ATOM     18  N   UNL     1      -1.494  11.945  20.865  0.00  0.00    +0.000 N 
ATOM     19  C   UNL     1      -1.308  11.708  22.247  0.00  0.00    +0.000 C 
ATOM     20  O   UNL     1      -0.652  10.764  22.704  0.00  0.00    +0.000 OA
ENDROOT
BRANCH  19  21
ATOM     21  C   UNL     1      -1.979  12.643  23.237  0.00  0.00    +0.000 C 
BRANCH  21  22
ATOM     22  C   UNL     1      -3.348  12.157  23.737  0.00  0.00    +0.000 C 
BRANCH  22  23
ATOM     23  N   UNL     1      -4.076  13.210  24.488  0.00  0.00    +0.000 NA
ATOM     24  C   UNL     1      -3.233  14.379  24.748  0.00  0.00    +0.000 C 
ATOM     25  C   UNL     1      -5.271  13.625  23.745  0.00  0.00    +0.000 C 
ENDBRANCH  22  23
ENDBRANCH  21  22
ENDBRANCH  19  21
TORSDOF 3
ENDMDL
MODEL 5
REMARK VINA RESULT:      -6.4      1.307      2.009
REMARK  Name = 
REMARK  6 active torsions:
REMARK  status: ('A' for Active; 'I' for Inactive)
REMARK    1  A    between atoms: C_1  and  C_2
REMARK    2  A    between atoms: C_19  and  C_21
REMARK    3  A    between atoms: C_21  and  C_22
REMARK    4  A    between atoms: C_22  and  N_23
REMARK    5  A    between atoms: N_23  and  C_24
REMARK    6  A    between atoms: N_23  and  C_25
REMARK                            x       y       z     vdW  Elec       q    Type
REMARK                         _______ _______ _______ _____ _____    ______ ____
ROOT
ATOM      1  C   UNL     1      -1.673  14.285  21.041  0.00  0.00    +0.000 C 
ATOM      2  C   UNL     1      -2.612  13.240  20.412  0.00  0.00    +0.000 C 
ATOM      3  C   UNL     1      -3.746  12.871  21.333  0.00  0.00    +0.000 A 
ATOM      4  C   UNL     1      -3.755  12.989  22.732  0.00  0.00    +0.000 A 
ATOM      5  C   UNL     1      -4.965  12.974  23.460  0.00  0.00    +0.000 A 
ATOM      6  C   UNL     1      -6.192  12.895  22.806  0.00  0.00    +0.000 A 
ATOM      7  C   UNL     1      -6.155  12.667  21.450  0.00  0.00    +0.000 A 
ATOM      8  C   UNL     1      -4.945  12.551  20.743  0.00  0.00    +0.000 A 
ATOM      9  N   UNL     1      -5.158  12.073  19.426  0.00  0.00    +0.000 N 
ATOM     10  C   UNL     1      -6.506  11.459  19.585  0.00  0.00    +0.000 C 
ATOM     11  C   UNL     1      -7.267  12.437  20.486  0.00  0.00    +0.000 C 
ATOM     12  C   UNL     1      -4.276  11.680  18.405  0.00  0.00    +0.000 A 
ATOM     13  C   UNL     1      -4.871  11.283  17.177  0.00  0.00    +0.000 A 
ATOM     14  C   UNL     1      -4.144  10.894  16.058  0.00  0.00    +0.000 A 
ATOM     15  C   UNL     1      -2.766  10.897  16.129  0.00  0.00    +0.000 A 
ATOM     16  C   UNL     1      -2.137  11.293  17.309  0.00  0.00    +0.000 A 
ATOM     17  C   UNL     1      -2.845  11.678  18.477  0.00  0.00    +0.000 A 
ATOM     18  N   UNL     1      -2.046  12.095  19.645  0.00  0.00    +0.000 N 
ATOM     19  C   UNL     1      -0.836  11.418  19.920  0.00  0.00    +0.000 C 
ATOM     20  O   UNL     1      -0.442  10.427  19.293  0.00  0.00    +0.000 OA
ENDROOT
BRANCH  19  21
ATOM     21  C   UNL     1       0.020  11.907  21.073  0.00  0.00    +0.000 C 
BRANCH  21  22
ATOM     22  C   UNL     1       1.444  12.323  20.673  0.00  0.00    +0.000 C 
BRANCH  22  23
ATOM     23  N   UNL     1       1.453  13.248  19.512  0.00  0.00    +0.000 NA
ATOM     24  C   UNL     1       1.915  14.587  19.883  0.00  0.00    +0.000 C 
ATOM     25  C   UNL     1       2.307  12.714  18.447  0.00  0.00    +0.000 C 
ENDBRANCH  22  23
ENDBRANCH  21  22
ENDBRANCH  19  21
TORSDOF 3
ENDMDL
MODEL 6
REMARK VINA RESULT:      -6.3      1.129      1.584
REMARK  Name = 
REMARK  6 active torsions:
REMARK  status: ('A' for Active; 'I' for Inactive)
REMARK    1  A    between atoms: C_1  and  C_2
REMARK    2  A    between atoms: C_19  and  C_21
REMARK    3  A    between atoms: C_21  and  C_22
REMARK    4  A    between atoms: C_22  and  N_23
REMARK    5  A    between atoms: N_23  and  C_24
REMARK    6  A    between atoms: N_23  and  C_25
REMARK                            x       y       z     vdW  Elec       q    Type
REMARK                         _______ _______ _______ _____ _____    ______ ____
ROOT
ATOM      1  C   UNL     1       0.069  13.713  20.025  0.00  0.00    +0.000 C 
ATOM      2  C   UNL     1      -1.223  12.924  19.748  0.00  0.00    +0.000 C 
ATOM      3  C   UNL     1      -2.063  12.759  20.986  0.00  0.00    +0.000 A 
ATOM      4  C   UNL     1      -1.608  12.807  22.314  0.00  0.00    +0.000 A 
ATOM      5  C   UNL     1      -2.502  13.014  23.387  0.00  0.00    +0.000 A 
ATOM      6  C   UNL     1      -3.858  13.231  23.156  0.00  0.00    +0.000 A 
ATOM      7  C   UNL     1      -4.299  13.067  21.864  0.00  0.00    +0.000 A 
ATOM      8  C   UNL     1      -3.426  12.732  20.812  0.00  0.00    +0.000 A 
ATOM      9  N   UNL     1      -4.139  12.376  19.641  0.00  0.00    +0.000 N 
ATOM     10  C   UNL     1      -5.469  12.056  20.230  0.00  0.00    +0.000 C 
ATOM     11  C   UNL     1      -5.678  13.128  21.305  0.00  0.00    +0.000 C 
ATOM     12  C   UNL     1      -3.728  11.855  18.402  0.00  0.00    +0.000 A 
ATOM     13  C   UNL     1      -4.749  11.656  17.433  0.00  0.00    +0.000 A 
ATOM     14  C   UNL     1      -4.511  11.176  16.150  0.00  0.00    +0.000 A 
ATOM     15  C   UNL     1      -3.215  10.883  15.782  0.00  0.00    +0.000 A 
ATOM     16  C   UNL     1      -2.178  11.077  16.694  0.00  0.00    +0.000 A 
ATOM     17  C   UNL     1      -2.383  11.545  18.018  0.00  0.00    +0.000 A 
ATOM     18  N   UNL     1      -1.189  11.725  18.865  0.00  0.00    +0.000 N 
ATOM     19  C   UNL     1      -0.131  10.792  18.757  0.00  0.00    +0.000 C 
ATOM     20  O   UNL     1      -0.179   9.772  18.058  0.00  0.00    +0.000 OA
ENDROOT
BRANCH  19  21
ATOM     21  C   UNL     1       1.128  11.030  19.570  0.00  0.00    +0.000 C 
BRANCH  21  22
ATOM     22  C   UNL     1       1.054  10.516  21.016  0.00  0.00    +0.000 C 
BRANCH  22  23
ATOM     23  N   UNL     1       0.347   9.215  21.113  0.00  0.00    +0.000 NA
ATOM     24  C   UNL     1       1.274   8.082  21.051  0.00  0.00    +0.000 C 
ATOM     25  C   UNL     1      -0.421   9.149  22.360  0.00  0.00    +0.000 C 
ENDBRANCH  22  23
ENDBRANCH  21  22
ENDBRANCH  19  21
TORSDOF 3
ENDMDL
MODEL 7
REMARK VINA RESULT:      -6.2      1.913      4.616
REMARK  Name = 
REMARK  6 active torsions:
REMARK  status: ('A' for Active; 'I' for Inactive)
REMARK    1  A    between atoms: C_1  and  C_2
REMARK    2  A    between atoms: C_19  and  C_21
REMARK    3  A    between atoms: C_21  and  C_22
REMARK    4  A    between atoms: C_22  and  N_23
REMARK    5  A    between atoms: N_23  and  C_24
REMARK    6  A    between atoms: N_23  and  C_25
REMARK                            x       y       z     vdW  Elec       q    Type
REMARK                         _______ _______ _______ _____ _____    ______ ____
ROOT
ATOM      1  C   UNL     1      -3.932  14.823  21.007  0.00  0.00    +0.000 C 
ATOM      2  C   UNL     1      -3.468  13.454  20.477  0.00  0.00    +0.000 C 
ATOM      3  C   UNL     1      -4.569  12.724  19.754  0.00  0.00    +0.000 A 
ATOM      4  C   UNL     1      -5.950  12.916  19.927  0.00  0.00    +0.000 A 
ATOM      5  C   UNL     1      -6.877  12.469  18.961  0.00  0.00    +0.000 A 
ATOM      6  C   UNL     1      -6.447  11.870  17.780  0.00  0.00    +0.000 A 
ATOM      7  C   UNL     1      -5.104  11.590  17.683  0.00  0.00    +0.000 A 
ATOM      8  C   UNL     1      -4.195  11.920  18.704  0.00  0.00    +0.000 A 
ATOM      9  N   UNL     1      -2.932  11.316  18.489  0.00  0.00    +0.000 N 
ATOM     10  C   UNL     1      -3.319  10.229  17.546  0.00  0.00    +0.000 C 
ATOM     11  C   UNL     1      -4.347  10.880  16.615  0.00  0.00    +0.000 C 
ATOM     12  C   UNL     1      -1.770  11.241  19.275  0.00  0.00    +0.000 A 
ATOM     13  C   UNL     1      -0.660  10.566  18.696  0.00  0.00    +0.000 A 
ATOM     14  C   UNL     1       0.572  10.427  19.326  0.00  0.00    +0.000 A 
ATOM     15  C   UNL     1       0.743  10.980  20.577  0.00  0.00    +0.000 A 
ATOM     16  C   UNL     1      -0.313  11.665  21.179  0.00  0.00    +0.000 A 
ATOM     17  C   UNL     1      -1.590  11.811  20.577  0.00  0.00    +0.000 A 
ATOM     18  N   UNL     1      -2.604  12.582  21.321  0.00  0.00    +0.000 N 
ATOM     19  C   UNL     1      -2.657  12.458  22.728  0.00  0.00    +0.000 C 
ATOM     20  O   UNL     1      -1.963  11.667  23.378  0.00  0.00    +0.000 OA
ENDROOT
BRANCH  19  21
ATOM     21  C   UNL     1      -3.647  13.317  23.492  0.00  0.00    +0.000 C 
BRANCH  21  22
ATOM     22  C   UNL     1      -4.907  12.570  23.958  0.00  0.00    +0.000 C 
BRANCH  22  23
ATOM     23  N   UNL     1      -6.146  13.145  23.378  0.00  0.00    +0.000 NA
ATOM     24  C   UNL     1      -7.337  12.388  23.772  0.00  0.00    +0.000 C 
ATOM     25  C   UNL     1      -6.296  14.543  23.792  0.00  0.00    +0.000 C 
ENDBRANCH  22  23
ENDBRANCH  21  22
ENDBRANCH  19  21
TORSDOF 3
ENDMDL
MODEL 8
REMARK VINA RESULT:      -6.1      2.236      4.496
REMARK  Name = 
REMARK  6 active torsions:
REMARK  status: ('A' for Active; 'I' for Inactive)
REMARK    1  A    between atoms: C_1  and  C_2
REMARK    2  A    between atoms: C_19  and  C_21
REMARK    3  A    between atoms: C_21  and  C_22
REMARK    4  A    between atoms: C_22  and  N_23
REMARK    5  A    between atoms: N_23  and  C_24
REMARK    6  A    between atoms: N_23  and  C_25
REMARK                            x       y       z     vdW  Elec       q    Type
REMARK                         _______ _______ _______ _____ _____    ______ ____
ROOT
ATOM      1  C   UNL     1      -4.640  14.581  21.354  0.00  0.00    +0.000 C 
ATOM      2  C   UNL     1      -3.945  13.383  20.682  0.00  0.00    +0.000 C 
ATOM      3  C   UNL     1      -4.912  12.533  19.900  0.00  0.00    +0.000 A 
ATOM      4  C   UNL     1      -6.298  12.443  20.108  0.00  0.00    +0.000 A 
ATOM      5  C   UNL     1      -7.155  11.926  19.112  0.00  0.00    +0.000 A 
ATOM      6  C   UNL     1      -6.656  11.538  17.871  0.00  0.00    +0.000 A 
ATOM      7  C   UNL     1      -5.288  11.528  17.730  0.00  0.00    +0.000 A 
ATOM      8  C   UNL     1      -4.426  11.921  18.769  0.00  0.00    +0.000 A 
ATOM      9  N   UNL     1      -3.079  11.591  18.480  0.00  0.00    +0.000 N 
ATOM     10  C   UNL     1      -3.285  10.549  17.434  0.00  0.00    +0.000 C 
ATOM     11  C   UNL     1      -4.444  11.082  16.587  0.00  0.00    +0.000 C 
ATOM     12  C   UNL     1      -1.900  11.660  19.240  0.00  0.00    +0.000 A 
ATOM     13  C   UNL     1      -0.702  11.267  18.583  0.00  0.00    +0.000 A 
ATOM     14  C   UNL     1       0.552  11.302  19.181  0.00  0.00    +0.000 A 
ATOM     15  C   UNL     1       0.655  11.752  20.481  0.00  0.00    +0.000 A 
ATOM     16  C   UNL     1      -0.491  12.163  21.161  0.00  0.00    +0.000 A 
ATOM     17  C   UNL     1      -1.791  12.123  20.592  0.00  0.00    +0.000 A 
ATOM     18  N   UNL     1      -2.908  12.612  21.422  0.00  0.00    +0.000 N 
ATOM     19  C   UNL     1      -2.894  12.342  22.810  0.00  0.00    +0.000 C 
ATOM     20  O   UNL     1      -2.044  11.636  23.368  0.00  0.00    +0.000 OA
ENDROOT
BRANCH  19  21
ATOM     21  C   UNL     1      -4.004  12.919  23.669  0.00  0.00    +0.000 C 
BRANCH  21  22
ATOM     22  C   UNL     1      -3.513  13.674  24.914  0.00  0.00    +0.000 C 
BRANCH  22  23
ATOM     23  N   UNL     1      -2.979  15.018  24.581  0.00  0.00    +0.000 NA
ATOM     24  C   UNL     1      -4.001  16.060  24.707  0.00  0.00    +0.000 C 
ATOM     25  C   UNL     1      -1.844  15.340  25.452  0.00  0.00    +0.000 C 
ENDBRANCH  22  23
ENDBRANCH  21  22
ENDBRANCH  19  21
TORSDOF 3
ENDMDL
MODEL 9
REMARK VINA RESULT:      -6.1      6.932     10.421
REMARK  Name = 
REMARK  6 active torsions:
REMARK  status: ('A' for Active; 'I' for Inactive)
REMARK    1  A    between atoms: C_1  and  C_2
REMARK    2  A    between atoms: C_19  and  C_21
REMARK    3  A    between atoms: C_21  and  C_22
REMARK    4  A    between atoms: C_22  and  N_23
REMARK    5  A    between atoms: N_23  and  C_24
REMARK    6  A    between atoms: N_23  and  C_25
REMARK                            x       y       z     vdW  Elec       q    Type
REMARK                         _______ _______ _______ _____ _____    ______ ____
ROOT
ATOM      1  C   UNL     1       6.069   5.343  18.924  0.00  0.00    +0.000 C 
ATOM      2  C   UNL     1       4.544   5.411  19.126  0.00  0.00    +0.000 C 
ATOM      3  C   UNL     1       3.891   4.064  18.960  0.00  0.00    +0.000 A 
ATOM      4  C   UNL     1       4.399   2.976  18.232  0.00  0.00    +0.000 A 
ATOM      5  C   UNL     1       3.913   1.666  18.439  0.00  0.00    +0.000 A 
ATOM      6  C   UNL     1       2.951   1.406  19.411  0.00  0.00    +0.000 A 
ATOM      7  C   UNL     1       2.388   2.497  20.031  0.00  0.00    +0.000 A 
ATOM      8  C   UNL     1       2.781   3.813  19.731  0.00  0.00    +0.000 A 
ATOM      9  N   UNL     1       1.897   4.762  20.303  0.00  0.00    +0.000 N 
ATOM     10  C   UNL     1       0.704   3.900  20.536  0.00  0.00    +0.000 C 
ATOM     11  C   UNL     1       1.284   2.570  21.028  0.00  0.00    +0.000 C 
ATOM     12  C   UNL     1       1.795   6.157  20.183  0.00  0.00    +0.000 A 
ATOM     13  C   UNL     1       0.781   6.785  20.956  0.00  0.00    +0.000 A 
ATOM     14  C   UNL     1       0.563   8.158  20.975  0.00  0.00    +0.000 A 
ATOM     15  C   UNL     1       1.378   8.968  20.213  0.00  0.00    +0.000 A 
ATOM     16  C   UNL     1       2.397   8.400  19.449  0.00  0.00    +0.000 A 
ATOM     17  C   UNL     1       2.637   7.002  19.388  0.00  0.00    +0.000 A 
ATOM     18  N   UNL     1       3.766   6.545  18.556  0.00  0.00    +0.000 N 
ATOM     19  C   UNL     1       4.028   7.214  17.338  0.00  0.00    +0.000 C 
ATOM     20  O   UNL     1       3.311   8.108  16.872  0.00  0.00    +0.000 OA
ENDROOT
BRANCH  19  21
ATOM     21  C   UNL     1       5.241   6.792  16.529  0.00  0.00    +0.000 C 
BRANCH  21  22
ATOM     22  C   UNL     1       4.973   5.653  15.533  0.00  0.00    +0.000 C 
BRANCH  22  23
ATOM     23  N   UNL     1       6.198   5.246  14.803  0.00  0.00    +0.000 NA
ATOM     24  C   UNL     1       7.287   4.889  15.716  0.00  0.00    +0.000 C 
ATOM     25  C   UNL     1       5.908   4.111  13.922  0.00  0.00    +0.000 C 
ENDBRANCH  22  23
ENDBRANCH  21  22
ENDBRANCH  19  21
TORSDOF 3
ENDMDL
