MODEL 1
REMARK VINA RESULT:      -6.2      0.000      0.000
REMARK  Name = 
REMARK  4 active torsions:
REMARK  status: ('A' for Active; 'I' for Inactive)
REMARK    1  A    between atoms: C_1  and  C_2
REMARK    2  A    between atoms: C_3  and  C_4
REMARK    3  A    between atoms: N_5  and  C_6
REMARK    4  A    between atoms: N_13  and  C_14
REMARK                            x       y       z     vdW  Elec       q    Type
REMARK                         _______ _______ _______ _____ _____    ______ ____
ROOT
ATOM      1  C   UNL     1       4.350   4.328  17.256  0.00  0.00    +0.000 A 
ATOM      2  N   UNL     1       3.566   3.417  17.882  0.00  0.00    +0.000 N 
ATOM      3  C   UNL     1       3.528   1.974  17.648  0.00  0.00    +0.000 C 
ATOM      4  C   UNL     1       2.799   4.044  18.863  0.00  0.00    +0.000 A 
ATOM      5  C   UNL     1       1.882   3.530  19.777  0.00  0.00    +0.000 A 
ATOM      6  C   UNL     1       1.290   4.460  20.645  0.00  0.00    +0.000 A 
ATOM      7  C   UNL     1       1.610   5.827  20.590  0.00  0.00    +0.000 A 
ATOM      8  C   UNL     1       2.532   6.329  19.661  0.00  0.00    +0.000 A 
ATOM      9  C   UNL     1       3.115   5.395  18.802  0.00  0.00    +0.000 A 
ATOM     10  N   UNL     1       4.032   5.540  17.768  0.00  0.00    +0.000 N 
ATOM     11  C   UNL     1       4.518   6.829  17.287  0.00  0.00    +0.000 C 
ENDROOT
BRANCH   1  14
ATOM     12  C   UNL     1       6.415   3.957  13.904  0.00  0.00    +0.000 C 
ATOM     13  C   UNL     1       5.366   4.372  14.887  0.00  0.00    +0.000 C 
ATOM     14  C   UNL     1       5.368   4.005  16.179  0.00  0.00    +0.000 C 
ENDBRANCH   1  14
TORSDOF 1
ENDMDL
MODEL 2
REMARK VINA RESULT:      -6.2      0.176      2.442
REMARK  Name = 
REMARK  4 active torsions:
REMARK  status: ('A' for Active; 'I' for Inactive)
REMARK    1  A    between atoms: C_1  and  C_2
REMARK    2  A    between atoms: C_3  and  C_4
REMARK    3  A    between atoms: N_5  and  C_6
REMARK    4  A    between atoms: N_13  and  C_14
REMARK                            x       y       z     vdW  Elec       q    Type
REMARK                         _______ _______ _______ _____ _____    ______ ____
ROOT
ATOM      1  C   UNL     1       4.409   4.190  17.309  0.00  0.00    +0.000 A 
ATOM      2  N   UNL     1       4.207   5.414  17.854  0.00  0.00    +0.000 N 
ATOM      3  C   UNL     1       4.856   6.668  17.475  0.00  0.00    +0.000 C 
ATOM      4  C   UNL     1       3.218   5.342  18.833  0.00  0.00    +0.000 A 
ATOM      5  C   UNL     1       2.648   6.327  19.636  0.00  0.00    +0.000 A 
ATOM      6  C   UNL     1       1.649   5.898  20.523  0.00  0.00    +0.000 A 
ATOM      7  C   UNL     1       1.251   4.553  20.590  0.00  0.00    +0.000 A 
ATOM      8  C   UNL     1       1.836   3.572  19.779  0.00  0.00    +0.000 A 
ATOM      9  C   UNL     1       2.830   4.009  18.899  0.00  0.00    +0.000 A 
ATOM     10  N   UNL     1       3.620   3.322  17.985  0.00  0.00    +0.000 N 
ATOM     11  C   UNL     1       3.620   1.871  17.841  0.00  0.00    +0.000 C 
ENDROOT
BRANCH   1  14
ATOM     12  C   UNL     1       6.290   3.929  13.841  0.00  0.00    +0.000 C 
ATOM     13  C   UNL     1       5.305   4.323  14.895  0.00  0.00    +0.000 C 
ATOM     14  C   UNL     1       5.361   3.893  16.166  0.00  0.00    +0.000 C 
ENDBRANCH   1  14
TORSDOF 1
ENDMDL
MODEL 3
REMARK VINA RESULT:      -6.1      1.446      2.698
REMARK  Name = 
REMARK  4 active torsions:
REMARK  status: ('A' for Active; 'I' for Inactive)
REMARK    1  A    between atoms: C_1  and  C_2
REMARK    2  A    between atoms: C_3  and  C_4
REMARK    3  A    between atoms: N_5  and  C_6
REMARK    4  A    between atoms: N_13  and  C_14
REMARK                            x       y       z     vdW  Elec       q    Type
REMARK                         _______ _______ _______ _____ _____    ______ ____
ROOT
ATOM      1  C   UNL     1       4.141   5.596  17.865  0.00  0.00    +0.000 A 
ATOM      2  N   UNL     1       4.033   4.335  17.382  0.00  0.00    +0.000 N 
ATOM      3  C   UNL     1       4.902   3.687  16.400  0.00  0.00    +0.000 C 
ATOM      4  C   UNL     1       2.972   3.678  18.002  0.00  0.00    +0.000 A 
ATOM      5  C   UNL     1       2.494   2.376  17.866  0.00  0.00    +0.000 A 
ATOM      6  C   UNL     1       1.395   2.036  18.668  0.00  0.00    +0.000 A 
ATOM      7  C   UNL     1       0.817   2.959  19.556  0.00  0.00    +0.000 A 
ATOM      8  C   UNL     1       1.306   4.266  19.678  0.00  0.00    +0.000 A 
ATOM      9  C   UNL     1       2.400   4.595  18.875  0.00  0.00    +0.000 A 
ATOM     10  N   UNL     1       3.112   5.779  18.726  0.00  0.00    +0.000 N 
ATOM     11  C   UNL     1       2.744   7.035  19.369  0.00  0.00    +0.000 C 
ENDROOT
BRANCH   1  14
ATOM     12  C   UNL     1       7.492   7.642  17.386  0.00  0.00    +0.000 C 
ATOM     13  C   UNL     1       6.524   6.581  17.804  0.00  0.00    +0.000 C 
ATOM     14  C   UNL     1       5.222   6.587  17.475  0.00  0.00    +0.000 C 
ENDBRANCH   1  14
TORSDOF 1
ENDMDL
MODEL 4
REMARK VINA RESULT:      -6.1      1.067      4.737
REMARK  Name = 
REMARK  4 active torsions:
REMARK  status: ('A' for Active; 'I' for Inactive)
REMARK    1  A    between atoms: C_1  and  C_2
REMARK    2  A    between atoms: C_3  and  C_4
REMARK    3  A    between atoms: N_5  and  C_6
REMARK    4  A    between atoms: N_13  and  C_14
REMARK                            x       y       z     vdW  Elec       q    Type
REMARK                         _______ _______ _______ _____ _____    ______ ____
ROOT
ATOM      1  C   UNL     1       2.838   4.202  18.867  0.00  0.00    +0.000 A 
ATOM      2  N   UNL     1       3.552   3.486  17.964  0.00  0.00    +0.000 N 
ATOM      3  C   UNL     1       3.600   2.031  17.829  0.00  0.00    +0.000 C 
ATOM      4  C   UNL     1       4.229   4.347  17.102  0.00  0.00    +0.000 A 
ATOM      5  C   UNL     1       5.051   4.089  16.008  0.00  0.00    +0.000 A 
ATOM      6  C   UNL     1       5.566   5.214  15.345  0.00  0.00    +0.000 A 
ATOM      7  C   UNL     1       5.264   6.520  15.766  0.00  0.00    +0.000 A 
ATOM      8  C   UNL     1       4.438   6.763  16.872  0.00  0.00    +0.000 A 
ATOM      9  C   UNL     1       3.931   5.637  17.525  0.00  0.00    +0.000 A 
ATOM     10  N   UNL     1       3.116   5.508  18.643  0.00  0.00    +0.000 N 
ATOM     11  C   UNL     1       2.688   6.630  19.471  0.00  0.00    +0.000 C 
ENDROOT
BRANCH   1  14
ATOM     12  C   UNL     1       1.252   2.509  22.069  0.00  0.00    +0.000 C 
ATOM     13  C   UNL     1       2.246   3.107  21.125  0.00  0.00    +0.000 C 
ATOM     14  C   UNL     1       1.924   3.607  19.920  0.00  0.00    +0.000 C 
ENDBRANCH   1  14
TORSDOF 1
ENDMDL
MODEL 5
REMARK VINA RESULT:      -6.1      1.092      5.233
REMARK  Name = 
REMARK  4 active torsions:
REMARK  status: ('A' for Active; 'I' for Inactive)
REMARK    1  A    between atoms: C_1  and  C_2
REMARK    2  A    between atoms: C_3  and  C_4
REMARK    3  A    between atoms: N_5  and  C_6
REMARK    4  A    between atoms: N_13  and  C_14
REMARK                            x       y       z     vdW  Elec       q    Type
REMARK                         _______ _______ _______ _____ _____    ______ ____
ROOT
ATOM      1  C   UNL     1       2.721   4.255  18.919  0.00  0.00    +0.000 A 
ATOM      2  N   UNL     1       2.983   5.565  18.694  0.00  0.00    +0.000 N 
ATOM      3  C   UNL     1       2.497   6.709  19.465  0.00  0.00    +0.000 C 
ATOM      4  C   UNL     1       3.858   5.697  17.618  0.00  0.00    +0.000 A 
ATOM      5  C   UNL     1       4.436   6.825  17.038  0.00  0.00    +0.000 A 
ATOM      6  C   UNL     1       5.297   6.589  15.956  0.00  0.00    +0.000 A 
ATOM      7  C   UNL     1       5.557   5.289  15.491  0.00  0.00    +0.000 A 
ATOM      8  C   UNL     1       4.964   4.165  16.081  0.00  0.00    +0.000 A 
ATOM      9  C   UNL     1       4.109   4.410  17.158  0.00  0.00    +0.000 A 
ATOM     10  N   UNL     1       3.352   3.554  17.948  0.00  0.00    +0.000 N 
ATOM     11  C   UNL     1       3.228   2.121  17.706  0.00  0.00    +0.000 C 
ENDROOT
BRANCH   1  14
ATOM     12  C   UNL     1       1.285   2.490  22.153  0.00  0.00    +0.000 C 
ATOM     13  C   UNL     1       2.237   2.993  21.115  0.00  0.00    +0.000 C 
ATOM     14  C   UNL     1       1.863   3.722  20.050  0.00  0.00    +0.000 C 
ENDBRANCH   1  14
TORSDOF 1
ENDMDL
MODEL 6
REMARK VINA RESULT:      -5.8      1.429      3.239
REMARK  Name = 
REMARK  4 active torsions:
REMARK  status: ('A' for Active; 'I' for Inactive)
REMARK    1  A    between atoms: C_1  and  C_2
REMARK    2  A    between atoms: C_3  and  C_4
REMARK    3  A    between atoms: N_5  and  C_6
REMARK    4  A    between atoms: N_13  and  C_14
REMARK                            x       y       z     vdW  Elec       q    Type
REMARK                         _______ _______ _______ _____ _____    ______ ____
ROOT
ATOM      1  C   UNL     1       4.179   5.512  17.846  0.00  0.00    +0.000 A 
ATOM      2  N   UNL     1       3.181   5.691  18.745  0.00  0.00    +0.000 N 
ATOM      3  C   UNL     1       2.872   6.910  19.491  0.00  0.00    +0.000 C 
ATOM      4  C   UNL     1       2.411   4.533  18.838  0.00  0.00    +0.000 A 
ATOM      5  C   UNL     1       1.274   4.246  19.590  0.00  0.00    +0.000 A 
ATOM      6  C   UNL     1       0.738   2.959  19.429  0.00  0.00    +0.000 A 
ATOM      7  C   UNL     1       1.319   2.022  18.558  0.00  0.00    +0.000 A 
ATOM      8  C   UNL     1       2.466   2.324  17.812  0.00  0.00    +0.000 A 
ATOM      9  C   UNL     1       2.992   3.608  17.979  0.00  0.00    +0.000 A 
ATOM     10  N   UNL     1       4.106   4.227  17.426  0.00  0.00    +0.000 N 
ATOM     11  C   UNL     1       5.072   3.548  16.570  0.00  0.00    +0.000 C 
ENDROOT
BRANCH   1  14
ATOM     12  C   UNL     1       7.361   7.795  17.296  0.00  0.00    +0.000 C 
ATOM     13  C   UNL     1       6.481   6.669  17.738  0.00  0.00    +0.000 C 
ATOM     14  C   UNL     1       5.177   6.577  17.431  0.00  0.00    +0.000 C 
ENDBRANCH   1  14
TORSDOF 1
ENDMDL
MODEL 7
REMARK VINA RESULT:      -5.8      2.026      3.747
REMARK  Name = 
REMARK  4 active torsions:
REMARK  status: ('A' for Active; 'I' for Inactive)
REMARK    1  A    between atoms: C_1  and  C_2
REMARK    2  A    between atoms: C_3  and  C_4
REMARK    3  A    between atoms: N_5  and  C_6
REMARK    4  A    between atoms: N_13  and  C_14
REMARK                            x       y       z     vdW  Elec       q    Type
REMARK                         _______ _______ _______ _____ _____    ______ ____
ROOT
ATOM      1  C   UNL     1       5.186   6.253  17.407  0.00  0.00    +0.000 A 
ATOM      2  N   UNL     1       3.874   6.423  17.703  0.00  0.00    +0.000 N 
ATOM      3  C   UNL     1       3.170   7.688  17.904  0.00  0.00    +0.000 C 
ATOM      4  C   UNL     1       3.232   5.186  17.744  0.00  0.00    +0.000 A 
ATOM      5  C   UNL     1       1.899   4.852  17.972  0.00  0.00    +0.000 A 
ATOM      6  C   UNL     1       1.590   3.484  17.927  0.00  0.00    +0.000 A 
ATOM      7  C   UNL     1       2.573   2.515  17.666  0.00  0.00    +0.000 A 
ATOM      8  C   UNL     1       3.911   2.866  17.443  0.00  0.00    +0.000 A 
ATOM      9  C   UNL     1       4.208   4.231  17.490  0.00  0.00    +0.000 A 
ATOM     10  N   UNL     1       5.406   4.919  17.340  0.00  0.00    +0.000 N 
ATOM     11  C   UNL     1       6.704   4.270  17.193  0.00  0.00    +0.000 C 
ENDROOT
BRANCH   1  14
ATOM     12  C   UNL     1       8.222   8.779  17.615  0.00  0.00    +0.000 C 
ATOM     13  C   UNL     1       7.331   7.605  17.875  0.00  0.00    +0.000 C 
ATOM     14  C   UNL     1       6.185   7.377  17.212  0.00  0.00    +0.000 C 
ENDBRANCH   1  14
TORSDOF 1
ENDMDL
MODEL 8
REMARK VINA RESULT:      -5.6      1.578      5.113
REMARK  Name = 
REMARK  4 active torsions:
REMARK  status: ('A' for Active; 'I' for Inactive)
REMARK    1  A    between atoms: C_1  and  C_2
REMARK    2  A    between atoms: C_3  and  C_4
REMARK    3  A    between atoms: N_5  and  C_6
REMARK    4  A    between atoms: N_13  and  C_14
REMARK                            x       y       z     vdW  Elec       q    Type
REMARK                         _______ _______ _______ _____ _____    ______ ____
ROOT
ATOM      1  C   UNL     1       4.322   4.375  18.556  0.00  0.00    +0.000 A 
ATOM      2  N   UNL     1       3.945   3.877  17.353  0.00  0.00    +0.000 N 
ATOM      3  C   UNL     1       2.683   3.215  17.028  0.00  0.00    +0.000 C 
ATOM      4  C   UNL     1       4.933   4.129  16.403  0.00  0.00    +0.000 A 
ATOM      5  C   UNL     1       4.989   3.844  15.041  0.00  0.00    +0.000 A 
ATOM      6  C   UNL     1       6.150   4.259  14.371  0.00  0.00    +0.000 A 
ATOM      7  C   UNL     1       7.190   4.924  15.042  0.00  0.00    +0.000 A 
ATOM      8  C   UNL     1       7.121   5.200  16.414  0.00  0.00    +0.000 A 
ATOM      9  C   UNL     1       5.961   4.783  17.072  0.00  0.00    +0.000 A 
ATOM     10  N   UNL     1       5.573   4.870  18.403  0.00  0.00    +0.000 N 
ATOM     11  C   UNL     1       6.434   5.371  19.469  0.00  0.00    +0.000 C 
ENDROOT
BRANCH   1  14
ATOM     12  C   UNL     1       2.117   3.389  21.686  0.00  0.00    +0.000 C 
ATOM     13  C   UNL     1       2.979   3.286  20.468  0.00  0.00    +0.000 C 
ATOM     14  C   UNL     1       3.474   4.349  19.813  0.00  0.00    +0.000 C 
ENDBRANCH   1  14
TORSDOF 1
ENDMDL
MODEL 9
REMARK VINA RESULT:      -5.6      1.756      4.170
REMARK  Name = 
REMARK  4 active torsions:
REMARK  status: ('A' for Active; 'I' for Inactive)
REMARK    1  A    between atoms: C_1  and  C_2
REMARK    2  A    between atoms: C_3  and  C_4
REMARK    3  A    between atoms: N_5  and  C_6
REMARK    4  A    between atoms: N_13  and  C_14
REMARK                            x       y       z     vdW  Elec       q    Type
REMARK                         _______ _______ _______ _____ _____    ______ ____
ROOT
ATOM      1  C   UNL     1       2.842   6.276  18.647  0.00  0.00    +0.000 A 
ATOM      2  N   UNL     1       2.258   5.410  19.510  0.00  0.00    +0.000 N 
ATOM      3  C   UNL     1       1.368   5.736  20.623  0.00  0.00    +0.000 C 
ATOM      4  C   UNL     1       2.582   4.100  19.162  0.00  0.00    +0.000 A 
ATOM      5  C   UNL     1       2.201   2.881  19.719  0.00  0.00    +0.000 A 
ATOM      6  C   UNL     1       2.713   1.732  19.098  0.00  0.00    +0.000 A 
ATOM      7  C   UNL     1       3.558   1.814  17.978  0.00  0.00    +0.000 A 
ATOM      8  C   UNL     1       3.936   3.047  17.432  0.00  0.00    +0.000 A 
ATOM      9  C   UNL     1       3.422   4.185  18.058  0.00  0.00    +0.000 A 
ATOM     10  N   UNL     1       3.601   5.539  17.802  0.00  0.00    +0.000 N 
ATOM     11  C   UNL     1       4.525   6.062  16.801  0.00  0.00    +0.000 C 
ENDROOT
BRANCH   1  14
ATOM     12  C   UNL     1       1.888  10.046  17.930  0.00  0.00    +0.000 C 
ATOM     13  C   UNL     1       1.962   8.556  17.824  0.00  0.00    +0.000 C 
ATOM     14  C   UNL     1       2.661   7.781  18.671  0.00  0.00    +0.000 C 
ENDBRANCH   1  14
TORSDOF 1
ENDMDL
