MODEL 1
REMARK VINA RESULT:      -7.3      0.000      0.000
REMARK  Name = 
REMARK  8 active torsions:
REMARK  status: ('A' for Active; 'I' for Inactive)
REMARK    1  A    between atoms: S_2  and  C_4
REMARK    2  A    between atoms: S_2  and  N_15
REMARK    3  A    between atoms: C_4  and  C_5
REMARK    4  A    between atoms: C_5  and  C_6
REMARK    5  A    between atoms: C_6  and  O_7
REMARK    6  A    between atoms: O_7  and  C_8
REMARK    7  A    between atoms: N_15  and  C_16
REMARK    8  A    between atoms: C_16  and  C_17
REMARK                            x       y       z     vdW  Elec       q    Type
REMARK                         _______ _______ _______ _____ _____    ______ ____
ROOT
ATOM      1  O   UNL     1       5.251   4.383  15.792  0.00  0.00    +0.000 OA
ATOM      2  S   UNL     1       6.062   4.608  16.966  0.00  0.00    +0.000 S 
ATOM      3  O   UNL     1       7.478   4.324  16.991  0.00  0.00    +0.000 OA
ENDROOT
BRANCH   2   4
ATOM      4  N   UNL     1       5.373   3.767  18.252  0.00  0.00    +0.000 NA
ATOM      5  H   UNL     1       5.372   4.263  19.142  0.00  0.00    +0.000 HD
BRANCH   4   6
ATOM      6  C   UNL     1       4.132   3.036  17.960  0.00  0.00    +0.000 C 
BRANCH   6   7
ATOM      7  C   UNL     1       3.153   3.127  19.107  0.00  0.00    +0.000 A 
ATOM      8  C   UNL     1       3.534   2.632  20.368  0.00  0.00    +0.000 A 
ATOM      9  C   UNL     1       2.658   2.686  21.455  0.00  0.00    +0.000 A 
ATOM     10  C   UNL     1       1.392   3.243  21.303  0.00  0.00    +0.000 A 
ATOM     11  C   UNL     1       1.006   3.758  20.066  0.00  0.00    +0.000 A 
ATOM     12  C   UNL     1       1.883   3.709  18.978  0.00  0.00    +0.000 A 
ATOM     13 CL   UNL     1       1.352   4.407  17.488  0.00  0.00    +0.000 Cl
ENDBRANCH   6   7
ENDBRANCH   4   6
ENDBRANCH   2   4
BRANCH   2  14
ATOM     14  C   UNL     1       5.848   6.310  17.484  0.00  0.00    +0.000 C 
BRANCH  14  15
ATOM     15  C   UNL     1       4.534   6.878  16.962  0.00  0.00    +0.000 C 
BRANCH  15  16
ATOM     16  C   UNL     1       3.480   6.941  18.061  0.00  0.00    +0.000 C 
BRANCH  16  17
ATOM     17  O   UNL     1       2.772   8.175  17.938  0.00  0.00    +0.000 OA
BRANCH  17  18
ATOM     18  C   UNL     1       1.909   8.495  18.950  0.00  0.00    +0.000 A 
ATOM     19  C   UNL     1       1.026   9.579  18.960  0.00  0.00    +0.000 A 
ATOM     20  C   UNL     1       0.189   9.792  20.059  0.00  0.00    +0.000 A 
ATOM     21  C   UNL     1       0.237   8.924  21.140  0.00  0.00    +0.000 A 
ATOM     22  F   UNL     1      -0.569   9.134  22.191  0.00  0.00    +0.000 F 
ATOM     23  C   UNL     1       1.110   7.845  21.150  0.00  0.00    +0.000 A 
ATOM     24  C   UNL     1       1.948   7.632  20.053  0.00  0.00    +0.000 A 
ENDBRANCH  17  18
ENDBRANCH  16  17
ENDBRANCH  15  16
ENDBRANCH  14  15
ENDBRANCH   2  14
TORSDOF 8
ENDMDL
MODEL 2
REMARK VINA RESULT:      -7.0      4.831      6.031
REMARK  Name = 
REMARK  8 active torsions:
REMARK  status: ('A' for Active; 'I' for Inactive)
REMARK    1  A    between atoms: S_2  and  C_4
REMARK    2  A    between atoms: S_2  and  N_15
REMARK    3  A    between atoms: C_4  and  C_5
REMARK    4  A    between atoms: C_5  and  C_6
REMARK    5  A    between atoms: C_6  and  O_7
REMARK    6  A    between atoms: O_7  and  C_8
REMARK    7  A    between atoms: N_15  and  C_16
REMARK    8  A    between atoms: C_16  and  C_17
REMARK                            x       y       z     vdW  Elec       q    Type
REMARK                         _______ _______ _______ _____ _____    ______ ____
ROOT
ATOM      1  O   UNL     1       7.738   4.372  17.874  0.00  0.00    +0.000 OA
ATOM      2  S   UNL     1       7.089   5.240  18.830  0.00  0.00    +0.000 S 
ATOM      3  O   UNL     1       7.710   5.609  20.080  0.00  0.00    +0.000 OA
ENDROOT
BRANCH   2   4
ATOM      4  N   UNL     1       5.587   4.578  19.207  0.00  0.00    +0.000 NA
ATOM      5  H   UNL     1       5.273   4.737  20.163  0.00  0.00    +0.000 HD
BRANCH   4   6
ATOM      6  C   UNL     1       4.538   4.722  18.188  0.00  0.00    +0.000 C 
BRANCH   6   7
ATOM      7  C   UNL     1       3.262   4.028  18.604  0.00  0.00    +0.000 A 
ATOM      8  C   UNL     1       3.068   2.683  18.238  0.00  0.00    +0.000 A 
ATOM      9  C   UNL     1       1.899   2.004  18.593  0.00  0.00    +0.000 A 
ATOM     10  C   UNL     1       0.911   2.655  19.326  0.00  0.00    +0.000 A 
ATOM     11  C   UNL     1       1.097   3.981  19.716  0.00  0.00    +0.000 A 
ATOM     12  C   UNL     1       2.268   4.660  19.366  0.00  0.00    +0.000 A 
ATOM     13 CL   UNL     1       2.448   6.287  19.923  0.00  0.00    +0.000 Cl
ENDBRANCH   6   7
ENDBRANCH   4   6
ENDBRANCH   2   4
BRANCH   2  14
ATOM     14  C   UNL     1       6.624   6.754  17.994  0.00  0.00    +0.000 C 
BRANCH  14  15
ATOM     15  C   UNL     1       7.840   7.433  17.376  0.00  0.00    +0.000 C 
BRANCH  15  16
ATOM     16  C   UNL     1       7.912   8.905  17.763  0.00  0.00    +0.000 C 
BRANCH  16  17
ATOM     17  O   UNL     1       8.730   9.026  18.927  0.00  0.00    +0.000 OA
BRANCH  17  18
ATOM     18  C   UNL     1       9.259  10.262  19.184  0.00  0.00    +0.000 A 
ATOM     19  C   UNL     1       9.638  10.744  20.441  0.00  0.00    +0.000 A 
ATOM     20  C   UNL     1      10.173  12.029  20.566  0.00  0.00    +0.000 A 
ATOM     21  C   UNL     1      10.328  12.824  19.439  0.00  0.00    +0.000 A 
ATOM     22  F   UNL     1      10.843  14.056  19.568  0.00  0.00    +0.000 F 
ATOM     23  C   UNL     1       9.954  12.364  18.185  0.00  0.00    +0.000 A 
ATOM     24  C   UNL     1       9.418  11.081  18.059  0.00  0.00    +0.000 A 
ENDBRANCH  17  18
ENDBRANCH  16  17
ENDBRANCH  15  16
ENDBRANCH  14  15
ENDBRANCH   2  14
TORSDOF 8
ENDMDL
MODEL 3
REMARK VINA RESULT:      -7.0      3.399      5.945
REMARK  Name = 
REMARK  8 active torsions:
REMARK  status: ('A' for Active; 'I' for Inactive)
REMARK    1  A    between atoms: S_2  and  C_4
REMARK    2  A    between atoms: S_2  and  N_15
REMARK    3  A    between atoms: C_4  and  C_5
REMARK    4  A    between atoms: C_5  and  C_6
REMARK    5  A    between atoms: C_6  and  O_7
REMARK    6  A    between atoms: O_7  and  C_8
REMARK    7  A    between atoms: N_15  and  C_16
REMARK    8  A    between atoms: C_16  and  C_17
REMARK                            x       y       z     vdW  Elec       q    Type
REMARK                         _______ _______ _______ _____ _____    ______ ____
ROOT
ATOM      1  O   UNL     1       1.473   3.142  21.041  0.00  0.00    +0.000 OA
ATOM      2  S   UNL     1       2.658   3.191  20.216  0.00  0.00    +0.000 S 
ATOM      3  O   UNL     1       3.910   2.605  20.632  0.00  0.00    +0.000 OA
ENDROOT
BRANCH   2   4
ATOM      4  N   UNL     1       2.974   4.803  19.842  0.00  0.00    +0.000 NA
ATOM      5  H   UNL     1       3.159   4.990  18.858  0.00  0.00    +0.000 HD
BRANCH   4   6
ATOM      6  C   UNL     1       2.124   5.802  20.504  0.00  0.00    +0.000 C 
BRANCH   6   7
ATOM      7  C   UNL     1       2.029   7.073  19.693  0.00  0.00    +0.000 A 
ATOM      8  C   UNL     1       2.547   7.086  18.385  0.00  0.00    +0.000 A 
ATOM      9  C   UNL     1       2.490   8.242  17.601  0.00  0.00    +0.000 A 
ATOM     10  C   UNL     1       1.908   9.399  18.109  0.00  0.00    +0.000 A 
ATOM     11  C   UNL     1       1.370   9.398  19.395  0.00  0.00    +0.000 A 
ATOM     12  C   UNL     1       1.421   8.241  20.179  0.00  0.00    +0.000 A 
ATOM     13 CL   UNL     1       0.695   8.301  21.747  0.00  0.00    +0.000 Cl
ENDBRANCH   6   7
ENDBRANCH   4   6
ENDBRANCH   2   4
BRANCH   2  14
ATOM     14  C   UNL     1       2.256   2.513  18.607  0.00  0.00    +0.000 C 
BRANCH  14  15
ATOM     15  C   UNL     1       2.586   3.505  17.499  0.00  0.00    +0.000 C 
BRANCH  15  16
ATOM     16  C   UNL     1       4.073   3.492  17.164  0.00  0.00    +0.000 C 
BRANCH  16  17
ATOM     17  O   UNL     1       4.443   4.791  16.700  0.00  0.00    +0.000 OA
BRANCH  17  18
ATOM     18  C   UNL     1       5.520   5.380  17.305  0.00  0.00    +0.000 A 
ATOM     19  C   UNL     1       6.224   4.869  18.400  0.00  0.00    +0.000 A 
ATOM     20  C   UNL     1       7.315   5.570  18.921  0.00  0.00    +0.000 A 
ATOM     21  C   UNL     1       7.698   6.774  18.346  0.00  0.00    +0.000 A 
ATOM     22  F   UNL     1       8.747   7.440  18.851  0.00  0.00    +0.000 F 
ATOM     23  C   UNL     1       7.010   7.297  17.262  0.00  0.00    +0.000 A 
ATOM     24  C   UNL     1       5.918   6.599  16.742  0.00  0.00    +0.000 A 
ENDBRANCH  17  18
ENDBRANCH  16  17
ENDBRANCH  15  16
ENDBRANCH  14  15
ENDBRANCH   2  14
TORSDOF 8
ENDMDL
MODEL 4
REMARK VINA RESULT:      -7.0      3.955      6.608
REMARK  Name = 
REMARK  8 active torsions:
REMARK  status: ('A' for Active; 'I' for Inactive)
REMARK    1  A    between atoms: S_2  and  C_4
REMARK    2  A    between atoms: S_2  and  N_15
REMARK    3  A    between atoms: C_4  and  C_5
REMARK    4  A    between atoms: C_5  and  C_6
REMARK    5  A    between atoms: C_6  and  O_7
REMARK    6  A    between atoms: O_7  and  C_8
REMARK    7  A    between atoms: N_15  and  C_16
REMARK    8  A    between atoms: C_16  and  C_17
REMARK                            x       y       z     vdW  Elec       q    Type
REMARK                         _______ _______ _______ _____ _____    ______ ____
ROOT
ATOM      1  O   UNL     1       0.673   3.821  20.136  0.00  0.00    +0.000 OA
ATOM      2  S   UNL     1       1.977   3.707  20.747  0.00  0.00    +0.000 S 
ATOM      3  O   UNL     1       2.152   3.286  22.117  0.00  0.00    +0.000 OA
ENDROOT
BRANCH   2   4
ATOM      4  N   UNL     1       2.766   5.186  20.587  0.00  0.00    +0.000 NA
ATOM      5  H   UNL     1       3.291   5.305  19.722  0.00  0.00    +0.000 HD
BRANCH   4   6
ATOM      6  C   UNL     1       2.011   6.374  21.011  0.00  0.00    +0.000 C 
BRANCH   6   7
ATOM      7  C   UNL     1       1.959   7.416  19.918  0.00  0.00    +0.000 A 
ATOM      8  C   UNL     1       2.605   7.153  18.696  0.00  0.00    +0.000 A 
ATOM      9  C   UNL     1       2.591   8.091  17.660  0.00  0.00    +0.000 A 
ATOM     10  C   UNL     1       1.924   9.301  17.826  0.00  0.00    +0.000 A 
ATOM     11  C   UNL     1       1.260   9.569  19.022  0.00  0.00    +0.000 A 
ATOM     12  C   UNL     1       1.269   8.629  20.058  0.00  0.00    +0.000 A 
ATOM     13 CL   UNL     1       0.386   9.011  21.495  0.00  0.00    +0.000 Cl
ENDBRANCH   6   7
ENDBRANCH   4   6
ENDBRANCH   2   4
BRANCH   2  14
ATOM     14  C   UNL     1       2.989   2.639  19.725  0.00  0.00    +0.000 C 
BRANCH  14  15
ATOM     15  C   UNL     1       2.390   2.489  18.332  0.00  0.00    +0.000 C 
BRANCH  15  16
ATOM     16  C   UNL     1       2.869   3.595  17.399  0.00  0.00    +0.000 C 
BRANCH  16  17
ATOM     17  O   UNL     1       4.074   4.145  17.932  0.00  0.00    +0.000 OA
BRANCH  17  18
ATOM     18  C   UNL     1       5.042   4.500  17.032  0.00  0.00    +0.000 A 
ATOM     19  C   UNL     1       5.967   5.537  17.191  0.00  0.00    +0.000 A 
ATOM     20  C   UNL     1       6.912   5.793  16.194  0.00  0.00    +0.000 A 
ATOM     21  C   UNL     1       6.930   5.014  15.045  0.00  0.00    +0.000 A 
ATOM     22  F   UNL     1       7.840   5.265  14.093  0.00  0.00    +0.000 F 
ATOM     23  C   UNL     1       6.017   3.984  14.868  0.00  0.00    +0.000 A 
ATOM     24  C   UNL     1       5.072   3.728  15.863  0.00  0.00    +0.000 A 
ENDBRANCH  17  18
ENDBRANCH  16  17
ENDBRANCH  15  16
ENDBRANCH  14  15
ENDBRANCH   2  14
TORSDOF 8
ENDMDL
MODEL 5
REMARK VINA RESULT:      -7.0      4.261      6.209
REMARK  Name = 
REMARK  8 active torsions:
REMARK  status: ('A' for Active; 'I' for Inactive)
REMARK    1  A    between atoms: S_2  and  C_4
REMARK    2  A    between atoms: S_2  and  N_15
REMARK    3  A    between atoms: C_4  and  C_5
REMARK    4  A    between atoms: C_5  and  C_6
REMARK    5  A    between atoms: C_6  and  O_7
REMARK    6  A    between atoms: O_7  and  C_8
REMARK    7  A    between atoms: N_15  and  C_16
REMARK    8  A    between atoms: C_16  and  C_17
REMARK                            x       y       z     vdW  Elec       q    Type
REMARK                         _______ _______ _______ _____ _____    ______ ____
ROOT
ATOM      1  O   UNL     1       7.498   4.327  17.739  0.00  0.00    +0.000 OA
ATOM      2  S   UNL     1       6.619   4.790  18.788  0.00  0.00    +0.000 S 
ATOM      3  O   UNL     1       7.118   5.414  19.991  0.00  0.00    +0.000 OA
ENDROOT
BRANCH   2   4
ATOM      4  N   UNL     1       5.653   3.499  19.274  0.00  0.00    +0.000 NA
ATOM      5  H   UNL     1       5.564   3.381  20.282  0.00  0.00    +0.000 HD
BRANCH   4   6
ATOM      6  C   UNL     1       4.403   3.304  18.525  0.00  0.00    +0.000 C 
BRANCH   6   7
ATOM      7  C   UNL     1       3.213   3.200  19.450  0.00  0.00    +0.000 A 
ATOM      8  C   UNL     1       3.381   2.595  20.709  0.00  0.00    +0.000 A 
ATOM      9  C   UNL     1       2.306   2.469  21.593  0.00  0.00    +0.000 A 
ATOM     10  C   UNL     1       1.051   2.952  21.238  0.00  0.00    +0.000 A 
ATOM     11  C   UNL     1       0.872   3.575  20.003  0.00  0.00    +0.000 A 
ATOM     12  C   UNL     1       1.947   3.707  19.118  0.00  0.00    +0.000 A 
ATOM     13 CL   UNL     1       1.661   4.529  17.624  0.00  0.00    +0.000 Cl
ENDBRANCH   6   7
ENDBRANCH   4   6
ENDBRANCH   2   4
BRANCH   2  14
ATOM     14  C   UNL     1       5.413   5.901  18.067  0.00  0.00    +0.000 C 
BRANCH  14  15
ATOM     15  C   UNL     1       6.088   6.940  17.181  0.00  0.00    +0.000 C 
BRANCH  15  16
ATOM     16  C   UNL     1       5.811   6.678  15.706  0.00  0.00    +0.000 C 
BRANCH  16  17
ATOM     17  O   UNL     1       6.863   5.865  15.185  0.00  0.00    +0.000 OA
BRANCH  17  18
ATOM     18  C   UNL     1       6.520   4.948  14.229  0.00  0.00    +0.000 A 
ATOM     19  C   UNL     1       5.379   4.140  14.242  0.00  0.00    +0.000 A 
ATOM     20  C   UNL     1       5.142   3.244  13.197  0.00  0.00    +0.000 A 
ATOM     21  C   UNL     1       6.043   3.159  12.144  0.00  0.00    +0.000 A 
ATOM     22  F   UNL     1       5.809   2.298  11.144  0.00  0.00    +0.000 F 
ATOM     23  C   UNL     1       7.182   3.950  12.117  0.00  0.00    +0.000 A 
ATOM     24  C   UNL     1       7.421   4.845  13.162  0.00  0.00    +0.000 A 
ENDBRANCH  17  18
ENDBRANCH  16  17
ENDBRANCH  15  16
ENDBRANCH  14  15
ENDBRANCH   2  14
TORSDOF 8
ENDMDL
MODEL 6
REMARK VINA RESULT:      -7.0      5.177      6.352
REMARK  Name = 
REMARK  8 active torsions:
REMARK  status: ('A' for Active; 'I' for Inactive)
REMARK    1  A    between atoms: S_2  and  C_4
REMARK    2  A    between atoms: S_2  and  N_15
REMARK    3  A    between atoms: C_4  and  C_5
REMARK    4  A    between atoms: C_5  and  C_6
REMARK    5  A    between atoms: C_6  and  O_7
REMARK    6  A    between atoms: O_7  and  C_8
REMARK    7  A    between atoms: N_15  and  C_16
REMARK    8  A    between atoms: C_16  and  C_17
REMARK                            x       y       z     vdW  Elec       q    Type
REMARK                         _______ _______ _______ _____ _____    ______ ____
ROOT
ATOM      1  O   UNL     1       7.265   4.262  17.088  0.00  0.00    +0.000 OA
ATOM      2  S   UNL     1       7.201   5.179  18.203  0.00  0.00    +0.000 S 
ATOM      3  O   UNL     1       8.116   5.103  19.316  0.00  0.00    +0.000 OA
ENDROOT
BRANCH   2   4
ATOM      4  N   UNL     1       5.645   5.118  18.845  0.00  0.00    +0.000 NA
ATOM      5  H   UNL     1       5.148   6.008  18.860  0.00  0.00    +0.000 HD
BRANCH   4   6
ATOM      6  C   UNL     1       4.822   3.967  18.449  0.00  0.00    +0.000 C 
BRANCH   6   7
ATOM      7  C   UNL     1       3.629   3.798  19.360  0.00  0.00    +0.000 A 
ATOM      8  C   UNL     1       3.686   2.836  20.385  0.00  0.00    +0.000 A 
ATOM      9  C   UNL     1       2.603   2.638  21.246  0.00  0.00    +0.000 A 
ATOM     10  C   UNL     1       1.451   3.405  21.102  0.00  0.00    +0.000 A 
ATOM     11  C   UNL     1       1.385   4.379  20.106  0.00  0.00    +0.000 A 
ATOM     12  C   UNL     1       2.470   4.581  19.246  0.00  0.00    +0.000 A 
ATOM     13 CL   UNL     1       2.334   5.835  18.064  0.00  0.00    +0.000 Cl
ENDBRANCH   6   7
ENDBRANCH   4   6
ENDBRANCH   2   4
BRANCH   2  14
ATOM     14  C   UNL     1       7.270   6.851  17.564  0.00  0.00    +0.000 C 
BRANCH  14  15
ATOM     15  C   UNL     1       8.215   7.713  18.392  0.00  0.00    +0.000 C 
BRANCH  15  16
ATOM     16  C   UNL     1       8.221   9.157  17.906  0.00  0.00    +0.000 C 
BRANCH  16  17
ATOM     17  O   UNL     1       8.992   9.939  18.819  0.00  0.00    +0.000 OA
BRANCH  17  18
ATOM     18  C   UNL     1       9.489  11.125  18.351  0.00  0.00    +0.000 A 
ATOM     19  C   UNL     1       8.731  12.236  17.971  0.00  0.00    +0.000 A 
ATOM     20  C   UNL     1       9.365  13.394  17.513  0.00  0.00    +0.000 A 
ATOM     21  C   UNL     1      10.750  13.438  17.439  0.00  0.00    +0.000 A 
ATOM     22  F   UNL     1      11.352  14.553  17.000  0.00  0.00    +0.000 F 
ATOM     23  C   UNL     1      11.518  12.344  17.810  0.00  0.00    +0.000 A 
ATOM     24  C   UNL     1      10.885  11.185  18.265  0.00  0.00    +0.000 A 
ENDBRANCH  17  18
ENDBRANCH  16  17
ENDBRANCH  15  16
ENDBRANCH  14  15
ENDBRANCH   2  14
TORSDOF 8
ENDMDL
MODEL 7
REMARK VINA RESULT:      -7.0      1.392      1.655
REMARK  Name = 
REMARK  8 active torsions:
REMARK  status: ('A' for Active; 'I' for Inactive)
REMARK    1  A    between atoms: S_2  and  C_4
REMARK    2  A    between atoms: S_2  and  N_15
REMARK    3  A    between atoms: C_4  and  C_5
REMARK    4  A    between atoms: C_5  and  C_6
REMARK    5  A    between atoms: C_6  and  O_7
REMARK    6  A    between atoms: O_7  and  C_8
REMARK    7  A    between atoms: N_15  and  C_16
REMARK    8  A    between atoms: C_16  and  C_17
REMARK                            x       y       z     vdW  Elec       q    Type
REMARK                         _______ _______ _______ _____ _____    ______ ____
ROOT
ATOM      1  O   UNL     1       7.584   4.253  17.932  0.00  0.00    +0.000 OA
ATOM      2  S   UNL     1       7.110   5.445  18.597  0.00  0.00    +0.000 S 
ATOM      3  O   UNL     1       7.892   6.130  19.599  0.00  0.00    +0.000 OA
ENDROOT
BRANCH   2   4
ATOM      4  N   UNL     1       5.616   5.100  19.295  0.00  0.00    +0.000 NA
ATOM      5  H   UNL     1       4.963   5.881  19.326  0.00  0.00    +0.000 HD
BRANCH   4   6
ATOM      6  C   UNL     1       5.010   3.812  18.930  0.00  0.00    +0.000 C 
BRANCH   6   7
ATOM      7  C   UNL     1       3.569   3.731  19.378  0.00  0.00    +0.000 A 
ATOM      8  C   UNL     1       3.264   3.962  20.733  0.00  0.00    +0.000 A 
ATOM      9  C   UNL     1       1.947   3.888  21.194  0.00  0.00    +0.000 A 
ATOM     10  C   UNL     1       0.914   3.592  20.309  0.00  0.00    +0.000 A 
ATOM     11  C   UNL     1       1.197   3.383  18.959  0.00  0.00    +0.000 A 
ATOM     12  C   UNL     1       2.513   3.461  18.495  0.00  0.00    +0.000 A 
ATOM     13 CL   UNL     1       2.782   3.234  16.802  0.00  0.00    +0.000 Cl
ENDBRANCH   6   7
ENDBRANCH   4   6
ENDBRANCH   2   4
BRANCH   2  14
ATOM     14  C   UNL     1       6.663   6.649  17.349  0.00  0.00    +0.000 C 
BRANCH  14  15
ATOM     15  C   UNL     1       5.402   6.223  16.606  0.00  0.00    +0.000 C 
BRANCH  15  16
ATOM     16  C   UNL     1       4.285   7.246  16.773  0.00  0.00    +0.000 C 
BRANCH  16  17
ATOM     17  O   UNL     1       3.278   6.682  17.614  0.00  0.00    +0.000 OA
BRANCH  17  18
ATOM     18  C   UNL     1       2.490   7.559  18.308  0.00  0.00    +0.000 A 
ATOM     19  C   UNL     1       1.864   8.691  17.779  0.00  0.00    +0.000 A 
ATOM     20  C   UNL     1       1.077   9.505  18.599  0.00  0.00    +0.000 A 
ATOM     21  C   UNL     1       0.919   9.185  19.940  0.00  0.00    +0.000 A 
ATOM     22  F   UNL     1       0.162   9.970  20.720  0.00  0.00    +0.000 F 
ATOM     23  C   UNL     1       1.537   8.067  20.483  0.00  0.00    +0.000 A 
ATOM     24  C   UNL     1       2.324   7.254  19.665  0.00  0.00    +0.000 A 
ENDBRANCH  17  18
ENDBRANCH  16  17
ENDBRANCH  15  16
ENDBRANCH  14  15
ENDBRANCH   2  14
TORSDOF 8
ENDMDL
MODEL 8
REMARK VINA RESULT:      -6.9      5.306      6.664
REMARK  Name = 
REMARK  8 active torsions:
REMARK  status: ('A' for Active; 'I' for Inactive)
REMARK    1  A    between atoms: S_2  and  C_4
REMARK    2  A    between atoms: S_2  and  N_15
REMARK    3  A    between atoms: C_4  and  C_5
REMARK    4  A    between atoms: C_5  and  C_6
REMARK    5  A    between atoms: C_6  and  O_7
REMARK    6  A    between atoms: O_7  and  C_8
REMARK    7  A    between atoms: N_15  and  C_16
REMARK    8  A    between atoms: C_16  and  C_17
REMARK                            x       y       z     vdW  Elec       q    Type
REMARK                         _______ _______ _______ _____ _____    ______ ____
ROOT
ATOM      1  O   UNL     1       7.993   4.406  18.200  0.00  0.00    +0.000 OA
ATOM      2  S   UNL     1       6.856   5.291  18.094  0.00  0.00    +0.000 S 
ATOM      3  O   UNL     1       5.973   5.545  19.208  0.00  0.00    +0.000 OA
ENDROOT
BRANCH   2   4
ATOM      4  N   UNL     1       5.892   4.760  16.819  0.00  0.00    +0.000 NA
ATOM      5  H   UNL     1       5.904   3.754  16.658  0.00  0.00    +0.000 HD
BRANCH   4   6
ATOM      6  C   UNL     1       4.565   5.381  16.705  0.00  0.00    +0.000 C 
BRANCH   6   7
ATOM      7  C   UNL     1       3.497   4.525  17.344  0.00  0.00    +0.000 A 
ATOM      8  C   UNL     1       3.604   3.125  17.256  0.00  0.00    +0.000 A 
ATOM      9  C   UNL     1       2.634   2.294  17.823  0.00  0.00    +0.000 A 
ATOM     10  C   UNL     1       1.548   2.848  18.494  0.00  0.00    +0.000 A 
ATOM     11  C   UNL     1       1.438   4.233  18.610  0.00  0.00    +0.000 A 
ATOM     12  C   UNL     1       2.409   5.066  18.047  0.00  0.00    +0.000 A 
ATOM     13 CL   UNL     1       2.230   6.771  18.268  0.00  0.00    +0.000 Cl
ENDBRANCH   6   7
ENDBRANCH   4   6
ENDBRANCH   2   4
BRANCH   2  14
ATOM     14  C   UNL     1       7.427   6.877  17.489  0.00  0.00    +0.000 C 
BRANCH  14  15
ATOM     15  C   UNL     1       8.268   7.591  18.539  0.00  0.00    +0.000 C 
BRANCH  15  16
ATOM     16  C   UNL     1       8.486   9.056  18.175  0.00  0.00    +0.000 C 
BRANCH  16  17
ATOM     17  O   UNL     1       8.817   9.772  19.365  0.00  0.00    +0.000 OA
BRANCH  17  18
ATOM     18  C   UNL     1       9.703  10.807  19.237  0.00  0.00    +0.000 A 
ATOM     19  C   UNL     1      10.371  11.447  20.285  0.00  0.00    +0.000 A 
ATOM     20  C   UNL     1      11.259  12.493  20.016  0.00  0.00    +0.000 A 
ATOM     21  C   UNL     1      11.476  12.892  18.704  0.00  0.00    +0.000 A 
ATOM     22  F   UNL     1      12.330  13.895  18.454  0.00  0.00    +0.000 F 
ATOM     23  C   UNL     1      10.820  12.270  17.652  0.00  0.00    +0.000 A 
ATOM     24  C   UNL     1       9.931  11.227  17.920  0.00  0.00    +0.000 A 
ENDBRANCH  17  18
ENDBRANCH  16  17
ENDBRANCH  15  16
ENDBRANCH  14  15
ENDBRANCH   2  14
TORSDOF 8
ENDMDL
MODEL 9
REMARK VINA RESULT:      -6.9      4.827      5.910
REMARK  Name = 
REMARK  8 active torsions:
REMARK  status: ('A' for Active; 'I' for Inactive)
REMARK    1  A    between atoms: S_2  and  C_4
REMARK    2  A    between atoms: S_2  and  N_15
REMARK    3  A    between atoms: C_4  and  C_5
REMARK    4  A    between atoms: C_5  and  C_6
REMARK    5  A    between atoms: C_6  and  O_7
REMARK    6  A    between atoms: O_7  and  C_8
REMARK    7  A    between atoms: N_15  and  C_16
REMARK    8  A    between atoms: C_16  and  C_17
REMARK                            x       y       z     vdW  Elec       q    Type
REMARK                         _______ _______ _______ _____ _____    ______ ____
ROOT
ATOM      1  O   UNL     1       7.099   5.050  15.977  0.00  0.00    +0.000 OA
ATOM      2  S   UNL     1       7.368   4.834  17.380  0.00  0.00    +0.000 S 
ATOM      3  O   UNL     1       8.517   4.089  17.838  0.00  0.00    +0.000 OA
ENDROOT
BRANCH   2   4
ATOM      4  N   UNL     1       6.012   4.114  18.072  0.00  0.00    +0.000 NA
ATOM      5  H   UNL     1       6.179   3.638  18.957  0.00  0.00    +0.000 HD
BRANCH   4   6
ATOM      6  C   UNL     1       4.767   4.894  18.025  0.00  0.00    +0.000 C 
BRANCH   6   7
ATOM      7  C   UNL     1       3.808   4.472  19.114  0.00  0.00    +0.000 A 
ATOM      8  C   UNL     1       3.864   3.151  19.595  0.00  0.00    +0.000 A 
ATOM      9  C   UNL     1       2.990   2.714  20.595  0.00  0.00    +0.000 A 
ATOM     10  C   UNL     1       2.054   3.591  21.134  0.00  0.00    +0.000 A 
ATOM     11  C   UNL     1       2.000   4.910  20.684  0.00  0.00    +0.000 A 
ATOM     12  C   UNL     1       2.876   5.350  19.687  0.00  0.00    +0.000 A 
ATOM     13 CL   UNL     1       2.781   7.010  19.211  0.00  0.00    +0.000 Cl
ENDBRANCH   6   7
ENDBRANCH   4   6
ENDBRANCH   2   4
BRANCH   2  14
ATOM     14  C   UNL     1       7.398   6.426  18.202  0.00  0.00    +0.000 C 
BRANCH  14  15
ATOM     15  C   UNL     1       7.896   7.516  17.261  0.00  0.00    +0.000 C 
BRANCH  15  16
ATOM     16  C   UNL     1       7.688   8.903  17.858  0.00  0.00    +0.000 C 
BRANCH  16  17
ATOM     17  O   UNL     1       8.675   9.113  18.868  0.00  0.00    +0.000 OA
BRANCH  17  18
ATOM     18  C   UNL     1       9.223  10.364  18.947  0.00  0.00    +0.000 A 
ATOM     19  C   UNL     1       9.113  11.368  17.980  0.00  0.00    +0.000 A 
ATOM     20  C   UNL     1       9.718  12.611  18.187  0.00  0.00    +0.000 A 
ATOM     21  C   UNL     1      10.426  12.846  19.357  0.00  0.00    +0.000 A 
ATOM     22  F   UNL     1      11.003  14.041  19.550  0.00  0.00    +0.000 F 
ATOM     23  C   UNL     1      10.548  11.861  20.326  0.00  0.00    +0.000 A 
ATOM     24  C   UNL     1       9.946  10.618  20.120  0.00  0.00    +0.000 A 
ENDBRANCH  17  18
ENDBRANCH  16  17
ENDBRANCH  15  16
ENDBRANCH  14  15
ENDBRANCH   2  14
TORSDOF 8
ENDMDL
