MODEL 1
REMARK VINA RESULT:      -7.3      0.000      0.000
REMARK  Name = 
REMARK  3 active torsions:
REMARK  status: ('A' for Active; 'I' for Inactive)
REMARK    1  A    between atoms: C_2  and  C_3
REMARK    2  A    between atoms: C_6  and  N_7
REMARK    3  A    between atoms: C_18  and  N_19
REMARK                            x       y       z     vdW  Elec       q    Type
REMARK                         _______ _______ _______ _____ _____    ______ ____
ROOT
ATOM      1  O   UNL     1       4.078   5.329  20.042  0.00  0.00    +0.000 OA
ATOM      2  C   UNL     1       3.665   5.762  18.966  0.00  0.00    +0.000 C 
ATOM      3  N   UNL     1       2.567   6.627  18.868  0.00  0.00    +0.000 N 
ATOM      4  C   UNL     1       2.101   7.333  17.669  0.00  0.00    +0.000 C 
ATOM      5  C   UNL     1       2.123   8.842  17.861  0.00  0.00    +0.000 C 
ATOM      6  C   UNL     1       1.333   9.247  19.093  0.00  0.00    +0.000 C 
ATOM      7  C   UNL     1       1.803   8.475  20.338  0.00  0.00    +0.000 C 
ATOM      8  C   UNL     1       1.823   6.955  20.092  0.00  0.00    +0.000 C 
ENDROOT
BRANCH   2   9
ATOM      9  C   UNL     1       4.417   5.375  17.738  0.00  0.00    +0.000 A 
ATOM     10  C   UNL     1       4.441   4.061  17.272  0.00  0.00    +0.000 A 
ATOM     11  C   UNL     1       4.977   3.766  16.018  0.00  0.00    +0.000 A 
ATOM     12  C   UNL     1       5.623   4.760  15.272  0.00  0.00    +0.000 A 
ATOM     13  C   UNL     1       5.726   6.054  15.807  0.00  0.00    +0.000 A 
ATOM     14  C   UNL     1       5.112   6.361  17.030  0.00  0.00    +0.000 A 
BRANCH  12  15
ATOM     15  N   UNL     1       6.173   4.441  13.998  0.00  0.00    +0.000 N 
ATOM     16  C   UNL     1       5.688   3.524  13.089  0.00  0.00    +0.000 A 
ATOM     17  C   UNL     1       6.547   3.555  12.018  0.00  0.00    +0.000 A 
ATOM     18  N   UNL     1       7.543   4.462  12.222  0.00  0.00    +0.000 NA
ATOM     19  C   UNL     1       7.295   4.978  13.407  0.00  0.00    +0.000 A 
ENDBRANCH  12  15
ENDBRANCH   2   9
BRANCH   7  20
ATOM     20  N   UNL     1       0.999   8.838  21.494  0.00  0.00    +0.000 N 
ATOM     21  C   UNL     1      -0.365   8.790  21.593  0.00  0.00    +0.000 A 
ATOM     22  C   UNL     1      -0.650   9.315  22.830  0.00  0.00    +0.000 A 
ATOM     23  N   UNL     1       0.501   9.664  23.486  0.00  0.00    +0.000 NA
ATOM     24  C   UNL     1       1.477   9.365  22.660  0.00  0.00    +0.000 A 
ENDBRANCH   7  20
TORSDOF 3
ENDMDL
MODEL 2
REMARK VINA RESULT:      -7.0      1.002      1.208
REMARK  Name = 
REMARK  3 active torsions:
REMARK  status: ('A' for Active; 'I' for Inactive)
REMARK    1  A    between atoms: C_2  and  C_3
REMARK    2  A    between atoms: C_6  and  N_7
REMARK    3  A    between atoms: C_18  and  N_19
REMARK                            x       y       z     vdW  Elec       q    Type
REMARK                         _______ _______ _______ _____ _____    ______ ____
ROOT
ATOM      1  O   UNL     1       3.312   5.918  20.295  0.00  0.00    +0.000 OA
ATOM      2  C   UNL     1       3.068   6.373  19.178  0.00  0.00    +0.000 C 
ATOM      3  N   UNL     1       2.109   7.372  18.959  0.00  0.00    +0.000 N 
ATOM      4  C   UNL     1       1.860   8.102  17.710  0.00  0.00    +0.000 C 
ATOM      5  C   UNL     1       2.064   9.599  17.884  0.00  0.00    +0.000 C 
ATOM      6  C   UNL     1       1.219  10.137  19.025  0.00  0.00    +0.000 C 
ATOM      7  C   UNL     1       1.458   9.343  20.321  0.00  0.00    +0.000 C 
ATOM      8  C   UNL     1       1.300   7.827  20.098  0.00  0.00    +0.000 C 
ENDROOT
BRANCH   2   9
ATOM      9  C   UNL     1       3.878   5.859  18.037  0.00  0.00    +0.000 A 
ATOM     10  C   UNL     1       3.730   4.558  17.555  0.00  0.00    +0.000 A 
ATOM     11  C   UNL     1       4.347   4.172  16.366  0.00  0.00    +0.000 A 
ATOM     12  C   UNL     1       5.234   5.038  15.713  0.00  0.00    +0.000 A 
ATOM     13  C   UNL     1       5.494   6.297  16.277  0.00  0.00    +0.000 A 
ATOM     14  C   UNL     1       4.806   6.709  17.427  0.00  0.00    +0.000 A 
BRANCH  12  15
ATOM     15  N   UNL     1       5.863   4.625  14.505  0.00  0.00    +0.000 N 
ATOM     16  C   UNL     1       7.127   4.962  14.067  0.00  0.00    +0.000 A 
ATOM     17  C   UNL     1       7.292   4.340  12.855  0.00  0.00    +0.000 A 
ATOM     18  N   UNL     1       6.184   3.620  12.525  0.00  0.00    +0.000 NA
ATOM     19  C   UNL     1       5.349   3.804  13.525  0.00  0.00    +0.000 A 
ENDBRANCH  12  15
ENDBRANCH   2   9
BRANCH   7  20
ATOM     20  N   UNL     1       0.601   9.838  21.386  0.00  0.00    +0.000 N 
ATOM     21  C   UNL     1      -0.287  10.876  21.308  0.00  0.00    +0.000 A 
ATOM     22  C   UNL     1      -0.781  11.017  22.582  0.00  0.00    +0.000 A 
ATOM     23  N   UNL     1      -0.229  10.086  23.422  0.00  0.00    +0.000 NA
ATOM     24  C   UNL     1       0.597   9.390  22.675  0.00  0.00    +0.000 A 
ENDBRANCH   7  20
TORSDOF 3
ENDMDL
MODEL 3
REMARK VINA RESULT:      -6.9      2.124      3.055
REMARK  Name = 
REMARK  3 active torsions:
REMARK  status: ('A' for Active; 'I' for Inactive)
REMARK    1  A    between atoms: C_2  and  C_3
REMARK    2  A    between atoms: C_6  and  N_7
REMARK    3  A    between atoms: C_18  and  N_19
REMARK                            x       y       z     vdW  Elec       q    Type
REMARK                         _______ _______ _______ _____ _____    ______ ____
ROOT
ATOM      1  O   UNL     1       1.703   7.289  20.850  0.00  0.00    +0.000 OA
ATOM      2  C   UNL     1       1.791   7.827  19.746  0.00  0.00    +0.000 C 
ATOM      3  N   UNL     1       1.158   9.039  19.441  0.00  0.00    +0.000 N 
ATOM      4  C   UNL     1       1.332   9.848  18.228  0.00  0.00    +0.000 C 
ATOM      5  C   UNL     1       1.851  11.241  18.552  0.00  0.00    +0.000 C 
ATOM      6  C   UNL     1       0.959  11.935  19.565  0.00  0.00    +0.000 C 
ATOM      7  C   UNL     1       0.751  11.065  20.817  0.00  0.00    +0.000 C 
ATOM      8  C   UNL     1       0.281   9.645  20.452  0.00  0.00    +0.000 C 
ENDROOT
BRANCH   2   9
ATOM      9  C   UNL     1       2.655   7.164  18.728  0.00  0.00    +0.000 A 
ATOM     10  C   UNL     1       3.331   7.893  17.749  0.00  0.00    +0.000 A 
ATOM     11  C   UNL     1       4.288   7.275  16.944  0.00  0.00    +0.000 A 
ATOM     12  C   UNL     1       4.483   5.889  17.011  0.00  0.00    +0.000 A 
ATOM     13  C   UNL     1       3.698   5.134  17.897  0.00  0.00    +0.000 A 
ATOM     14  C   UNL     1       2.798   5.774  18.761  0.00  0.00    +0.000 A 
BRANCH  12  15
ATOM     15  N   UNL     1       5.457   5.272  16.176  0.00  0.00    +0.000 N 
ATOM     16  C   UNL     1       5.225   4.403  15.129  0.00  0.00    +0.000 A 
ATOM     17  C   UNL     1       6.458   4.066  14.631  0.00  0.00    +0.000 A 
ATOM     18  N   UNL     1       7.449   4.699  15.319  0.00  0.00    +0.000 NA
ATOM     19  C   UNL     1       6.826   5.413  16.232  0.00  0.00    +0.000 A 
ENDBRANCH  12  15
ENDBRANCH   2   9
BRANCH   7  20
ATOM     20  N   UNL     1      -0.148  11.724  21.750  0.00  0.00    +0.000 N 
ATOM     21  C   UNL     1      -0.374  13.069  21.861  0.00  0.00    +0.000 A 
ATOM     22  C   UNL     1      -1.222  13.199  22.934  0.00  0.00    +0.000 A 
ATOM     23  N   UNL     1      -1.526  11.973  23.464  0.00  0.00    +0.000 NA
ATOM     24  C   UNL     1      -0.868  11.105  22.731  0.00  0.00    +0.000 A 
ENDBRANCH   7  20
TORSDOF 3
ENDMDL
MODEL 4
REMARK VINA RESULT:      -6.8      3.807      5.425
REMARK  Name = 
REMARK  3 active torsions:
REMARK  status: ('A' for Active; 'I' for Inactive)
REMARK    1  A    between atoms: C_2  and  C_3
REMARK    2  A    between atoms: C_6  and  N_7
REMARK    3  A    between atoms: C_18  and  N_19
REMARK                            x       y       z     vdW  Elec       q    Type
REMARK                         _______ _______ _______ _____ _____    ______ ____
ROOT
ATOM      1  O   UNL     1       0.851   9.922  18.533  0.00  0.00    +0.000 OA
ATOM      2  C   UNL     1       1.147   9.364  19.590  0.00  0.00    +0.000 C 
ATOM      3  N   UNL     1       0.912   9.944  20.844  0.00  0.00    +0.000 N 
ATOM      4  C   UNL     1       1.063   9.305  22.157  0.00  0.00    +0.000 C 
ATOM      5  C   UNL     1      -0.248   9.284  22.926  0.00  0.00    +0.000 C 
ATOM      6  C   UNL     1      -0.835  10.679  23.047  0.00  0.00    +0.000 C 
ATOM      7  C   UNL     1      -0.956  11.356  21.670  0.00  0.00    +0.000 C 
ATOM      8  C   UNL     1       0.374  11.310  20.894  0.00  0.00    +0.000 C 
ENDROOT
BRANCH   2   9
ATOM      9  C   UNL     1       1.730   7.995  19.503  0.00  0.00    +0.000 A 
ATOM     10  C   UNL     1       1.574   7.061  20.527  0.00  0.00    +0.000 A 
ATOM     11  C   UNL     1       1.950   5.732  20.334  0.00  0.00    +0.000 A 
ATOM     12  C   UNL     1       2.616   5.347  19.163  0.00  0.00    +0.000 A 
ATOM     13  C   UNL     1       2.903   6.319  18.192  0.00  0.00    +0.000 A 
ATOM     14  C   UNL     1       2.447   7.636  18.358  0.00  0.00    +0.000 A 
BRANCH  12  15
ATOM     15  N   UNL     1       3.002   3.988  18.985  0.00  0.00    +0.000 N 
ATOM     16  C   UNL     1       2.531   3.108  18.033  0.00  0.00    +0.000 A 
ATOM     17  C   UNL     1       3.182   1.919  18.255  0.00  0.00    +0.000 A 
ATOM     18  N   UNL     1       4.046   2.028  19.302  0.00  0.00    +0.000 NA
ATOM     19  C   UNL     1       3.922   3.271  19.718  0.00  0.00    +0.000 A 
ENDBRANCH  12  15
ENDBRANCH   2   9
BRANCH   7  20
ATOM     20  N   UNL     1      -1.468  12.710  21.813  0.00  0.00    +0.000 N 
ATOM     21  C   UNL     1      -1.714  13.374  22.983  0.00  0.00    +0.000 A 
ATOM     22  C   UNL     1      -2.271  14.571  22.601  0.00  0.00    +0.000 A 
ATOM     23  N   UNL     1      -2.352  14.654  21.236  0.00  0.00    +0.000 NA
ATOM     24  C   UNL     1      -1.861  13.522  20.788  0.00  0.00    +0.000 A 
ENDBRANCH   7  20
TORSDOF 3
ENDMDL
MODEL 5
REMARK VINA RESULT:      -6.7      0.578      1.139
REMARK  Name = 
REMARK  3 active torsions:
REMARK  status: ('A' for Active; 'I' for Inactive)
REMARK    1  A    between atoms: C_2  and  C_3
REMARK    2  A    between atoms: C_6  and  N_7
REMARK    3  A    between atoms: C_18  and  N_19
REMARK                            x       y       z     vdW  Elec       q    Type
REMARK                         _______ _______ _______ _____ _____    ______ ____
ROOT
ATOM      1  O   UNL     1       3.834   5.787  19.867  0.00  0.00    +0.000 OA
ATOM      2  C   UNL     1       3.330   6.228  18.834  0.00  0.00    +0.000 C 
ATOM      3  N   UNL     1       2.226   7.091  18.837  0.00  0.00    +0.000 N 
ATOM      4  C   UNL     1       1.657   7.806  17.688  0.00  0.00    +0.000 C 
ATOM      5  C   UNL     1       1.694   9.313  17.889  0.00  0.00    +0.000 C 
ATOM      6  C   UNL     1       1.013   9.708  19.188  0.00  0.00    +0.000 C 
ATOM      7  C   UNL     1       1.589   8.928  20.382  0.00  0.00    +0.000 C 
ATOM      8  C   UNL     1       1.590   7.410  20.123  0.00  0.00    +0.000 C 
ENDROOT
BRANCH   2   9
ATOM      9  C   UNL     1       3.973   5.852  17.543  0.00  0.00    +0.000 A 
ATOM     10  C   UNL     1       4.538   6.805  16.695  0.00  0.00    +0.000 A 
ATOM     11  C   UNL     1       5.309   6.411  15.602  0.00  0.00    +0.000 A 
ATOM     12  C   UNL     1       5.411   5.056  15.260  0.00  0.00    +0.000 A 
ATOM     13  C   UNL     1       4.723   4.106  16.030  0.00  0.00    +0.000 A 
ATOM     14  C   UNL     1       4.019   4.503  17.175  0.00  0.00    +0.000 A 
BRANCH  12  15
ATOM     15  N   UNL     1       6.195   4.670  14.135  0.00  0.00    +0.000 N 
ATOM     16  C   UNL     1       5.885   3.708  13.196  0.00  0.00    +0.000 A 
ATOM     17  C   UNL     1       6.936   3.681  12.314  0.00  0.00    +0.000 A 
ATOM     18  N   UNL     1       7.883   4.596  12.660  0.00  0.00    +0.000 NA
ATOM     19  C   UNL     1       7.416   5.174  13.747  0.00  0.00    +0.000 A 
ENDBRANCH  12  15
ENDBRANCH   2   9
BRANCH   7  20
ATOM     20  N   UNL     1       0.888   9.281  21.606  0.00  0.00    +0.000 N 
ATOM     21  C   UNL     1      -0.331   9.894  21.704  0.00  0.00    +0.000 A 
ATOM     22  C   UNL     1      -0.519  10.095  23.051  0.00  0.00    +0.000 A 
ATOM     23  N   UNL     1       0.542   9.608  23.767  0.00  0.00    +0.000 NA
ATOM     24  C   UNL     1       1.372   9.123  22.872  0.00  0.00    +0.000 A 
ENDBRANCH   7  20
TORSDOF 3
ENDMDL
MODEL 6
REMARK VINA RESULT:      -6.7      2.288      9.295
REMARK  Name = 
REMARK  3 active torsions:
REMARK  status: ('A' for Active; 'I' for Inactive)
REMARK    1  A    between atoms: C_2  and  C_3
REMARK    2  A    between atoms: C_6  and  N_7
REMARK    3  A    between atoms: C_18  and  N_19
REMARK                            x       y       z     vdW  Elec       q    Type
REMARK                         _______ _______ _______ _____ _____    ______ ____
ROOT
ATOM      1  O   UNL     1       2.963   9.222  17.398  0.00  0.00    +0.000 OA
ATOM      2  C   UNL     1       2.387   8.467  18.181  0.00  0.00    +0.000 C 
ATOM      3  N   UNL     1       2.685   7.101  18.275  0.00  0.00    +0.000 N 
ATOM      4  C   UNL     1       2.188   6.154  19.280  0.00  0.00    +0.000 C 
ATOM      5  C   UNL     1       3.325   5.533  20.077  0.00  0.00    +0.000 C 
ATOM      6  C   UNL     1       4.349   4.890  19.160  0.00  0.00    +0.000 C 
ATOM      7  C   UNL     1       4.837   5.878  18.085  0.00  0.00    +0.000 C 
ATOM      8  C   UNL     1       3.661   6.531  17.336  0.00  0.00    +0.000 C 
ENDROOT
BRANCH   2   9
ATOM      9  C   UNL     1       1.372   9.070  19.091  0.00  0.00    +0.000 A 
ATOM     10  C   UNL     1       1.374   8.823  20.464  0.00  0.00    +0.000 A 
ATOM     11  C   UNL     1       0.547   9.556  21.314  0.00  0.00    +0.000 A 
ATOM     12  C   UNL     1      -0.397  10.449  20.789  0.00  0.00    +0.000 A 
ATOM     13  C   UNL     1      -0.499  10.590  19.396  0.00  0.00    +0.000 A 
ATOM     14  C   UNL     1       0.394   9.912  18.553  0.00  0.00    +0.000 A 
BRANCH  12  15
ATOM     15  N   UNL     1      -1.241  11.182  21.670  0.00  0.00    +0.000 N 
ATOM     16  C   UNL     1      -1.359  11.022  23.036  0.00  0.00    +0.000 A 
ATOM     17  C   UNL     1      -2.293  11.938  23.450  0.00  0.00    +0.000 A 
ATOM     18  N   UNL     1      -2.755  12.669  22.397  0.00  0.00    +0.000 NA
ATOM     19  C   UNL     1      -2.110  12.202  21.350  0.00  0.00    +0.000 A 
ENDBRANCH  12  15
ENDBRANCH   2   9
BRANCH   7  20
ATOM     20  N   UNL     1       5.775   5.227  17.185  0.00  0.00    +0.000 N 
ATOM     21  C   UNL     1       5.478   4.588  16.013  0.00  0.00    +0.000 A 
ATOM     22  C   UNL     1       6.672   4.063  15.582  0.00  0.00    +0.000 A 
ATOM     23  N   UNL     1       7.683   4.381  16.450  0.00  0.00    +0.000 NA
ATOM     24  C   UNL     1       7.115   5.082  17.404  0.00  0.00    +0.000 A 
ENDBRANCH   7  20
TORSDOF 3
ENDMDL
MODEL 7
REMARK VINA RESULT:      -6.7      2.993      5.202
REMARK  Name = 
REMARK  3 active torsions:
REMARK  status: ('A' for Active; 'I' for Inactive)
REMARK    1  A    between atoms: C_2  and  C_3
REMARK    2  A    between atoms: C_6  and  N_7
REMARK    3  A    between atoms: C_18  and  N_19
REMARK                            x       y       z     vdW  Elec       q    Type
REMARK                         _______ _______ _______ _____ _____    ______ ____
ROOT
ATOM      1  O   UNL     1       0.309  10.696  18.513  0.00  0.00    +0.000 OA
ATOM      2  C   UNL     1       0.845  10.089  19.440  0.00  0.00    +0.000 C 
ATOM      3  N   UNL     1       0.677  10.454  20.783  0.00  0.00    +0.000 N 
ATOM      4  C   UNL     1       1.123   9.709  21.965  0.00  0.00    +0.000 C 
ATOM      5  C   UNL     1      -0.045   9.328  22.863  0.00  0.00    +0.000 C 
ATOM      6  C   UNL     1      -0.861  10.550  23.245  0.00  0.00    +0.000 C 
ATOM      7  C   UNL     1      -1.293  11.347  22.002  0.00  0.00    +0.000 C 
ATOM      8  C   UNL     1      -0.097  11.666  21.087  0.00  0.00    +0.000 C 
ENDROOT
BRANCH   2   9
ATOM      9  C   UNL     1       1.658   8.888  19.094  0.00  0.00    +0.000 A 
ATOM     10  C   UNL     1       1.794   7.813  19.972  0.00  0.00    +0.000 A 
ATOM     11  C   UNL     1       2.385   6.624  19.546  0.00  0.00    +0.000 A 
ATOM     12  C   UNL     1       2.975   6.540  18.278  0.00  0.00    +0.000 A 
ATOM     13  C   UNL     1       2.965   7.672  17.447  0.00  0.00    +0.000 A 
ATOM     14  C   UNL     1       2.296   8.836  17.851  0.00  0.00    +0.000 A 
BRANCH  12  15
ATOM     15  N   UNL     1       3.584   5.323  17.861  0.00  0.00    +0.000 N 
ATOM     16  C   UNL     1       4.569   5.169  16.907  0.00  0.00    +0.000 A 
ATOM     17  C   UNL     1       4.831   3.823  16.841  0.00  0.00    +0.000 A 
ATOM     18  N   UNL     1       4.054   3.134  17.723  0.00  0.00    +0.000 NA
ATOM     19  C   UNL     1       3.323   4.050  18.320  0.00  0.00    +0.000 A 
ENDBRANCH  12  15
ENDBRANCH   2   9
BRANCH   7  20
ATOM     20  N   UNL     1      -2.026  12.540  22.392  0.00  0.00    +0.000 N 
ATOM     21  C   UNL     1      -1.615  13.504  23.272  0.00  0.00    +0.000 A 
ATOM     22  C   UNL     1      -2.681  14.365  23.378  0.00  0.00    +0.000 A 
ATOM     23  N   UNL     1      -3.716  13.957  22.578  0.00  0.00    +0.000 NA
ATOM     24  C   UNL     1      -3.293  12.858  21.996  0.00  0.00    +0.000 A 
ENDBRANCH   7  20
TORSDOF 3
ENDMDL
MODEL 8
REMARK VINA RESULT:      -6.7      4.826      7.017
REMARK  Name = 
REMARK  3 active torsions:
REMARK  status: ('A' for Active; 'I' for Inactive)
REMARK    1  A    between atoms: C_2  and  C_3
REMARK    2  A    between atoms: C_6  and  N_7
REMARK    3  A    between atoms: C_18  and  N_19
REMARK                            x       y       z     vdW  Elec       q    Type
REMARK                         _______ _______ _______ _____ _____    ______ ____
ROOT
ATOM      1  O   UNL     1      -1.113  10.996  18.810  0.00  0.00    +0.000 OA
ATOM      2  C   UNL     1       0.111  11.125  18.804  0.00  0.00    +0.000 C 
ATOM      3  N   UNL     1       0.742  12.370  18.676  0.00  0.00    +0.000 N 
ATOM      4  C   UNL     1       2.173  12.656  18.828  0.00  0.00    +0.000 C 
ATOM      5  C   UNL     1       2.431  13.654  19.946  0.00  0.00    +0.000 C 
ATOM      6  C   UNL     1       1.624  14.924  19.743  0.00  0.00    +0.000 C 
ATOM      7  C   UNL     1       0.130  14.612  19.548  0.00  0.00    +0.000 C 
ATOM      8  C   UNL     1      -0.093  13.557  18.448  0.00  0.00    +0.000 C 
ENDROOT
BRANCH   2   9
ATOM      9  C   UNL     1       0.930   9.894  18.996  0.00  0.00    +0.000 A 
ATOM     10  C   UNL     1       1.056   9.279  20.242  0.00  0.00    +0.000 A 
ATOM     11  C   UNL     1       1.654   8.025  20.352  0.00  0.00    +0.000 A 
ATOM     12  C   UNL     1       2.261   7.428  19.239  0.00  0.00    +0.000 A 
ATOM     13  C   UNL     1       2.260   8.114  18.015  0.00  0.00    +0.000 A 
ATOM     14  C   UNL     1       1.584   9.336  17.893  0.00  0.00    +0.000 A 
BRANCH  12  15
ATOM     15  N   UNL     1       2.876   6.151  19.371  0.00  0.00    +0.000 N 
ATOM     16  C   UNL     1       3.946   5.665  18.649  0.00  0.00    +0.000 A 
ATOM     17  C   UNL     1       4.179   4.395  19.116  0.00  0.00    +0.000 A 
ATOM     18  N   UNL     1       3.302   4.075  20.108  0.00  0.00    +0.000 NA
ATOM     19  C   UNL     1       2.538   5.139  20.242  0.00  0.00    +0.000 A 
ENDBRANCH  12  15
ENDBRANCH   2   9
BRANCH   7  20
ATOM     20  N   UNL     1      -0.616  15.836  19.301  0.00  0.00    +0.000 N 
ATOM     21  C   UNL     1      -0.402  16.739  18.296  0.00  0.00    +0.000 A 
ATOM     22  C   UNL     1      -1.291  17.758  18.540  0.00  0.00    +0.000 A 
ATOM     23  N   UNL     1      -2.045  17.489  19.651  0.00  0.00    +0.000 NA
ATOM     24  C   UNL     1      -1.619  16.326  20.087  0.00  0.00    +0.000 A 
ENDBRANCH   7  20
TORSDOF 3
ENDMDL
MODEL 9
REMARK VINA RESULT:      -6.6      3.120      5.384
REMARK  Name = 
REMARK  3 active torsions:
REMARK  status: ('A' for Active; 'I' for Inactive)
REMARK    1  A    between atoms: C_2  and  C_3
REMARK    2  A    between atoms: C_6  and  N_7
REMARK    3  A    between atoms: C_18  and  N_19
REMARK                            x       y       z     vdW  Elec       q    Type
REMARK                         _______ _______ _______ _____ _____    ______ ____
ROOT
ATOM      1  O   UNL     1       0.389  10.920  18.562  0.00  0.00    +0.000 OA
ATOM      2  C   UNL     1       0.816  10.236  19.492  0.00  0.00    +0.000 C 
ATOM      3  N   UNL     1       0.597  10.564  20.837  0.00  0.00    +0.000 N 
ATOM      4  C   UNL     1       0.907   9.739  22.011  0.00  0.00    +0.000 C 
ATOM      5  C   UNL     1      -0.340   9.425  22.822  0.00  0.00    +0.000 C 
ATOM      6  C   UNL     1      -1.076  10.695  23.209  0.00  0.00    +0.000 C 
ATOM      7  C   UNL     1      -1.364  11.572  21.977  0.00  0.00    +0.000 C 
ATOM      8  C   UNL     1      -0.092  11.824  21.147  0.00  0.00    +0.000 C 
ENDROOT
BRANCH   2   9
ATOM      9  C   UNL     1       1.547   8.985  19.143  0.00  0.00    +0.000 A 
ATOM     10  C   UNL     1       2.200   8.830  17.919  0.00  0.00    +0.000 A 
ATOM     11  C   UNL     1       3.043   7.740  17.702  0.00  0.00    +0.000 A 
ATOM     12  C   UNL     1       3.137   6.716  18.653  0.00  0.00    +0.000 A 
ATOM     13  C   UNL     1       2.367   6.802  19.824  0.00  0.00    +0.000 A 
ATOM     14  C   UNL     1       1.587   7.941  20.072  0.00  0.00    +0.000 A 
BRANCH  12  15
ATOM     15  N   UNL     1       3.994   5.605  18.412  0.00  0.00    +0.000 N 
ATOM     16  C   UNL     1       3.996   4.780  17.306  0.00  0.00    +0.000 A 
ATOM     17  C   UNL     1       4.985   3.852  17.522  0.00  0.00    +0.000 A 
ATOM     18  N   UNL     1       5.605   4.074  18.714  0.00  0.00    +0.000 NA
ATOM     19  C   UNL     1       4.999   5.125  19.223  0.00  0.00    +0.000 A 
ENDBRANCH  12  15
ENDBRANCH   2   9
BRANCH   7  20
ATOM     20  N   UNL     1      -2.020  12.807  22.376  0.00  0.00    +0.000 N 
ATOM     21  C   UNL     1      -3.090  13.402  21.765  0.00  0.00    +0.000 A 
ATOM     22  C   UNL     1      -3.278  14.580  22.447  0.00  0.00    +0.000 A 
ATOM     23  N   UNL     1      -2.364  14.706  23.459  0.00  0.00    +0.000 NA
ATOM     24  C   UNL     1      -1.621  13.625  23.393  0.00  0.00    +0.000 A 
ENDBRANCH   7  20
TORSDOF 3
ENDMDL
