MODEL 1
REMARK VINA RESULT:      -9.4      0.000      0.000
REMARK  Name = 
REMARK  5 active torsions:
REMARK  status: ('A' for Active; 'I' for Inactive)
REMARK    1  A    between atoms: C_1  and  O_2
REMARK    2  A    between atoms: O_2  and  C_3
REMARK    3  A    between atoms: C_9  and  C_10
REMARK    4  A    between atoms: C_16  and  S_17
REMARK    5  A    between atoms: S_17  and  N_20
REMARK                            x       y       z     vdW  Elec       q    Type
REMARK                         _______ _______ _______ _____ _____    ______ ____
ROOT
ATOM      1  C   UNL     1       3.896   4.270  18.999  0.00  0.00    +0.000 A 
ATOM      2  N   UNL     1       3.806   3.068  19.633  0.00  0.00    +0.000 NA
ATOM      3  C   UNL     1       2.932   2.936  20.648  0.00  0.00    +0.000 A 
ATOM      4  C   UNL     1       2.164   3.969  21.141  0.00  0.00    +0.000 A 
ATOM      5  C   UNL     1       2.259   5.221  20.536  0.00  0.00    +0.000 A 
ATOM      6  C   UNL     1       1.533   6.304  21.069  0.00  0.00    +0.000 A 
ATOM      7  C   UNL     1       1.592   7.562  20.465  0.00  0.00    +0.000 A 
ATOM      8  C   UNL     1       2.345   7.750  19.314  0.00  0.00    +0.000 A 
ATOM      9  C   UNL     1       3.044   6.668  18.773  0.00  0.00    +0.000 A 
ATOM     10  C   UNL     1       3.090   5.389  19.400  0.00  0.00    +0.000 A 
ENDROOT
BRANCH   1  17
ATOM     11  C   UNL     1       6.282   4.686  18.129  0.00  0.00    +0.000 A 
ATOM     12  C   UNL     1       7.229   4.597  17.087  0.00  0.00    +0.000 A 
ATOM     13  C   UNL     1       6.862   4.168  15.816  0.00  0.00    +0.000 A 
ATOM     14  C   UNL     1       5.533   3.883  15.561  0.00  0.00    +0.000 A 
ATOM     15  C   UNL     1       4.590   4.002  16.584  0.00  0.00    +0.000 A 
ATOM     16  F   UNL     1       3.309   3.801  16.233  0.00  0.00    +0.000 F 
ATOM     17  C   UNL     1       4.931   4.313  17.917  0.00  0.00    +0.000 A 
BRANCH  11  19
ATOM     18  C   UNL     1       7.909   5.806  19.437  0.00  0.00    +0.000 C 
ATOM     19  O   UNL     1       6.680   5.078  19.388  0.00  0.00    +0.000 OA
ENDBRANCH  11  19
ENDBRANCH   1  17
BRANCH   7  20
ATOM     20  S   UNL     1       0.752   8.948  21.198  0.00  0.00    +0.000 S 
ATOM     21  O   UNL     1      -0.648   8.607  21.338  0.00  0.00    +0.000 OA
ATOM     22  O   UNL     1       1.535   9.368  22.341  0.00  0.00    +0.000 OA
BRANCH  20  23
ATOM     23  N   UNL     1       0.915  10.167  20.037  0.00  0.00    +0.000 N 
ATOM     24  C   UNL     1      -0.290  10.667  19.514  0.00  0.00    +0.000 A 
ATOM     25  C   UNL     1      -1.059  11.584  20.191  0.00  0.00    +0.000 A 
ATOM     26  C   UNL     1      -2.216  11.955  19.547  0.00  0.00    +0.000 A 
ATOM     27  N   UNL     1      -2.601  11.437  18.366  0.00  0.00    +0.000 NA
ATOM     28  C   UNL     1      -1.772  10.534  17.819  0.00  0.00    +0.000 A 
ATOM     29  N   UNL     1      -0.609  10.121  18.336  0.00  0.00    +0.000 NA
ATOM     30  H   UNL     1       1.522   9.847  19.291  0.00  0.00    +0.000 HD
ENDBRANCH  20  23
ENDBRANCH   7  20
TORSDOF 4
ENDMDL
MODEL 2
REMARK VINA RESULT:      -8.8      1.169      1.517
REMARK  Name = 
REMARK  5 active torsions:
REMARK  status: ('A' for Active; 'I' for Inactive)
REMARK    1  A    between atoms: C_1  and  O_2
REMARK    2  A    between atoms: O_2  and  C_3
REMARK    3  A    between atoms: C_9  and  C_10
REMARK    4  A    between atoms: C_16  and  S_17
REMARK    5  A    between atoms: S_17  and  N_20
REMARK                            x       y       z     vdW  Elec       q    Type
REMARK                         _______ _______ _______ _____ _____    ______ ____
ROOT
ATOM      1  C   UNL     1       3.826   4.369  19.122  0.00  0.00    +0.000 A 
ATOM      2  N   UNL     1       3.738   3.183  19.785  0.00  0.00    +0.000 NA
ATOM      3  C   UNL     1       2.828   3.059  20.769  0.00  0.00    +0.000 A 
ATOM      4  C   UNL     1       2.021   4.089  21.205  0.00  0.00    +0.000 A 
ATOM      5  C   UNL     1       2.113   5.325  20.570  0.00  0.00    +0.000 A 
ATOM      6  C   UNL     1       1.345   6.407  21.044  0.00  0.00    +0.000 A 
ATOM      7  C   UNL     1       1.401   7.648  20.408  0.00  0.00    +0.000 A 
ATOM      8  C   UNL     1       2.193   7.821  19.282  0.00  0.00    +0.000 A 
ATOM      9  C   UNL     1       2.934   6.741  18.797  0.00  0.00    +0.000 A 
ATOM     10  C   UNL     1       2.982   5.480  19.460  0.00  0.00    +0.000 A 
ENDROOT
BRANCH   1  17
ATOM     11  C   UNL     1       6.240   4.793  18.334  0.00  0.00    +0.000 A 
ATOM     12  C   UNL     1       7.225   4.697  17.329  0.00  0.00    +0.000 A 
ATOM     13  C   UNL     1       6.908   4.246  16.052  0.00  0.00    +0.000 A 
ATOM     14  C   UNL     1       5.592   3.945  15.752  0.00  0.00    +0.000 A 
ATOM     15  C   UNL     1       4.612   4.071  16.738  0.00  0.00    +0.000 A 
ATOM     16  F   UNL     1       3.346   3.854  16.342  0.00  0.00    +0.000 F 
ATOM     17  C   UNL     1       4.900   4.405  18.078  0.00  0.00    +0.000 A 
BRANCH  11  19
ATOM     18  C   UNL     1       7.906   5.742  19.723  0.00  0.00    +0.000 C 
ATOM     19  O   UNL     1       6.587   5.206  19.600  0.00  0.00    +0.000 OA
ENDBRANCH  11  19
ENDBRANCH   1  17
BRANCH   7  20
ATOM     20  S   UNL     1       0.505   9.035  21.071  0.00  0.00    +0.000 S 
ATOM     21  O   UNL     1      -0.559   8.528  21.910  0.00  0.00    +0.000 OA
ATOM     22  O   UNL     1       1.483   9.968  21.589  0.00  0.00    +0.000 OA
BRANCH  20  23
ATOM     23  N   UNL     1      -0.165   9.763  19.700  0.00  0.00    +0.000 N 
ATOM     24  C   UNL     1       0.267  11.075  19.441  0.00  0.00    +0.000 A 
ATOM     25  C   UNL     1       1.475  11.345  18.844  0.00  0.00    +0.000 A 
ATOM     26  C   UNL     1       1.752  12.682  18.681  0.00  0.00    +0.000 A 
ATOM     27  N   UNL     1       0.935  13.662  19.107  0.00  0.00    +0.000 NA
ATOM     28  C   UNL     1      -0.206  13.266  19.695  0.00  0.00    +0.000 A 
ATOM     29  N   UNL     1      -0.595  11.999  19.879  0.00  0.00    +0.000 NA
ATOM     30  H   UNL     1      -1.177   9.724  19.754  0.00  0.00    +0.000 HD
ENDBRANCH  20  23
ENDBRANCH   7  20
TORSDOF 4
ENDMDL
MODEL 3
REMARK VINA RESULT:      -8.7      1.168      1.327
REMARK  Name = 
REMARK  5 active torsions:
REMARK  status: ('A' for Active; 'I' for Inactive)
REMARK    1  A    between atoms: C_1  and  O_2
REMARK    2  A    between atoms: O_2  and  C_3
REMARK    3  A    between atoms: C_9  and  C_10
REMARK    4  A    between atoms: C_16  and  S_17
REMARK    5  A    between atoms: S_17  and  N_20
REMARK                            x       y       z     vdW  Elec       q    Type
REMARK                         _______ _______ _______ _____ _____    ______ ____
ROOT
ATOM      1  C   UNL     1       3.905   5.072  18.665  0.00  0.00    +0.000 A 
ATOM      2  N   UNL     1       3.839   4.039  19.550  0.00  0.00    +0.000 NA
ATOM      3  C   UNL     1       2.961   4.114  20.567  0.00  0.00    +0.000 A 
ATOM      4  C   UNL     1       2.167   5.213  20.818  0.00  0.00    +0.000 A 
ATOM      5  C   UNL     1       2.236   6.300  19.950  0.00  0.00    +0.000 A 
ATOM      6  C   UNL     1       1.483   7.458  20.228  0.00  0.00    +0.000 A 
ATOM      7  C   UNL     1       1.516   8.551  19.360  0.00  0.00    +0.000 A 
ATOM      8  C   UNL     1       2.273   8.497  18.197  0.00  0.00    +0.000 A 
ATOM      9  C   UNL     1       3.000   7.339  17.910  0.00  0.00    +0.000 A 
ATOM     10  C   UNL     1       3.071   6.232  18.806  0.00  0.00    +0.000 A 
ENDROOT
BRANCH   1  17
ATOM     11  C   UNL     1       6.261   5.421  17.688  0.00  0.00    +0.000 A 
ATOM     12  C   UNL     1       7.223   5.125  16.700  0.00  0.00    +0.000 A 
ATOM     13  C   UNL     1       6.906   4.335  15.600  0.00  0.00    +0.000 A 
ATOM     14  C   UNL     1       5.607   3.887  15.448  0.00  0.00    +0.000 A 
ATOM     15  C   UNL     1       4.646   4.207  16.409  0.00  0.00    +0.000 A 
ATOM     16  F   UNL     1       3.389   3.816  16.140  0.00  0.00    +0.000 F 
ATOM     17  C   UNL     1       4.945   4.898  17.601  0.00  0.00    +0.000 A 
BRANCH  11  19
ATOM     18  C   UNL     1       7.792   5.740  19.467  0.00  0.00    +0.000 C 
ATOM     19  O   UNL     1       6.612   6.173  18.787  0.00  0.00    +0.000 OA
ENDBRANCH  11  19
ENDBRANCH   1  17
BRANCH   7  20
ATOM     20  S   UNL     1       0.640  10.045  19.766  0.00  0.00    +0.000 S 
ATOM     21  O   UNL     1      -0.546   9.685  20.514  0.00  0.00    +0.000 OA
ATOM     22  O   UNL     1       1.608  10.976  20.306  0.00  0.00    +0.000 OA
BRANCH  20  23
ATOM     23  N   UNL     1       0.183  10.656  18.257  0.00  0.00    +0.000 N 
ATOM     24  C   UNL     1      -1.202  10.739  18.034  0.00  0.00    +0.000 A 
ATOM     25  C   UNL     1      -1.968  11.761  18.543  0.00  0.00    +0.000 A 
ATOM     26  C   UNL     1      -3.308  11.681  18.246  0.00  0.00    +0.000 A 
ATOM     27  N   UNL     1      -3.850  10.665  17.550  0.00  0.00    +0.000 NA
ATOM     28  C   UNL     1      -2.998   9.718  17.127  0.00  0.00    +0.000 A 
ATOM     29  N   UNL     1      -1.675   9.706  17.327  0.00  0.00    +0.000 NA
ATOM     30  H   UNL     1       0.632  10.120  17.522  0.00  0.00    +0.000 HD
ENDBRANCH  20  23
ENDBRANCH   7  20
TORSDOF 4
ENDMDL
MODEL 4
REMARK VINA RESULT:      -8.6      1.217      1.646
REMARK  Name = 
REMARK  5 active torsions:
REMARK  status: ('A' for Active; 'I' for Inactive)
REMARK    1  A    between atoms: C_1  and  O_2
REMARK    2  A    between atoms: O_2  and  C_3
REMARK    3  A    between atoms: C_9  and  C_10
REMARK    4  A    between atoms: C_16  and  S_17
REMARK    5  A    between atoms: S_17  and  N_20
REMARK                            x       y       z     vdW  Elec       q    Type
REMARK                         _______ _______ _______ _____ _____    ______ ____
ROOT
ATOM      1  C   UNL     1       3.768   5.002  18.793  0.00  0.00    +0.000 A 
ATOM      2  N   UNL     1       3.595   3.954  19.645  0.00  0.00    +0.000 NA
ATOM      3  C   UNL     1       2.694   4.071  20.638  0.00  0.00    +0.000 A 
ATOM      4  C   UNL     1       1.981   5.221  20.898  0.00  0.00    +0.000 A 
ATOM      5  C   UNL     1       2.162   6.323  20.066  0.00  0.00    +0.000 A 
ATOM      6  C   UNL     1       1.493   7.528  20.356  0.00  0.00    +0.000 A 
ATOM      7  C   UNL     1       1.639   8.639  19.522  0.00  0.00    +0.000 A 
ATOM      8  C   UNL     1       2.425   8.557  18.381  0.00  0.00    +0.000 A 
ATOM      9  C   UNL     1       3.068   7.353  18.080  0.00  0.00    +0.000 A 
ATOM     10  C   UNL     1       3.024   6.220  18.944  0.00  0.00    +0.000 A 
ENDROOT
BRANCH   1  17
ATOM     11  C   UNL     1       6.175   5.188  17.897  0.00  0.00    +0.000 A 
ATOM     12  C   UNL     1       7.141   4.843  16.929  0.00  0.00    +0.000 A 
ATOM     13  C   UNL     1       6.796   4.115  15.795  0.00  0.00    +0.000 A 
ATOM     14  C   UNL     1       5.471   3.778  15.591  0.00  0.00    +0.000 A 
ATOM     15  C   UNL     1       4.509   4.146  16.533  0.00  0.00    +0.000 A 
ATOM     16  F   UNL     1       3.234   3.868  16.215  0.00  0.00    +0.000 F 
ATOM     17  C   UNL     1       4.825   4.776  17.755  0.00  0.00    +0.000 A 
BRANCH  11  19
ATOM     18  C   UNL     1       7.941   5.803  19.350  0.00  0.00    +0.000 C 
ATOM     19  O   UNL     1       6.550   5.876  19.029  0.00  0.00    +0.000 OA
ENDBRANCH  11  19
ENDBRANCH   1  17
BRANCH   7  20
ATOM     20  S   UNL     1       0.870  10.185  19.946  0.00  0.00    +0.000 S 
ATOM     21  O   UNL     1       1.271  10.537  21.292  0.00  0.00    +0.000 OA
ATOM     22  O   UNL     1       1.095  11.093  18.841  0.00  0.00    +0.000 OA
BRANCH  20  23
ATOM     23  N   UNL     1      -0.781   9.821  19.933  0.00  0.00    +0.000 N 
ATOM     24  C   UNL     1      -1.489  10.273  18.806  0.00  0.00    +0.000 A 
ATOM     25  C   UNL     1      -1.458   9.608  17.605  0.00  0.00    +0.000 A 
ATOM     26  C   UNL     1      -2.192  10.194  16.600  0.00  0.00    +0.000 A 
ATOM     27  N   UNL     1      -2.858  11.353  16.754  0.00  0.00    +0.000 NA
ATOM     28  C   UNL     1      -2.792  11.915  17.972  0.00  0.00    +0.000 A 
ATOM     29  N   UNL     1      -2.138  11.422  19.030  0.00  0.00    +0.000 NA
ATOM     30  H   UNL     1      -1.211  10.161  20.786  0.00  0.00    +0.000 HD
ENDBRANCH  20  23
ENDBRANCH   7  20
TORSDOF 4
ENDMDL
MODEL 5
REMARK VINA RESULT:      -8.5      1.876      2.531
REMARK  Name = 
REMARK  5 active torsions:
REMARK  status: ('A' for Active; 'I' for Inactive)
REMARK    1  A    between atoms: C_1  and  O_2
REMARK    2  A    between atoms: O_2  and  C_3
REMARK    3  A    between atoms: C_9  and  C_10
REMARK    4  A    between atoms: C_16  and  S_17
REMARK    5  A    between atoms: S_17  and  N_20
REMARK                            x       y       z     vdW  Elec       q    Type
REMARK                         _______ _______ _______ _____ _____    ______ ____
ROOT
ATOM      1  C   UNL     1       3.598   5.211  19.086  0.00  0.00    +0.000 A 
ATOM      2  N   UNL     1       3.377   4.293  20.067  0.00  0.00    +0.000 NA
ATOM      3  C   UNL     1       2.438   4.553  20.995  0.00  0.00    +0.000 A 
ATOM      4  C   UNL     1       1.727   5.732  21.062  0.00  0.00    +0.000 A 
ATOM      5  C   UNL     1       1.956   6.706  20.092  0.00  0.00    +0.000 A 
ATOM      6  C   UNL     1       1.289   7.944  20.182  0.00  0.00    +0.000 A 
ATOM      7  C   UNL     1       1.482   8.926  19.208  0.00  0.00    +0.000 A 
ATOM      8  C   UNL     1       2.313   8.680  18.124  0.00  0.00    +0.000 A 
ATOM      9  C   UNL     1       2.954   7.443  18.022  0.00  0.00    +0.000 A 
ATOM     10  C   UNL     1       2.862   6.442  19.033  0.00  0.00    +0.000 A 
ENDROOT
BRANCH   1  17
ATOM     11  C   UNL     1       4.490   4.084  16.950  0.00  0.00    +0.000 A 
ATOM     12  C   UNL     1       5.549   3.863  16.044  0.00  0.00    +0.000 A 
ATOM     13  C   UNL     1       6.827   4.348  16.298  0.00  0.00    +0.000 A 
ATOM     14  C   UNL     1       7.071   5.007  17.489  0.00  0.00    +0.000 A 
ATOM     15  C   UNL     1       6.031   5.199  18.400  0.00  0.00    +0.000 A 
ATOM     16  F   UNL     1       6.369   5.761  19.573  0.00  0.00    +0.000 F 
ATOM     17  C   UNL     1       4.694   4.836  18.135  0.00  0.00    +0.000 A 
BRANCH  11  19
ATOM     18  C   UNL     1       2.890   2.361  17.229  0.00  0.00    +0.000 C 
ATOM     19  O   UNL     1       3.225   3.626  16.655  0.00  0.00    +0.000 OA
ENDBRANCH  11  19
ENDBRANCH   1  17
BRANCH   7  20
ATOM     20  S   UNL     1       0.713  10.520  19.379  0.00  0.00    +0.000 S 
ATOM     21  O   UNL     1      -0.315  10.422  20.393  0.00  0.00    +0.000 OA
ATOM     22  O   UNL     1       1.775  11.498  19.487  0.00  0.00    +0.000 OA
BRANCH  20  23
ATOM     23  N   UNL     1      -0.012  10.772  17.873  0.00  0.00    +0.000 N 
ATOM     24  C   UNL     1      -1.418  10.793  17.876  0.00  0.00    +0.000 A 
ATOM     25  C   UNL     1      -2.134  11.899  18.269  0.00  0.00    +0.000 A 
ATOM     26  C   UNL     1      -3.500  11.745  18.230  0.00  0.00    +0.000 A 
ATOM     27  N   UNL     1      -4.103  10.594  17.879  0.00  0.00    +0.000 NA
ATOM     28  C   UNL     1      -3.290   9.582  17.537  0.00  0.00    +0.000 A 
ATOM     29  N   UNL     1      -1.953   9.624  17.507  0.00  0.00    +0.000 NA
ATOM     30  H   UNL     1       0.333  10.087  17.210  0.00  0.00    +0.000 HD
ENDBRANCH  20  23
ENDBRANCH   7  20
TORSDOF 4
ENDMDL
MODEL 6
REMARK VINA RESULT:      -8.3      1.941      2.394
REMARK  Name = 
REMARK  5 active torsions:
REMARK  status: ('A' for Active; 'I' for Inactive)
REMARK    1  A    between atoms: C_1  and  O_2
REMARK    2  A    between atoms: O_2  and  C_3
REMARK    3  A    between atoms: C_9  and  C_10
REMARK    4  A    between atoms: C_16  and  S_17
REMARK    5  A    between atoms: S_17  and  N_20
REMARK                            x       y       z     vdW  Elec       q    Type
REMARK                         _______ _______ _______ _____ _____    ______ ____
ROOT
ATOM      1  C   UNL     1       3.809   5.170  18.656  0.00  0.00    +0.000 A 
ATOM      2  N   UNL     1       3.669   4.196  19.597  0.00  0.00    +0.000 NA
ATOM      3  C   UNL     1       2.775   4.376  20.586  0.00  0.00    +0.000 A 
ATOM      4  C   UNL     1       2.035   5.527  20.754  0.00  0.00    +0.000 A 
ATOM      5  C   UNL     1       2.181   6.556  19.828  0.00  0.00    +0.000 A 
ATOM      6  C   UNL     1       1.483   7.766  20.020  0.00  0.00    +0.000 A 
ATOM      7  C   UNL     1       1.593   8.803  19.091  0.00  0.00    +0.000 A 
ATOM      8  C   UNL     1       2.371   8.641  17.953  0.00  0.00    +0.000 A 
ATOM      9  C   UNL     1       3.042   7.433  17.751  0.00  0.00    +0.000 A 
ATOM     10  C   UNL     1       3.035   6.378  18.710  0.00  0.00    +0.000 A 
ENDROOT
BRANCH   1  17
ATOM     11  C   UNL     1       6.191   5.369  17.702  0.00  0.00    +0.000 A 
ATOM     12  C   UNL     1       7.161   4.965  16.759  0.00  0.00    +0.000 A 
ATOM     13  C   UNL     1       6.837   4.102  15.718  0.00  0.00    +0.000 A 
ATOM     14  C   UNL     1       5.526   3.683  15.576  0.00  0.00    +0.000 A 
ATOM     15  C   UNL     1       4.560   4.107  16.490  0.00  0.00    +0.000 A 
ATOM     16  F   UNL     1       3.296   3.736  16.227  0.00  0.00    +0.000 F 
ATOM     17  C   UNL     1       4.861   4.881  17.630  0.00  0.00    +0.000 A 
BRANCH  11  19
ATOM     18  C   UNL     1       7.934   6.534  18.803  0.00  0.00    +0.000 C 
ATOM     19  O   UNL     1       6.548   6.194  18.745  0.00  0.00    +0.000 OA
ENDBRANCH  11  19
ENDBRANCH   1  17
BRANCH   7  20
ATOM     20  S   UNL     1       0.789  10.361  19.389  0.00  0.00    +0.000 S 
ATOM     21  O   UNL     1       1.349  11.341  18.483  0.00  0.00    +0.000 OA
ATOM     22  O   UNL     1      -0.637  10.107  19.424  0.00  0.00    +0.000 OA
BRANCH  20  23
ATOM     23  N   UNL     1       1.241  10.742  20.973  0.00  0.00    +0.000 N 
ATOM     24  C   UNL     1       0.247  11.359  21.752  0.00  0.00    +0.000 A 
ATOM     25  C   UNL     1      -0.768  10.646  22.344  0.00  0.00    +0.000 A 
ATOM     26  C   UNL     1      -1.667  11.405  23.057  0.00  0.00    +0.000 A 
ATOM     27  N   UNL     1      -1.596  12.747  23.141  0.00  0.00    +0.000 NA
ATOM     28  C   UNL     1      -0.568  13.325  22.499  0.00  0.00    +0.000 A 
ATOM     29  N   UNL     1       0.382  12.689  21.804  0.00  0.00    +0.000 NA
ATOM     30  H   UNL     1       2.085  11.304  20.960  0.00  0.00    +0.000 HD
ENDBRANCH  20  23
ENDBRANCH   7  20
TORSDOF 4
ENDMDL
MODEL 7
REMARK VINA RESULT:      -8.2      2.335      3.082
REMARK  Name = 
REMARK  5 active torsions:
REMARK  status: ('A' for Active; 'I' for Inactive)
REMARK    1  A    between atoms: C_1  and  O_2
REMARK    2  A    between atoms: O_2  and  C_3
REMARK    3  A    between atoms: C_9  and  C_10
REMARK    4  A    between atoms: C_16  and  S_17
REMARK    5  A    between atoms: S_17  and  N_20
REMARK                            x       y       z     vdW  Elec       q    Type
REMARK                         _______ _______ _______ _____ _____    ______ ____
ROOT
ATOM      1  C   UNL     1       3.601   5.135  19.051  0.00  0.00    +0.000 A 
ATOM      2  N   UNL     1       3.386   4.203  20.020  0.00  0.00    +0.000 NA
ATOM      3  C   UNL     1       2.456   4.453  20.961  0.00  0.00    +0.000 A 
ATOM      4  C   UNL     1       1.752   5.635  21.053  0.00  0.00    +0.000 A 
ATOM      5  C   UNL     1       1.976   6.622  20.096  0.00  0.00    +0.000 A 
ATOM      6  C   UNL     1       1.316   7.861  20.212  0.00  0.00    +0.000 A 
ATOM      7  C   UNL     1       1.504   8.857  19.251  0.00  0.00    +0.000 A 
ATOM      8  C   UNL     1       2.324   8.625  18.155  0.00  0.00    +0.000 A 
ATOM      9  C   UNL     1       2.958   7.386  18.028  0.00  0.00    +0.000 A 
ATOM     10  C   UNL     1       2.871   6.370  19.025  0.00  0.00    +0.000 A 
ENDROOT
BRANCH   1  17
ATOM     11  C   UNL     1       4.467   4.040  16.888  0.00  0.00    +0.000 A 
ATOM     12  C   UNL     1       5.516   3.827  15.969  0.00  0.00    +0.000 A 
ATOM     13  C   UNL     1       6.799   4.301  16.219  0.00  0.00    +0.000 A 
ATOM     14  C   UNL     1       7.058   4.938  17.419  0.00  0.00    +0.000 A 
ATOM     15  C   UNL     1       6.028   5.121  18.342  0.00  0.00    +0.000 A 
ATOM     16  F   UNL     1       6.380   5.660  19.521  0.00  0.00    +0.000 F 
ATOM     17  C   UNL     1       4.686   4.769  18.084  0.00  0.00    +0.000 A 
BRANCH  11  19
ATOM     18  C   UNL     1       2.829   2.362  17.222  0.00  0.00    +0.000 C 
ATOM     19  O   UNL     1       3.197   3.594  16.597  0.00  0.00    +0.000 OA
ENDBRANCH  11  19
ENDBRANCH   1  17
BRANCH   7  20
ATOM     20  S   UNL     1       0.745  10.453  19.455  0.00  0.00    +0.000 S 
ATOM     21  O   UNL     1       1.348  11.366  18.506  0.00  0.00    +0.000 OA
ATOM     22  O   UNL     1      -0.687  10.245  19.483  0.00  0.00    +0.000 OA
BRANCH  20  23
ATOM     23  N   UNL     1       1.190  10.904  21.022  0.00  0.00    +0.000 N 
ATOM     24  C   UNL     1       0.171  11.491  21.793  0.00  0.00    +0.000 A 
ATOM     25  C   UNL     1      -0.800  10.744  22.415  0.00  0.00    +0.000 A 
ATOM     26  C   UNL     1      -1.732  11.476  23.114  0.00  0.00    +0.000 A 
ATOM     27  N   UNL     1      -1.731  12.821  23.158  0.00  0.00    +0.000 NA
ATOM     28  C   UNL     1      -0.740  13.433  22.490  0.00  0.00    +0.000 A 
ATOM     29  N   UNL     1       0.237  12.827  21.804  0.00  0.00    +0.000 NA
ATOM     30  H   UNL     1       2.003  11.509  20.985  0.00  0.00    +0.000 HD
ENDBRANCH  20  23
ENDBRANCH   7  20
TORSDOF 4
ENDMDL
MODEL 8
REMARK VINA RESULT:      -8.2      1.693      1.842
REMARK  Name = 
REMARK  5 active torsions:
REMARK  status: ('A' for Active; 'I' for Inactive)
REMARK    1  A    between atoms: C_1  and  O_2
REMARK    2  A    between atoms: O_2  and  C_3
REMARK    3  A    between atoms: C_9  and  C_10
REMARK    4  A    between atoms: C_16  and  S_17
REMARK    5  A    between atoms: S_17  and  N_20
REMARK                            x       y       z     vdW  Elec       q    Type
REMARK                         _______ _______ _______ _____ _____    ______ ____
ROOT
ATOM      1  C   UNL     1       3.757   4.837  18.911  0.00  0.00    +0.000 A 
ATOM      2  N   UNL     1       3.605   3.764  19.736  0.00  0.00    +0.000 NA
ATOM      3  C   UNL     1       2.699   3.835  20.728  0.00  0.00    +0.000 A 
ATOM      4  C   UNL     1       1.958   4.961  21.014  0.00  0.00    +0.000 A 
ATOM      5  C   UNL     1       2.116   6.087  20.210  0.00  0.00    +0.000 A 
ATOM      6  C   UNL     1       1.417   7.269  20.527  0.00  0.00    +0.000 A 
ATOM      7  C   UNL     1       1.539   8.403  19.721  0.00  0.00    +0.000 A 
ATOM      8  C   UNL     1       2.331   8.368  18.581  0.00  0.00    +0.000 A 
ATOM      9  C   UNL     1       3.003   7.188  18.254  0.00  0.00    +0.000 A 
ATOM     10  C   UNL     1       2.983   6.032  19.089  0.00  0.00    +0.000 A 
ENDROOT
BRANCH   1  17
ATOM     11  C   UNL     1       6.172   5.055  18.049  0.00  0.00    +0.000 A 
ATOM     12  C   UNL     1       7.146   4.758  17.071  0.00  0.00    +0.000 A 
ATOM     13  C   UNL     1       6.807   4.096  15.896  0.00  0.00    +0.000 A 
ATOM     14  C   UNL     1       5.481   3.780  15.661  0.00  0.00    +0.000 A 
ATOM     15  C   UNL     1       4.513   4.102  16.614  0.00  0.00    +0.000 A 
ATOM     16  F   UNL     1       3.239   3.850  16.269  0.00  0.00    +0.000 F 
ATOM     17  C   UNL     1       4.821   4.661  17.872  0.00  0.00    +0.000 A 
BRANCH  11  19
ATOM     18  C   UNL     1       7.950   5.805  19.422  0.00  0.00    +0.000 C 
ATOM     19  O   UNL     1       6.542   5.677  19.220  0.00  0.00    +0.000 OA
ENDBRANCH  11  19
ENDBRANCH   1  17
BRANCH   7  20
ATOM     20  S   UNL     1       0.733   9.920  20.181  0.00  0.00    +0.000 S 
ATOM     21  O   UNL     1      -0.683   9.780  19.912  0.00  0.00    +0.000 OA
ATOM     22  O   UNL     1       1.209  10.275  21.501  0.00  0.00    +0.000 OA
BRANCH  20  23
ATOM     23  N   UNL     1       1.392  11.056  19.117  0.00  0.00    +0.000 N 
ATOM     24  C   UNL     1       1.072  12.397  19.391  0.00  0.00    +0.000 A 
ATOM     25  C   UNL     1       1.715  13.120  20.367  0.00  0.00    +0.000 A 
ATOM     26  C   UNL     1       1.267  14.411  20.518  0.00  0.00    +0.000 A 
ATOM     27  N   UNL     1       0.251  14.928  19.804  0.00  0.00    +0.000 NA
ATOM     28  C   UNL     1      -0.308  14.111  18.896  0.00  0.00    +0.000 A 
ATOM     29  N   UNL     1       0.063  12.851  18.640  0.00  0.00    +0.000 NA
ATOM     30  H   UNL     1       1.141  10.816  18.164  0.00  0.00    +0.000 HD
ENDBRANCH  20  23
ENDBRANCH   7  20
TORSDOF 4
ENDMDL
MODEL 9
REMARK VINA RESULT:      -8.0      2.421      3.205
REMARK  Name = 
REMARK  5 active torsions:
REMARK  status: ('A' for Active; 'I' for Inactive)
REMARK    1  A    between atoms: C_1  and  O_2
REMARK    2  A    between atoms: O_2  and  C_3
REMARK    3  A    between atoms: C_9  and  C_10
REMARK    4  A    between atoms: C_16  and  S_17
REMARK    5  A    between atoms: S_17  and  N_20
REMARK                            x       y       z     vdW  Elec       q    Type
REMARK                         _______ _______ _______ _____ _____    ______ ____
ROOT
ATOM      1  C   UNL     1       3.568   5.349  19.071  0.00  0.00    +0.000 A 
ATOM      2  N   UNL     1       3.301   4.489  20.093  0.00  0.00    +0.000 NA
ATOM      3  C   UNL     1       2.354   4.823  20.989  0.00  0.00    +0.000 A 
ATOM      4  C   UNL     1       1.680   6.025  20.984  0.00  0.00    +0.000 A 
ATOM      5  C   UNL     1       1.956   6.942  19.971  0.00  0.00    +0.000 A 
ATOM      6  C   UNL     1       1.327   8.202  19.988  0.00  0.00    +0.000 A 
ATOM      7  C   UNL     1       1.567   9.128  18.970  0.00  0.00    +0.000 A 
ATOM      8  C   UNL     1       2.409   8.804  17.915  0.00  0.00    +0.000 A 
ATOM      9  C   UNL     1       3.013   7.544  17.887  0.00  0.00    +0.000 A 
ATOM     10  C   UNL     1       2.871   6.598  18.944  0.00  0.00    +0.000 A 
ENDROOT
BRANCH   1  17
ATOM     11  C   UNL     1       4.457   4.123  16.990  0.00  0.00    +0.000 A 
ATOM     12  C   UNL     1       5.526   3.824  16.120  0.00  0.00    +0.000 A 
ATOM     13  C   UNL     1       6.821   4.250  16.397  0.00  0.00    +0.000 A 
ATOM     14  C   UNL     1       7.066   4.927  17.578  0.00  0.00    +0.000 A 
ATOM     15  C   UNL     1       6.014   5.195  18.454  0.00  0.00    +0.000 A 
ATOM     16  F   UNL     1       6.350   5.769  19.622  0.00  0.00    +0.000 F 
ATOM     17  C   UNL     1       4.667   4.894  18.162  0.00  0.00    +0.000 A 
BRANCH  11  19
ATOM     18  C   UNL     1       2.756   2.502  17.283  0.00  0.00    +0.000 C 
ATOM     19  O   UNL     1       3.178   3.722  16.671  0.00  0.00    +0.000 OA
ENDBRANCH  11  19
ENDBRANCH   1  17
BRANCH   7  20
ATOM     20  S   UNL     1       0.846  10.752  19.048  0.00  0.00    +0.000 S 
ATOM     21  O   UNL     1       1.814  11.702  18.541  0.00  0.00    +0.000 OA
ATOM     22  O   UNL     1      -0.480  10.660  18.473  0.00  0.00    +0.000 OA
BRANCH  20  23
ATOM     23  N   UNL     1       0.629  11.008  20.705  0.00  0.00    +0.000 N 
ATOM     24  C   UNL     1       0.172  12.289  21.063  0.00  0.00    +0.000 A 
ATOM     25  C   UNL     1      -1.149  12.652  20.958  0.00  0.00    +0.000 A 
ATOM     26  C   UNL     1      -1.424  13.946  21.331  0.00  0.00    +0.000 A 
ATOM     27  N   UNL     1      -0.477  14.815  21.730  0.00  0.00    +0.000 NA
ATOM     28  C   UNL     1       0.779  14.343  21.769  0.00  0.00    +0.000 A 
ATOM     29  N   UNL     1       1.160  13.098  21.460  0.00  0.00    +0.000 NA
ATOM     30  H   UNL     1       1.485  10.783  21.200  0.00  0.00    +0.000 HD
ENDBRANCH  20  23
ENDBRANCH   7  20
TORSDOF 4
ENDMDL
