MODEL 1
REMARK VINA RESULT:      -8.1      0.000      0.000
REMARK  Name = 
REMARK  2 active torsions:
REMARK  status: ('A' for Active; 'I' for Inactive)
REMARK    1  A    between atoms: C_2  and  C_13
REMARK    2  A    between atoms: C_17  and  C_18
REMARK                            x       y       z     vdW  Elec       q    Type
REMARK                         _______ _______ _______ _____ _____    ______ ____
ROOT
ATOM      1  C   UNL     1       0.653  10.121  19.364  0.00  0.00    +0.000 A 
ATOM      2  S   UNL     1       1.051  10.786  20.868  0.00  0.00    +0.000 S 
ATOM      3  C   UNL     1      -0.362  11.658  21.026  0.00  0.00    +0.000 A 
ATOM      4  C   UNL     1      -0.725  12.478  22.082  0.00  0.00    +0.000 A 
ATOM      5  C   UNL     1      -1.978  13.118  22.041  0.00  0.00    +0.000 A 
ATOM      6  C   UNL     1      -2.822  12.914  20.920  0.00  0.00    +0.000 A 
ATOM      7  C   UNL     1      -2.421  12.085  19.858  0.00  0.00    +0.000 A 
ATOM      8  C   UNL     1      -1.177  11.453  19.927  0.00  0.00    +0.000 A 
ATOM      9  C   UNL     1      -0.613  10.591  18.975  0.00  0.00    +0.000 A 
ATOM     10 CL   UNL     1      -1.426  10.152  17.475  0.00  0.00    +0.000 Cl
ENDROOT
BRANCH   1  12
ATOM     11  O   UNL     1       1.981   9.580  17.525  0.00  0.00    +0.000 OA
ATOM     12  C   UNL     1       1.538   9.214  18.605  0.00  0.00    +0.000 C 
ATOM     13  N   UNL     1       1.859   7.983  19.100  0.00  0.00    +0.000 N 
ATOM     14  C   UNL     1       2.752   7.090  18.456  0.00  0.00    +0.000 A 
ATOM     15  N   UNL     1       3.529   7.438  17.399  0.00  0.00    +0.000 NA
ATOM     16  C   UNL     1       4.296   6.397  17.004  0.00  0.00    +0.000 A 
ATOM     17  C   UNL     1       5.208   6.453  15.952  0.00  0.00    +0.000 A 
ATOM     18  C   UNL     1       5.933   5.296  15.634  0.00  0.00    +0.000 A 
ATOM     19  C   UNL     1       5.742   4.107  16.364  0.00  0.00    +0.000 A 
ATOM     20  C   UNL     1       4.829   4.069  17.430  0.00  0.00    +0.000 A 
ATOM     21  C   UNL     1       4.124   5.229  17.732  0.00  0.00    +0.000 A 
ATOM     22  S   UNL     1       2.990   5.485  18.942  0.00  0.00    +0.000 S 
ATOM     23  H   UNL     1       1.440   7.663  19.984  0.00  0.00    +0.000 HD
ENDBRANCH   1  12
BRANCH   5  24
ATOM     24  C   UNL     1      -2.414  13.978  23.170  0.00  0.00    +0.000 C 
ATOM     25  N   UNL     1      -3.628  14.339  23.339  0.00  0.00    +0.000 NA
ATOM     26  C   UNL     1      -3.760  15.142  24.533  0.00  0.00    +0.000 C 
ATOM     27  C   UNL     1      -2.349  15.170  25.143  0.00  0.00    +0.000 C 
ATOM     28  N   UNL     1      -1.564  14.452  24.184  0.00  0.00    +0.000 N 
ATOM     29  H   UNL     1      -0.553  14.282  24.273  0.00  0.00    +0.000 HD
ENDBRANCH   5  24
TORSDOF 2
ENDMDL
MODEL 2
REMARK VINA RESULT:      -8.0      2.599     10.697
REMARK  Name = 
REMARK  2 active torsions:
REMARK  status: ('A' for Active; 'I' for Inactive)
REMARK    1  A    between atoms: C_2  and  C_13
REMARK    2  A    between atoms: C_17  and  C_18
REMARK                            x       y       z     vdW  Elec       q    Type
REMARK                         _______ _______ _______ _____ _____    ______ ____
ROOT
ATOM      1  C   UNL     1       2.064   7.956  19.164  0.00  0.00    +0.000 A 
ATOM      2  S   UNL     1       2.835   8.448  17.740  0.00  0.00    +0.000 S 
ATOM      3  C   UNL     1       3.608   6.994  17.477  0.00  0.00    +0.000 A 
ATOM      4  C   UNL     1       4.454   6.675  16.428  0.00  0.00    +0.000 A 
ATOM      5  C   UNL     1       4.999   5.378  16.368  0.00  0.00    +0.000 A 
ATOM      6  C   UNL     1       4.675   4.445  17.385  0.00  0.00    +0.000 A 
ATOM      7  C   UNL     1       3.822   4.802  18.445  0.00  0.00    +0.000 A 
ATOM      8  C   UNL     1       3.287   6.092  18.476  0.00  0.00    +0.000 A 
ATOM      9  C   UNL     1       2.419   6.625  19.441  0.00  0.00    +0.000 A 
ATOM     10 CL   UNL     1       1.843   5.703  20.828  0.00  0.00    +0.000 Cl
ENDROOT
BRANCH   1  12
ATOM     11  O   UNL     1       1.204   8.733  21.188  0.00  0.00    +0.000 OA
ATOM     12  C   UNL     1       1.185   8.829  19.968  0.00  0.00    +0.000 C 
ATOM     13  N   UNL     1       0.360   9.732  19.361  0.00  0.00    +0.000 N 
ATOM     14  C   UNL     1      -0.460  10.643  20.074  0.00  0.00    +0.000 A 
ATOM     15  N   UNL     1      -0.364  10.852  21.411  0.00  0.00    +0.000 NA
ATOM     16  C   UNL     1      -1.251  11.788  21.816  0.00  0.00    +0.000 A 
ATOM     17  C   UNL     1      -1.380  12.226  23.131  0.00  0.00    +0.000 A 
ATOM     18  C   UNL     1      -2.351  13.195  23.422  0.00  0.00    +0.000 A 
ATOM     19  C   UNL     1      -3.175  13.712  22.403  0.00  0.00    +0.000 A 
ATOM     20  C   UNL     1      -3.026  13.270  21.078  0.00  0.00    +0.000 A 
ATOM     21  C   UNL     1      -2.053  12.312  20.812  0.00  0.00    +0.000 A 
ATOM     22  S   UNL     1      -1.641  11.612  19.344  0.00  0.00    +0.000 S 
ATOM     23  H   UNL     1       0.312   9.769  18.334  0.00  0.00    +0.000 HD
ENDBRANCH   1  12
BRANCH   5  24
ATOM     24  C   UNL     1       5.883   4.991  15.240  0.00  0.00    +0.000 C 
ATOM     25  N   UNL     1       5.536   4.148  14.343  0.00  0.00    +0.000 NA
ATOM     26  C   UNL     1       6.581   3.993  13.358  0.00  0.00    +0.000 C 
ATOM     27  C   UNL     1       7.675   4.984  13.789  0.00  0.00    +0.000 C 
ATOM     28  N   UNL     1       7.162   5.526  15.012  0.00  0.00    +0.000 N 
ATOM     29  H   UNL     1       7.650   6.228  15.584  0.00  0.00    +0.000 HD
ENDBRANCH   5  24
TORSDOF 2
ENDMDL
MODEL 3
REMARK VINA RESULT:      -8.0      1.631      1.912
REMARK  Name = 
REMARK  2 active torsions:
REMARK  status: ('A' for Active; 'I' for Inactive)
REMARK    1  A    between atoms: C_2  and  C_13
REMARK    2  A    between atoms: C_17  and  C_18
REMARK                            x       y       z     vdW  Elec       q    Type
REMARK                         _______ _______ _______ _____ _____    ______ ____
ROOT
ATOM      1  C   UNL     1       0.657   9.878  19.548  0.00  0.00    +0.000 A 
ATOM      2  S   UNL     1      -0.435  10.993  18.896  0.00  0.00    +0.000 S 
ATOM      3  C   UNL     1      -1.053  11.477  20.368  0.00  0.00    +0.000 A 
ATOM      4  C   UNL     1      -2.041  12.422  20.590  0.00  0.00    +0.000 A 
ATOM      5  C   UNL     1      -2.417  12.710  21.917  0.00  0.00    +0.000 A 
ATOM      6  C   UNL     1      -1.782  12.018  22.979  0.00  0.00    +0.000 A 
ATOM      7  C   UNL     1      -0.790  11.055  22.722  0.00  0.00    +0.000 A 
ATOM      8  C   UNL     1      -0.429  10.795  21.398  0.00  0.00    +0.000 A 
ATOM      9  C   UNL     1       0.537   9.882  20.948  0.00  0.00    +0.000 A 
ATOM     10 CL   UNL     1       1.487   8.876  22.038  0.00  0.00    +0.000 Cl
ENDROOT
BRANCH   1  12
ATOM     11  O   UNL     1       1.997   9.478  17.681  0.00  0.00    +0.000 OA
ATOM     12  C   UNL     1       1.559   9.037  18.735  0.00  0.00    +0.000 C 
ATOM     13  N   UNL     1       1.901   7.782  19.152  0.00  0.00    +0.000 N 
ATOM     14  C   UNL     1       2.811   6.948  18.454  0.00  0.00    +0.000 A 
ATOM     15  N   UNL     1       3.583   7.376  17.424  0.00  0.00    +0.000 NA
ATOM     16  C   UNL     1       4.369   6.377  16.965  0.00  0.00    +0.000 A 
ATOM     17  C   UNL     1       5.281   6.515  15.921  0.00  0.00    +0.000 A 
ATOM     18  C   UNL     1       6.027   5.394  15.532  0.00  0.00    +0.000 A 
ATOM     19  C   UNL     1       5.856   4.157  16.185  0.00  0.00    +0.000 A 
ATOM     20  C   UNL     1       4.942   4.035  17.244  0.00  0.00    +0.000 A 
ATOM     21  C   UNL     1       4.217   5.162  17.617  0.00  0.00    +0.000 A 
ATOM     22  S   UNL     1       3.076   5.320  18.838  0.00  0.00    +0.000 S 
ATOM     23  H   UNL     1       1.487   7.400  20.013  0.00  0.00    +0.000 HD
ENDBRANCH   1  12
BRANCH   5  24
ATOM     24  C   UNL     1      -3.448  13.739  22.193  0.00  0.00    +0.000 C 
ATOM     25  N   UNL     1      -4.666  13.450  22.454  0.00  0.00    +0.000 NA
ATOM     26  C   UNL     1      -5.431  14.648  22.712  0.00  0.00    +0.000 C 
ATOM     27  C   UNL     1      -4.409  15.793  22.620  0.00  0.00    +0.000 C 
ATOM     28  N   UNL     1      -3.202  15.122  22.239  0.00  0.00    +0.000 N 
ATOM     29  H   UNL     1      -2.302  15.596  22.080  0.00  0.00    +0.000 HD
ENDBRANCH   5  24
TORSDOF 2
ENDMDL
MODEL 4
REMARK VINA RESULT:      -7.9      2.345     10.515
REMARK  Name = 
REMARK  2 active torsions:
REMARK  status: ('A' for Active; 'I' for Inactive)
REMARK    1  A    between atoms: C_2  and  C_13
REMARK    2  A    between atoms: C_17  and  C_18
REMARK                            x       y       z     vdW  Elec       q    Type
REMARK                         _______ _______ _______ _____ _____    ______ ____
ROOT
ATOM      1  C   UNL     1       0.104  10.348  21.087  0.00  0.00    +0.000 A 
ATOM      2  S   UNL     1       0.670   8.884  21.718  0.00  0.00    +0.000 S 
ATOM      3  C   UNL     1       1.417   8.392  20.310  0.00  0.00    +0.000 A 
ATOM      4  C   UNL     1       2.118   7.216  20.103  0.00  0.00    +0.000 A 
ATOM      5  C   UNL     1       2.698   6.987  18.840  0.00  0.00    +0.000 A 
ATOM      6  C   UNL     1       2.537   7.959  17.820  0.00  0.00    +0.000 A 
ATOM      7  C   UNL     1       1.810   9.139  18.057  0.00  0.00    +0.000 A 
ATOM      8  C   UNL     1       1.253   9.346  19.322  0.00  0.00    +0.000 A 
ATOM      9  C   UNL     1       0.507  10.456  19.745  0.00  0.00    +0.000 A 
ATOM     10 CL   UNL     1       0.140  11.823  18.697  0.00  0.00    +0.000 Cl
ENDROOT
BRANCH   1  12
ATOM     11  O   UNL     1      -0.389  11.572  23.010  0.00  0.00    +0.000 OA
ATOM     12  C   UNL     1      -0.703  11.318  21.855  0.00  0.00    +0.000 C 
ATOM     13  N   UNL     1      -1.785  11.925  21.286  0.00  0.00    +0.000 N 
ATOM     14  C   UNL     1      -2.563  12.912  21.942  0.00  0.00    +0.000 A 
ATOM     15  N   UNL     1      -2.201  13.498  23.112  0.00  0.00    +0.000 NA
ATOM     16  C   UNL     1      -3.117  14.415  23.493  0.00  0.00    +0.000 A 
ATOM     17  C   UNL     1      -3.015  15.191  24.645  0.00  0.00    +0.000 A 
ATOM     18  C   UNL     1      -4.043  16.098  24.935  0.00  0.00    +0.000 A 
ATOM     19  C   UNL     1      -5.154  16.221  24.076  0.00  0.00    +0.000 A 
ATOM     20  C   UNL     1      -5.238  15.441  22.911  0.00  0.00    +0.000 A 
ATOM     21  C   UNL     1      -4.204  14.551  22.642  0.00  0.00    +0.000 A 
ATOM     22  S   UNL     1      -4.026  13.511  21.337  0.00  0.00    +0.000 S 
ATOM     23  H   UNL     1      -2.072  11.666  20.332  0.00  0.00    +0.000 HD
ENDBRANCH   1  12
BRANCH   5  24
ATOM     24  C   UNL     1       3.484   5.753  18.591  0.00  0.00    +0.000 C 
ATOM     25  N   UNL     1       4.417   5.355  19.369  0.00  0.00    +0.000 NA
ATOM     26  C   UNL     1       4.982   4.113  18.896  0.00  0.00    +0.000 C 
ATOM     27  C   UNL     1       4.151   3.755  17.652  0.00  0.00    +0.000 C 
ATOM     28  N   UNL     1       3.269   4.875  17.515  0.00  0.00    +0.000 N 
ATOM     29  H   UNL     1       2.567   4.972  16.768  0.00  0.00    +0.000 HD
ENDBRANCH   5  24
TORSDOF 2
ENDMDL
MODEL 5
REMARK VINA RESULT:      -7.7      1.378      1.601
REMARK  Name = 
REMARK  2 active torsions:
REMARK  status: ('A' for Active; 'I' for Inactive)
REMARK    1  A    between atoms: C_2  and  C_13
REMARK    2  A    between atoms: C_17  and  C_18
REMARK                            x       y       z     vdW  Elec       q    Type
REMARK                         _______ _______ _______ _____ _____    ______ ____
ROOT
ATOM      1  C   UNL     1       1.151   9.869  19.427  0.00  0.00    +0.000 A 
ATOM      2  S   UNL     1       0.090   9.336  20.633  0.00  0.00    +0.000 S 
ATOM      3  C   UNL     1      -0.360  10.865  21.123  0.00  0.00    +0.000 A 
ATOM      4  C   UNL     1      -1.255  11.191  22.129  0.00  0.00    +0.000 A 
ATOM      5  C   UNL     1      -1.522  12.550  22.384  0.00  0.00    +0.000 A 
ATOM      6  C   UNL     1      -0.861  13.539  21.613  0.00  0.00    +0.000 A 
ATOM      7  C   UNL     1       0.050  13.178  20.605  0.00  0.00    +0.000 A 
ATOM      8  C   UNL     1       0.291  11.823  20.366  0.00  0.00    +0.000 A 
ATOM      9  C   UNL     1       1.154  11.274  19.406  0.00  0.00    +0.000 A 
ATOM     10 CL   UNL     1       2.113  12.257  18.303  0.00  0.00    +0.000 Cl
ENDROOT
BRANCH   1  12
ATOM     11  O   UNL     1       2.276   9.338  17.454  0.00  0.00    +0.000 OA
ATOM     12  C   UNL     1       1.945   8.964  18.571  0.00  0.00    +0.000 C 
ATOM     13  N   UNL     1       2.307   7.726  19.018  0.00  0.00    +0.000 N 
ATOM     14  C   UNL     1       3.122   6.835  18.275  0.00  0.00    +0.000 A 
ATOM     15  N   UNL     1       3.788   7.189  17.147  0.00  0.00    +0.000 NA
ATOM     16  C   UNL     1       4.503   6.148  16.664  0.00  0.00    +0.000 A 
ATOM     17  C   UNL     1       5.300   6.210  15.523  0.00  0.00    +0.000 A 
ATOM     18  C   UNL     1       5.980   5.052  15.120  0.00  0.00    +0.000 A 
ATOM     19  C   UNL     1       5.858   3.856  15.855  0.00  0.00    +0.000 A 
ATOM     20  C   UNL     1       5.060   3.812  17.010  0.00  0.00    +0.000 A 
ATOM     21  C   UNL     1       4.399   4.974  17.394  0.00  0.00    +0.000 A 
ATOM     22  S   UNL     1       3.399   5.224  18.718  0.00  0.00    +0.000 S 
ATOM     23  H   UNL     1       1.981   7.400  19.937  0.00  0.00    +0.000 HD
ENDBRANCH   1  12
BRANCH   5  24
ATOM     24  C   UNL     1      -2.499  12.935  23.433  0.00  0.00    +0.000 C 
ATOM     25  N   UNL     1      -2.481  14.073  24.014  0.00  0.00    +0.000 NA
ATOM     26  C   UNL     1      -3.566  14.178  24.963  0.00  0.00    +0.000 C 
ATOM     27  C   UNL     1      -4.339  12.857  24.821  0.00  0.00    +0.000 C 
ATOM     28  N   UNL     1      -3.559  12.122  23.871  0.00  0.00    +0.000 N 
ATOM     29  H   UNL     1      -3.788  11.174  23.542  0.00  0.00    +0.000 HD
ENDBRANCH   5  24
TORSDOF 2
ENDMDL
MODEL 6
REMARK VINA RESULT:      -7.6      4.002      9.846
REMARK  Name = 
REMARK  2 active torsions:
REMARK  status: ('A' for Active; 'I' for Inactive)
REMARK    1  A    between atoms: C_2  and  C_13
REMARK    2  A    between atoms: C_17  and  C_18
REMARK                            x       y       z     vdW  Elec       q    Type
REMARK                         _______ _______ _______ _____ _____    ______ ____
ROOT
ATOM      1  C   UNL     1       1.325   9.843  19.070  0.00  0.00    +0.000 A 
ATOM      2  S   UNL     1       2.105   8.890  17.909  0.00  0.00    +0.000 S 
ATOM      3  C   UNL     1       2.136   7.510  18.845  0.00  0.00    +0.000 A 
ATOM      4  C   UNL     1       2.660   6.276  18.496  0.00  0.00    +0.000 A 
ATOM      5  C   UNL     1       2.574   5.218  19.422  0.00  0.00    +0.000 A 
ATOM      6  C   UNL     1       1.966   5.451  20.682  0.00  0.00    +0.000 A 
ATOM      7  C   UNL     1       1.453   6.718  21.011  0.00  0.00    +0.000 A 
ATOM      8  C   UNL     1       1.542   7.748  20.072  0.00  0.00    +0.000 A 
ATOM      9  C   UNL     1       1.084   9.066  20.215  0.00  0.00    +0.000 A 
ATOM     10 CL   UNL     1       0.288   9.652  21.674  0.00  0.00    +0.000 Cl
ENDROOT
BRANCH   1  12
ATOM     11  O   UNL     1      -0.179  11.593  18.733  0.00  0.00    +0.000 OA
ATOM     12  C   UNL     1       0.992  11.269  18.876  0.00  0.00    +0.000 C 
ATOM     13  N   UNL     1       1.976  12.215  18.856  0.00  0.00    +0.000 N 
ATOM     14  C   UNL     1       1.722  13.605  18.739  0.00  0.00    +0.000 A 
ATOM     15  N   UNL     1       0.484  14.153  18.837  0.00  0.00    +0.000 NA
ATOM     16  C   UNL     1       0.542  15.497  18.710  0.00  0.00    +0.000 A 
ATOM     17  C   UNL     1      -0.566  16.338  18.780  0.00  0.00    +0.000 A 
ATOM     18  C   UNL     1      -0.372  17.716  18.617  0.00  0.00    +0.000 A 
ATOM     19  C   UNL     1       0.918  18.236  18.387  0.00  0.00    +0.000 A 
ATOM     20  C   UNL     1       2.028  17.378  18.331  0.00  0.00    +0.000 A 
ATOM     21  C   UNL     1       1.812  16.015  18.501  0.00  0.00    +0.000 A 
ATOM     22  S   UNL     1       2.932  14.765  18.496  0.00  0.00    +0.000 S 
ATOM     23  H   UNL     1       2.962  11.928  18.925  0.00  0.00    +0.000 HD
ENDBRANCH   1  12
BRANCH   5  24
ATOM     24  C   UNL     1       3.096   3.874  19.070  0.00  0.00    +0.000 C 
ATOM     25  N   UNL     1       3.875   3.210  19.836  0.00  0.00    +0.000 NA
ATOM     26  C   UNL     1       4.194   1.928  19.251  0.00  0.00    +0.000 C 
ATOM     27  C   UNL     1       3.385   1.883  17.943  0.00  0.00    +0.000 C 
ATOM     28  N   UNL     1       2.768   3.175  17.896  0.00  0.00    +0.000 N 
ATOM     29  H   UNL     1       2.150   3.494  17.138  0.00  0.00    +0.000 HD
ENDBRANCH   5  24
TORSDOF 2
ENDMDL
MODEL 7
REMARK VINA RESULT:      -7.5      1.522      1.614
REMARK  Name = 
REMARK  2 active torsions:
REMARK  status: ('A' for Active; 'I' for Inactive)
REMARK    1  A    between atoms: C_2  and  C_13
REMARK    2  A    between atoms: C_17  and  C_18
REMARK                            x       y       z     vdW  Elec       q    Type
REMARK                         _______ _______ _______ _____ _____    ______ ____
ROOT
ATOM      1  C   UNL     1       0.926  10.243  20.208  0.00  0.00    +0.000 A 
ATOM      2  S   UNL     1       1.036  11.931  20.173  0.00  0.00    +0.000 S 
ATOM      3  C   UNL     1      -0.044  12.177  21.420  0.00  0.00    +0.000 A 
ATOM      4  C   UNL     1      -0.448  13.392  21.949  0.00  0.00    +0.000 A 
ATOM      5  C   UNL     1      -1.360  13.394  23.022  0.00  0.00    +0.000 A 
ATOM      6  C   UNL     1      -1.843  12.157  23.519  0.00  0.00    +0.000 A 
ATOM      7  C   UNL     1      -1.423  10.940  22.955  0.00  0.00    +0.000 A 
ATOM      8  C   UNL     1      -0.511  10.965  21.897  0.00  0.00    +0.000 A 
ATOM      9  C   UNL     1       0.025   9.862  21.216  0.00  0.00    +0.000 A 
ATOM     10 CL   UNL     1      -0.392   8.196  21.609  0.00  0.00    +0.000 Cl
ENDROOT
BRANCH   1  12
ATOM     11  O   UNL     1       2.049   9.791  18.214  0.00  0.00    +0.000 OA
ATOM     12  C   UNL     1       1.662   9.351  19.288  0.00  0.00    +0.000 C 
ATOM     13  N   UNL     1       1.907   8.052  19.629  0.00  0.00    +0.000 N 
ATOM     14  C   UNL     1       2.661   7.162  18.824  0.00  0.00    +0.000 A 
ATOM     15  N   UNL     1       3.381   7.554  17.742  0.00  0.00    +0.000 NA
ATOM     16  C   UNL     1       4.016   6.501  17.180  0.00  0.00    +0.000 A 
ATOM     17  C   UNL     1       4.843   6.592  16.063  0.00  0.00    +0.000 A 
ATOM     18  C   UNL     1       5.432   5.420  15.570  0.00  0.00    +0.000 A 
ATOM     19  C   UNL     1       5.192   4.179  16.194  0.00  0.00    +0.000 A 
ATOM     20  C   UNL     1       4.366   4.104  17.327  0.00  0.00    +0.000 A 
ATOM     21  C   UNL     1       3.797   5.281  17.802  0.00  0.00    +0.000 A 
ATOM     22  S   UNL     1       2.790   5.500  19.127  0.00  0.00    +0.000 S 
ATOM     23  H   UNL     1       1.532   7.676  20.511  0.00  0.00    +0.000 HD
ENDBRANCH   1  12
BRANCH   5  24
ATOM     24  C   UNL     1      -1.789  14.676  23.634  0.00  0.00    +0.000 C 
ATOM     25  N   UNL     1      -2.633  15.461  23.081  0.00  0.00    +0.000 NA
ATOM     26  C   UNL     1      -2.883  16.612  23.917  0.00  0.00    +0.000 C 
ATOM     27  C   UNL     1      -2.048  16.364  25.184  0.00  0.00    +0.000 C 
ATOM     28  N   UNL     1      -1.357  15.145  24.886  0.00  0.00    +0.000 N 
ATOM     29  H   UNL     1      -0.694  14.683  25.525  0.00  0.00    +0.000 HD
ENDBRANCH   5  24
TORSDOF 2
ENDMDL
MODEL 8
REMARK VINA RESULT:      -7.5      3.554      4.315
REMARK  Name = 
REMARK  2 active torsions:
REMARK  status: ('A' for Active; 'I' for Inactive)
REMARK    1  A    between atoms: C_2  and  C_13
REMARK    2  A    between atoms: C_17  and  C_18
REMARK                            x       y       z     vdW  Elec       q    Type
REMARK                         _______ _______ _______ _____ _____    ______ ____
ROOT
ATOM      1  C   UNL     1       0.682  10.430  20.503  0.00  0.00    +0.000 A 
ATOM      2  S   UNL     1       1.070  11.372  19.152  0.00  0.00    +0.000 S 
ATOM      3  C   UNL     1       0.248  12.727  19.672  0.00  0.00    +0.000 A 
ATOM      4  C   UNL     1       0.140  13.942  19.017  0.00  0.00    +0.000 A 
ATOM      5  C   UNL     1      -0.586  14.981  19.631  0.00  0.00    +0.000 A 
ATOM      6  C   UNL     1      -1.192  14.747  20.891  0.00  0.00    +0.000 A 
ATOM      7  C   UNL     1      -1.075  13.498  21.528  0.00  0.00    +0.000 A 
ATOM      8  C   UNL     1      -0.341  12.488  20.901  0.00  0.00    +0.000 A 
ATOM      9  C   UNL     1      -0.108  11.191  21.381  0.00  0.00    +0.000 A 
ATOM     10 CL   UNL     1      -0.738  10.608  22.920  0.00  0.00    +0.000 Cl
ENDROOT
BRANCH   1  12
ATOM     11  O   UNL     1       0.819   8.440  21.711  0.00  0.00    +0.000 OA
ATOM     12  C   UNL     1       1.109   9.027  20.678  0.00  0.00    +0.000 C 
ATOM     13  N   UNL     1       1.819   8.390  19.700  0.00  0.00    +0.000 N 
ATOM     14  C   UNL     1       2.203   7.028  19.775  0.00  0.00    +0.000 A 
ATOM     15  N   UNL     1       1.740   6.168  20.717  0.00  0.00    +0.000 NA
ATOM     16  C   UNL     1       2.255   4.931  20.534  0.00  0.00    +0.000 A 
ATOM     17  C   UNL     1       1.955   3.833  21.335  0.00  0.00    +0.000 A 
ATOM     18  C   UNL     1       2.570   2.606  21.047  0.00  0.00    +0.000 A 
ATOM     19  C   UNL     1       3.470   2.492  19.969  0.00  0.00    +0.000 A 
ATOM     20  C   UNL     1       3.754   3.605  19.161  0.00  0.00    +0.000 A 
ATOM     21  C   UNL     1       3.129   4.810  19.463  0.00  0.00    +0.000 A 
ATOM     22  S   UNL     1       3.262   6.288  18.680  0.00  0.00    +0.000 S 
ATOM     23  H   UNL     1       2.104   8.907  18.857  0.00  0.00    +0.000 HD
ENDBRANCH   1  12
BRANCH   5  24
ATOM     24  C   UNL     1      -0.695  16.306  18.973  0.00  0.00    +0.000 C 
ATOM     25  N   UNL     1       0.231  16.797  18.242  0.00  0.00    +0.000 NA
ATOM     26  C   UNL     1      -0.164  18.081  17.710  0.00  0.00    +0.000 C 
ATOM     27  C   UNL     1      -1.601  18.288  18.217  0.00  0.00    +0.000 C 
ATOM     28  N   UNL     1      -1.825  17.140  19.044  0.00  0.00    +0.000 N 
ATOM     29  H   UNL     1      -2.698  16.956  19.556  0.00  0.00    +0.000 HD
ENDBRANCH   5  24
TORSDOF 2
ENDMDL
MODEL 9
REMARK VINA RESULT:      -7.5      2.547      3.365
REMARK  Name = 
REMARK  2 active torsions:
REMARK  status: ('A' for Active; 'I' for Inactive)
REMARK    1  A    between atoms: C_2  and  C_13
REMARK    2  A    between atoms: C_17  and  C_18
REMARK                            x       y       z     vdW  Elec       q    Type
REMARK                         _______ _______ _______ _____ _____    ______ ____
ROOT
ATOM      1  C   UNL     1       0.083  10.017  18.386  0.00  0.00    +0.000 A 
ATOM      2  S   UNL     1      -1.343  10.032  17.477  0.00  0.00    +0.000 S 
ATOM      3  C   UNL     1      -2.180  11.023  18.526  0.00  0.00    +0.000 A 
ATOM      4  C   UNL     1      -3.483  11.471  18.392  0.00  0.00    +0.000 A 
ATOM      5  C   UNL     1      -4.011  12.325  19.380  0.00  0.00    +0.000 A 
ATOM      6  C   UNL     1      -3.198  12.689  20.483  0.00  0.00    +0.000 A 
ATOM      7  C   UNL     1      -1.881  12.209  20.597  0.00  0.00    +0.000 A 
ATOM      8  C   UNL     1      -1.379  11.371  19.599  0.00  0.00    +0.000 A 
ATOM      9  C   UNL     1      -0.097  10.804  19.536  0.00  0.00    +0.000 A 
ATOM     10 CL   UNL     1       1.133  11.074  20.768  0.00  0.00    +0.000 Cl
ENDROOT
BRANCH   1  12
ATOM     11  O   UNL     1       2.199   9.842  17.420  0.00  0.00    +0.000 OA
ATOM     12  C   UNL     1       1.295   9.262  18.006  0.00  0.00    +0.000 C 
ATOM     13  N   UNL     1       1.407   7.934  18.303  0.00  0.00    +0.000 N 
ATOM     14  C   UNL     1       2.566   7.167  18.025  0.00  0.00    +0.000 A 
ATOM     15  N   UNL     1       3.746   7.706  17.626  0.00  0.00    +0.000 NA
ATOM     16  C   UNL     1       4.680   6.744  17.456  0.00  0.00    +0.000 A 
ATOM     17  C   UNL     1       5.994   6.991  17.064  0.00  0.00    +0.000 A 
ATOM     18  C   UNL     1       6.862   5.901  16.911  0.00  0.00    +0.000 A 
ATOM     19  C   UNL     1       6.412   4.587  17.150  0.00  0.00    +0.000 A 
ATOM     20  C   UNL     1       5.088   4.354  17.557  0.00  0.00    +0.000 A 
ATOM     21  C   UNL     1       4.246   5.451  17.707  0.00  0.00    +0.000 A 
ATOM     22  S   UNL     1       2.639   5.483  18.187  0.00  0.00    +0.000 S 
ATOM     23  H   UNL     1       0.620   7.443  18.748  0.00  0.00    +0.000 HD
ENDBRANCH   1  12
BRANCH   5  24
ATOM     24  C   UNL     1      -5.393  12.850  19.252  0.00  0.00    +0.000 C 
ATOM     25  N   UNL     1      -6.169  13.014  20.255  0.00  0.00    +0.000 NA
ATOM     26  C   UNL     1      -7.436  13.567  19.835  0.00  0.00    +0.000 C 
ATOM     27  C   UNL     1      -7.284  13.787  18.320  0.00  0.00    +0.000 C 
ATOM     28  N   UNL     1      -5.982  13.257  18.043  0.00  0.00    +0.000 N 
ATOM     29  H   UNL     1      -5.553  13.235  17.108  0.00  0.00    +0.000 HD
ENDBRANCH   5  24
TORSDOF 2
ENDMDL
