MODEL 1
REMARK VINA RESULT:      -9.0      0.000      0.000
REMARK  Name = 
REMARK  6 active torsions:
REMARK  status: ('A' for Active; 'I' for Inactive)
REMARK    1  A    between atoms: C_1  and  O_2
REMARK    2  A    between atoms: O_2  and  C_3
REMARK    3  A    between atoms: C_4  and  C_5
REMARK    4  A    between atoms: C_11  and  C_12
REMARK    5  A    between atoms: C_20  and  C_21
REMARK    6  A    between atoms: C_27  and  C_28
REMARK                            x       y       z     vdW  Elec       q    Type
REMARK                         _______ _______ _______ _____ _____    ______ ____
ROOT
ATOM      1  C   UNL     1       2.427   6.359  20.105  0.00  0.00    +0.000 A 
ATOM      2  N   UNL     1       3.642   6.141  19.497  0.00  0.00    +0.000 NA
ATOM      3  C   UNL     1       3.802   4.836  19.582  0.00  0.00    +0.000 A 
ATOM      4  N   UNL     1       2.741   4.307  20.253  0.00  0.00    +0.000 N 
ATOM      5  N   UNL     1       1.859   5.256  20.618  0.00  0.00    +0.000 NA
ATOM      6  C   UNL     1       2.508   2.884  20.398  0.00  0.00    +0.000 C 
ATOM      7  C   UNL     1       3.813   2.127  20.175  0.00  0.00    +0.000 C 
ATOM      8  O   UNL     1       4.449   2.601  18.985  0.00  0.00    +0.000 OA
ATOM      9  C   UNL     1       4.914   3.968  19.099  0.00  0.00    +0.000 C 
ENDROOT
BRANCH   1  16
ATOM     10  C   UNL     1       0.261  10.887  21.221  0.00  0.00    +0.000 A 
ATOM     11  C   UNL     1      -0.119  11.937  20.346  0.00  0.00    +0.000 A 
ATOM     12  C   UNL     1       0.052  11.811  18.960  0.00  0.00    +0.000 A 
ATOM     13  C   UNL     1       0.649  10.688  18.392  0.00  0.00    +0.000 A 
ATOM     14  C   UNL     1       1.059   9.673  19.256  0.00  0.00    +0.000 A 
ATOM     15  N   UNL     1       1.698   8.481  18.974  0.00  0.00    +0.000 N 
ATOM     16  C   UNL     1       1.849   7.732  20.111  0.00  0.00    +0.000 A 
ATOM     17  C   UNL     1       1.358   8.477  21.160  0.00  0.00    +0.000 A 
ATOM     18  C   UNL     1       0.866   9.728  20.640  0.00  0.00    +0.000 A 
ATOM     19  H   UNL     1       1.996   8.175  18.056  0.00  0.00    +0.000 HD
BRANCH  10  21
ATOM     20  C   UNL     1      -1.068  10.478  23.185  0.00  0.00    +0.000 C 
ATOM     21  O   UNL     1       0.160  10.883  22.590  0.00  0.00    +0.000 OA
ENDBRANCH  10  21
BRANCH  11  22
ATOM     22  C   UNL     1      -0.661  13.201  20.773  0.00  0.00    +0.000 C 
ATOM     23  N   UNL     1      -1.121  14.214  21.089  0.00  0.00    +0.000 NA
ENDBRANCH  11  22
ENDBRANCH   1  16
BRANCH   9  24
ATOM     24  C   UNL     1       5.453   4.405  17.748  0.00  0.00    +0.000 A 
ATOM     25  C   UNL     1       4.734   4.063  16.580  0.00  0.00    +0.000 A 
ATOM     26  C   UNL     1       5.231   4.364  15.316  0.00  0.00    +0.000 A 
ATOM     27  C   UNL     1       6.441   5.030  15.209  0.00  0.00    +0.000 A 
ATOM     28  F   UNL     1       6.949   5.281  13.995  0.00  0.00    +0.000 F 
ATOM     29  C   UNL     1       7.141   5.436  16.339  0.00  0.00    +0.000 A 
ATOM     30  C   UNL     1       6.653   5.145  17.623  0.00  0.00    +0.000 A 
ATOM     31  C   UNL     1       7.427   5.631  18.819  0.00  0.00    +0.000 C 
ENDBRANCH   9  24
TORSDOF 4
ENDMDL
MODEL 2
REMARK VINA RESULT:      -8.4      1.194      1.859
REMARK  Name = 
REMARK  6 active torsions:
REMARK  status: ('A' for Active; 'I' for Inactive)
REMARK    1  A    between atoms: C_1  and  O_2
REMARK    2  A    between atoms: O_2  and  C_3
REMARK    3  A    between atoms: C_4  and  C_5
REMARK    4  A    between atoms: C_11  and  C_12
REMARK    5  A    between atoms: C_20  and  C_21
REMARK    6  A    between atoms: C_27  and  C_28
REMARK                            x       y       z     vdW  Elec       q    Type
REMARK                         _______ _______ _______ _____ _____    ______ ____
ROOT
ATOM      1  C   UNL     1       2.301   6.236  20.220  0.00  0.00    +0.000 A 
ATOM      2  N   UNL     1       3.520   6.068  19.604  0.00  0.00    +0.000 NA
ATOM      3  C   UNL     1       3.726   4.768  19.673  0.00  0.00    +0.000 A 
ATOM      4  N   UNL     1       2.687   4.195  20.343  0.00  0.00    +0.000 N 
ATOM      5  N   UNL     1       1.774   5.109  20.722  0.00  0.00    +0.000 NA
ATOM      6  C   UNL     1       2.504   2.763  20.472  0.00  0.00    +0.000 C 
ATOM      7  C   UNL     1       3.834   2.055  20.234  0.00  0.00    +0.000 C 
ATOM      8  O   UNL     1       4.448   2.565  19.048  0.00  0.00    +0.000 OA
ATOM      9  C   UNL     1       4.865   3.946  19.176  0.00  0.00    +0.000 C 
ENDROOT
BRANCH   1  16
ATOM     10  C   UNL     1       0.785  11.080  19.392  0.00  0.00    +0.000 A 
ATOM     11  C   UNL     1      -0.043  11.908  20.193  0.00  0.00    +0.000 A 
ATOM     12  C   UNL     1      -0.549  11.445  21.417  0.00  0.00    +0.000 A 
ATOM     13  C   UNL     1      -0.313  10.147  21.866  0.00  0.00    +0.000 A 
ATOM     14  C   UNL     1       0.468   9.320  21.059  0.00  0.00    +0.000 A 
ATOM     15  N   UNL     1       0.829   8.000  21.240  0.00  0.00    +0.000 N 
ATOM     16  C   UNL     1       1.675   7.588  20.244  0.00  0.00    +0.000 A 
ATOM     17  C   UNL     1       1.814   8.639  19.365  0.00  0.00    +0.000 A 
ATOM     18  C   UNL     1       1.037   9.750  19.856  0.00  0.00    +0.000 A 
ATOM     19  H   UNL     1       0.541   7.411  22.011  0.00  0.00    +0.000 HD
BRANCH  10  21
ATOM     20  C   UNL     1       2.478  12.249  18.144  0.00  0.00    +0.000 C 
ATOM     21  O   UNL     1       1.336  11.401  18.177  0.00  0.00    +0.000 OA
ENDBRANCH  10  21
BRANCH  11  22
ATOM     22  C   UNL     1      -0.462  13.237  19.833  0.00  0.00    +0.000 C 
ATOM     23  N   UNL     1      -0.808  14.293  19.510  0.00  0.00    +0.000 NA
ENDBRANCH  11  22
ENDBRANCH   1  16
BRANCH   9  24
ATOM     24  C   UNL     1       5.383   4.417  17.827  0.00  0.00    +0.000 A 
ATOM     25  C   UNL     1       4.668   4.068  16.659  0.00  0.00    +0.000 A 
ATOM     26  C   UNL     1       5.148   4.400  15.396  0.00  0.00    +0.000 A 
ATOM     27  C   UNL     1       6.336   5.106  15.291  0.00  0.00    +0.000 A 
ATOM     28  F   UNL     1       6.828   5.388  14.078  0.00  0.00    +0.000 F 
ATOM     29  C   UNL     1       7.030   5.518  16.423  0.00  0.00    +0.000 A 
ATOM     30  C   UNL     1       6.558   5.195  17.705  0.00  0.00    +0.000 A 
ATOM     31  C   UNL     1       7.323   5.690  18.903  0.00  0.00    +0.000 C 
ENDBRANCH   9  24
TORSDOF 4
ENDMDL
MODEL 3
REMARK VINA RESULT:      -8.2      0.433      1.322
REMARK  Name = 
REMARK  6 active torsions:
REMARK  status: ('A' for Active; 'I' for Inactive)
REMARK    1  A    between atoms: C_1  and  O_2
REMARK    2  A    between atoms: O_2  and  C_3
REMARK    3  A    between atoms: C_4  and  C_5
REMARK    4  A    between atoms: C_11  and  C_12
REMARK    5  A    between atoms: C_20  and  C_21
REMARK    6  A    between atoms: C_27  and  C_28
REMARK                            x       y       z     vdW  Elec       q    Type
REMARK                         _______ _______ _______ _____ _____    ______ ____
ROOT
ATOM      1  C   UNL     1       2.394   6.311  20.253  0.00  0.00    +0.000 A 
ATOM      2  N   UNL     1       3.582   6.039  19.613  0.00  0.00    +0.000 NA
ATOM      3  C   UNL     1       3.742   4.744  19.794  0.00  0.00    +0.000 A 
ATOM      4  N   UNL     1       2.709   4.275  20.549  0.00  0.00    +0.000 N 
ATOM      5  N   UNL     1       1.845   5.255  20.875  0.00  0.00    +0.000 NA
ATOM      6  C   UNL     1       2.478   2.869  20.816  0.00  0.00    +0.000 C 
ATOM      7  C   UNL     1       3.771   2.090  20.597  0.00  0.00    +0.000 C 
ATOM      8  O   UNL     1       4.357   2.465  19.349  0.00  0.00    +0.000 OA
ATOM      9  C   UNL     1       4.830   3.834  19.335  0.00  0.00    +0.000 C 
ENDROOT
BRANCH   1  16
ATOM     10  C   UNL     1       0.240  10.905  21.090  0.00  0.00    +0.000 A 
ATOM     11  C   UNL     1      -0.134  11.902  20.153  0.00  0.00    +0.000 A 
ATOM     12  C   UNL     1       0.039  11.692  18.777  0.00  0.00    +0.000 A 
ATOM     13  C   UNL     1       0.634  10.535  18.279  0.00  0.00    +0.000 A 
ATOM     14  C   UNL     1       1.039   9.572  19.203  0.00  0.00    +0.000 A 
ATOM     15  N   UNL     1       1.675   8.364  18.995  0.00  0.00    +0.000 N 
ATOM     16  C   UNL     1       1.820   7.684  20.175  0.00  0.00    +0.000 A 
ATOM     17  C   UNL     1       1.330   8.492  21.177  0.00  0.00    +0.000 A 
ATOM     18  C   UNL     1       0.843   9.711  20.581  0.00  0.00    +0.000 A 
ATOM     19  H   UNL     1       1.973   8.003  18.098  0.00  0.00    +0.000 HD
BRANCH  10  21
ATOM     20  C   UNL     1      -1.100  10.636  23.071  0.00  0.00    +0.000 C 
ATOM     21  O   UNL     1       0.136  10.983  22.457  0.00  0.00    +0.000 OA
ENDBRANCH  10  21
BRANCH  11  22
ATOM     22  C   UNL     1      -0.673  13.190  20.502  0.00  0.00    +0.000 C 
ATOM     23  N   UNL     1      -1.083  14.228  20.810  0.00  0.00    +0.000 NA
ENDBRANCH  11  22
ENDBRANCH   1  16
BRANCH   9  24
ATOM     24  C   UNL     1       5.313   4.160  17.932  0.00  0.00    +0.000 A 
ATOM     25  C   UNL     1       6.649   4.582  17.748  0.00  0.00    +0.000 A 
ATOM     26  C   UNL     1       7.113   4.975  16.497  0.00  0.00    +0.000 A 
ATOM     27  C   UNL     1       6.251   4.928  15.414  0.00  0.00    +0.000 A 
ATOM     28  F   UNL     1       6.677   5.350  14.216  0.00  0.00    +0.000 F 
ATOM     29  C   UNL     1       4.950   4.459  15.549  0.00  0.00    +0.000 A 
ATOM     30  C   UNL     1       4.466   4.054  16.804  0.00  0.00    +0.000 A 
ATOM     31  C   UNL     1       3.060   3.523  16.899  0.00  0.00    +0.000 C 
ENDBRANCH   9  24
TORSDOF 4
ENDMDL
MODEL 4
REMARK VINA RESULT:      -8.1      3.145      8.716
REMARK  Name = 
REMARK  6 active torsions:
REMARK  status: ('A' for Active; 'I' for Inactive)
REMARK    1  A    between atoms: C_1  and  O_2
REMARK    2  A    between atoms: O_2  and  C_3
REMARK    3  A    between atoms: C_4  and  C_5
REMARK    4  A    between atoms: C_11  and  C_12
REMARK    5  A    between atoms: C_20  and  C_21
REMARK    6  A    between atoms: C_27  and  C_28
REMARK                            x       y       z     vdW  Elec       q    Type
REMARK                         _______ _______ _______ _____ _____    ______ ____
ROOT
ATOM      1  C   UNL     1       1.526   8.095  20.142  0.00  0.00    +0.000 A 
ATOM      2  N   UNL     1       1.116   9.323  19.673  0.00  0.00    +0.000 NA
ATOM      3  C   UNL     1       0.538   9.876  20.720  0.00  0.00    +0.000 A 
ATOM      4  N   UNL     1       0.567   8.992  21.756  0.00  0.00    +0.000 N 
ATOM      5  N   UNL     1       1.172   7.840  21.411  0.00  0.00    +0.000 NA
ATOM      6  C   UNL     1       0.158   9.320  23.108  0.00  0.00    +0.000 C 
ATOM      7  C   UNL     1      -0.753  10.544  23.081  0.00  0.00    +0.000 C 
ATOM      8  O   UNL     1      -0.165  11.567  22.275  0.00  0.00    +0.000 OA
ATOM      9  C   UNL     1      -0.103  11.213  20.871  0.00  0.00    +0.000 C 
ENDROOT
BRANCH   1  16
ATOM     10  C   UNL     1       4.776   5.992  16.757  0.00  0.00    +0.000 A 
ATOM     11  C   UNL     1       4.855   4.648  16.308  0.00  0.00    +0.000 A 
ATOM     12  C   UNL     1       3.945   3.685  16.769  0.00  0.00    +0.000 A 
ATOM     13  C   UNL     1       2.975   3.986  17.722  0.00  0.00    +0.000 A 
ATOM     14  C   UNL     1       2.924   5.297  18.194  0.00  0.00    +0.000 A 
ATOM     15  N   UNL     1       2.098   5.858  19.148  0.00  0.00    +0.000 N 
ATOM     16  C   UNL     1       2.327   7.205  19.255  0.00  0.00    +0.000 A 
ATOM     17  C   UNL     1       3.365   7.513  18.403  0.00  0.00    +0.000 A 
ATOM     18  C   UNL     1       3.774   6.306  17.729  0.00  0.00    +0.000 A 
ATOM     19  H   UNL     1       1.396   5.364  19.683  0.00  0.00    +0.000 HD
BRANCH  10  21
ATOM     20  C   UNL     1       6.777   7.264  17.165  0.00  0.00    +0.000 C 
ATOM     21  O   UNL     1       5.602   7.027  16.397  0.00  0.00    +0.000 OA
ENDBRANCH  10  21
BRANCH  11  22
ATOM     22  C   UNL     1       5.853   4.147  15.400  0.00  0.00    +0.000 C 
ATOM     23  N   UNL     1       6.658   3.778  14.655  0.00  0.00    +0.000 NA
ENDBRANCH  11  22
ENDBRANCH   1  16
BRANCH   9  24
ATOM     24  C   UNL     1       0.648  12.309  20.134  0.00  0.00    +0.000 A 
ATOM     25  C   UNL     1       1.880  12.766  20.655  0.00  0.00    +0.000 A 
ATOM     26  C   UNL     1       2.561  13.826  20.066  0.00  0.00    +0.000 A 
ATOM     27  C   UNL     1       2.028  14.424  18.936  0.00  0.00    +0.000 A 
ATOM     28  F   UNL     1       2.654  15.475  18.391  0.00  0.00    +0.000 F 
ATOM     29  C   UNL     1       0.851  13.958  18.362  0.00  0.00    +0.000 A 
ATOM     30  C   UNL     1       0.152  12.886  18.941  0.00  0.00    +0.000 A 
ATOM     31  C   UNL     1      -1.101  12.393  18.269  0.00  0.00    +0.000 C 
ENDBRANCH   9  24
TORSDOF 4
ENDMDL
MODEL 5
REMARK VINA RESULT:      -8.0      2.639      4.261
REMARK  Name = 
REMARK  6 active torsions:
REMARK  status: ('A' for Active; 'I' for Inactive)
REMARK    1  A    between atoms: C_1  and  O_2
REMARK    2  A    between atoms: O_2  and  C_3
REMARK    3  A    between atoms: C_4  and  C_5
REMARK    4  A    between atoms: C_11  and  C_12
REMARK    5  A    between atoms: C_20  and  C_21
REMARK    6  A    between atoms: C_27  and  C_28
REMARK                            x       y       z     vdW  Elec       q    Type
REMARK                         _______ _______ _______ _____ _____    ______ ____
ROOT
ATOM      1  C   UNL     1       2.133   8.307  18.187  0.00  0.00    +0.000 A 
ATOM      2  N   UNL     1       1.842   6.968  18.320  0.00  0.00    +0.000 NA
ATOM      3  C   UNL     1       2.949   6.371  17.925  0.00  0.00    +0.000 A 
ATOM      4  N   UNL     1       3.844   7.320  17.533  0.00  0.00    +0.000 N 
ATOM      5  N   UNL     1       3.344   8.563  17.669  0.00  0.00    +0.000 NA
ATOM      6  C   UNL     1       5.221   7.034  17.184  0.00  0.00    +0.000 C 
ATOM      7  C   UNL     1       5.359   5.558  16.823  0.00  0.00    +0.000 C 
ATOM      8  O   UNL     1       4.722   4.754  17.818  0.00  0.00    +0.000 OA
ATOM      9  C   UNL     1       3.284   4.921  17.843  0.00  0.00    +0.000 C 
ENDROOT
BRANCH   1  16
ATOM     10  C   UNL     1      -0.892  11.551  20.790  0.00  0.00    +0.000 A 
ATOM     11  C   UNL     1      -1.976  12.336  20.320  0.00  0.00    +0.000 A 
ATOM     12  C   UNL     1      -2.379  12.270  18.978  0.00  0.00    +0.000 A 
ATOM     13  C   UNL     1      -1.703  11.486  18.045  0.00  0.00    +0.000 A 
ATOM     14  C   UNL     1      -0.612  10.745  18.499  0.00  0.00    +0.000 A 
ATOM     15  N   UNL     1       0.245   9.921  17.797  0.00  0.00    +0.000 N 
ATOM     16  C   UNL     1       1.138   9.318  18.644  0.00  0.00    +0.000 A 
ATOM     17  C   UNL     1       0.900   9.810  19.909  0.00  0.00    +0.000 A 
ATOM     18  C   UNL     1      -0.202  10.737  19.836  0.00  0.00    +0.000 A 
ATOM     19  H   UNL     1       0.215   9.751  16.800  0.00  0.00    +0.000 HD
BRANCH  10  21
ATOM     20  C   UNL     1      -0.953  10.617  23.007  0.00  0.00    +0.000 C 
ATOM     21  O   UNL     1      -0.390  11.526  22.067  0.00  0.00    +0.000 OA
ENDBRANCH  10  21
BRANCH  11  22
ATOM     22  C   UNL     1      -2.719  13.268  21.126  0.00  0.00    +0.000 C 
ATOM     23  N   UNL     1      -3.329  13.990  21.795  0.00  0.00    +0.000 NA
ENDBRANCH  11  22
ENDBRANCH   1  16
BRANCH   9  24
ATOM     24  C   UNL     1       2.729   4.124  19.011  0.00  0.00    +0.000 A 
ATOM     25  C   UNL     1       2.573   4.762  20.263  0.00  0.00    +0.000 A 
ATOM     26  C   UNL     1       2.152   4.054  21.384  0.00  0.00    +0.000 A 
ATOM     27  C   UNL     1       1.861   2.705  21.258  0.00  0.00    +0.000 A 
ATOM     28  F   UNL     1       1.502   2.006  22.342  0.00  0.00    +0.000 F 
ATOM     29  C   UNL     1       1.945   2.063  20.028  0.00  0.00    +0.000 A 
ATOM     30  C   UNL     1       2.363   2.763  18.885  0.00  0.00    +0.000 A 
ATOM     31  C   UNL     1       2.408   2.037  17.568  0.00  0.00    +0.000 C 
ENDBRANCH   9  24
TORSDOF 4
ENDMDL
MODEL 6
REMARK VINA RESULT:      -7.9      5.308      7.391
REMARK  Name = 
REMARK  6 active torsions:
REMARK  status: ('A' for Active; 'I' for Inactive)
REMARK    1  A    between atoms: C_1  and  O_2
REMARK    2  A    between atoms: O_2  and  C_3
REMARK    3  A    between atoms: C_4  and  C_5
REMARK    4  A    between atoms: C_11  and  C_12
REMARK    5  A    between atoms: C_20  and  C_21
REMARK    6  A    between atoms: C_27  and  C_28
REMARK                            x       y       z     vdW  Elec       q    Type
REMARK                         _______ _______ _______ _____ _____    ______ ____
ROOT
ATOM      1  C   UNL     1       7.319   7.592  17.204  0.00  0.00    +0.000 A 
ATOM      2  N   UNL     1       6.022   7.257  17.522  0.00  0.00    +0.000 NA
ATOM      3  C   UNL     1       5.840   6.106  16.908  0.00  0.00    +0.000 A 
ATOM      4  N   UNL     1       6.972   5.793  16.218  0.00  0.00    +0.000 N 
ATOM      5  N   UNL     1       7.925   6.732  16.371  0.00  0.00    +0.000 NA
ATOM      6  C   UNL     1       7.184   4.523  15.551  0.00  0.00    +0.000 C 
ATOM      7  C   UNL     1       5.839   3.851  15.295  0.00  0.00    +0.000 C 
ATOM      8  O   UNL     1       5.049   3.877  16.486  0.00  0.00    +0.000 OA
ATOM      9  C   UNL     1       4.645   5.215  16.866  0.00  0.00    +0.000 C 
ENDROOT
BRANCH   1  16
ATOM     10  C   UNL     1       9.057  12.289  18.370  0.00  0.00    +0.000 A 
ATOM     11  C   UNL     1       9.875  12.697  19.455  0.00  0.00    +0.000 A 
ATOM     12  C   UNL     1      10.355  11.759  20.382  0.00  0.00    +0.000 A 
ATOM     13  C   UNL     1      10.005  10.412  20.314  0.00  0.00    +0.000 A 
ATOM     14  C   UNL     1       9.168  10.018  19.270  0.00  0.00    +0.000 A 
ATOM     15  N   UNL     1       8.644   8.773  18.983  0.00  0.00    +0.000 N 
ATOM     16  C   UNL     1       7.930   8.806  17.814  0.00  0.00    +0.000 A 
ATOM     17  C   UNL     1       7.935  10.109  17.368  0.00  0.00    +0.000 A 
ATOM     18  C   UNL     1       8.704  10.905  18.292  0.00  0.00    +0.000 A 
ATOM     19  H   UNL     1       8.782   7.935  19.534  0.00  0.00    +0.000 HD
BRANCH  10  21
ATOM     20  C   UNL     1       7.347  13.850  17.715  0.00  0.00    +0.000 C 
ATOM     21  O   UNL     1       8.514  13.097  17.403  0.00  0.00    +0.000 OA
ENDBRANCH  10  21
BRANCH  11  22
ATOM     22  C   UNL     1      10.252  14.059  19.728  0.00  0.00    +0.000 C 
ATOM     23  N   UNL     1      10.571  15.155  19.914  0.00  0.00    +0.000 NA
ENDBRANCH  11  22
ENDBRANCH   1  16
BRANCH   9  24
ATOM     24  C   UNL     1       3.927   5.137  18.202  0.00  0.00    +0.000 A 
ATOM     25  C   UNL     1       4.224   4.068  19.079  0.00  0.00    +0.000 A 
ATOM     26  C   UNL     1       3.531   3.904  20.274  0.00  0.00    +0.000 A 
ATOM     27  C   UNL     1       2.549   4.821  20.614  0.00  0.00    +0.000 A 
ATOM     28  F   UNL     1       1.845   4.642  21.740  0.00  0.00    +0.000 F 
ATOM     29  C   UNL     1       2.276   5.917  19.805  0.00  0.00    +0.000 A 
ATOM     30  C   UNL     1       2.969   6.101  18.597  0.00  0.00    +0.000 A 
ATOM     31  C   UNL     1       2.665   7.319  17.767  0.00  0.00    +0.000 C 
ENDBRANCH   9  24
TORSDOF 4
ENDMDL
MODEL 7
REMARK VINA RESULT:      -7.8      3.531      9.137
REMARK  Name = 
REMARK  6 active torsions:
REMARK  status: ('A' for Active; 'I' for Inactive)
REMARK    1  A    between atoms: C_1  and  O_2
REMARK    2  A    between atoms: O_2  and  C_3
REMARK    3  A    between atoms: C_4  and  C_5
REMARK    4  A    between atoms: C_11  and  C_12
REMARK    5  A    between atoms: C_20  and  C_21
REMARK    6  A    between atoms: C_27  and  C_28
REMARK                            x       y       z     vdW  Elec       q    Type
REMARK                         _______ _______ _______ _____ _____    ______ ____
ROOT
ATOM      1  C   UNL     1       0.856   9.612  19.896  0.00  0.00    +0.000 A 
ATOM      2  N   UNL     1      -0.459   9.713  19.501  0.00  0.00    +0.000 NA
ATOM      3  C   UNL     1      -0.747  10.982  19.707  0.00  0.00    +0.000 A 
ATOM      4  N   UNL     1       0.342  11.599  20.243  0.00  0.00    +0.000 N 
ATOM      5  N   UNL     1       1.373  10.746  20.396  0.00  0.00    +0.000 NA
ATOM      6  C   UNL     1       0.436  13.029  20.456  0.00  0.00    +0.000 C 
ATOM      7  C   UNL     1      -0.965  13.632  20.493  0.00  0.00    +0.000 C 
ATOM      8  O   UNL     1      -1.729  13.151  19.385  0.00  0.00    +0.000 OA
ATOM      9  C   UNL     1      -2.013  11.733  19.467  0.00  0.00    +0.000 C 
ENDROOT
BRANCH   1  16
ATOM     10  C   UNL     1       2.931   4.923  20.279  0.00  0.00    +0.000 A 
ATOM     11  C   UNL     1       3.851   4.278  19.413  0.00  0.00    +0.000 A 
ATOM     12  C   UNL     1       4.349   4.936  18.279  0.00  0.00    +0.000 A 
ATOM     13  C   UNL     1       3.922   6.214  17.923  0.00  0.00    +0.000 A 
ATOM     14  C   UNL     1       2.987   6.832  18.753  0.00  0.00    +0.000 A 
ATOM     15  N   UNL     1       2.376   8.064  18.627  0.00  0.00    +0.000 N 
ATOM     16  C   UNL     1       1.577   8.322  19.710  0.00  0.00    +0.000 A 
ATOM     17  C   UNL     1       1.619   7.210  20.523  0.00  0.00    +0.000 A 
ATOM     18  C   UNL     1       2.499   6.239  19.922  0.00  0.00    +0.000 A 
ATOM     19  H   UNL     1       2.510   8.712  17.861  0.00  0.00    +0.000 HD
BRANCH  10  21
ATOM     20  C   UNL     1       1.363   3.390  21.269  0.00  0.00    +0.000 C 
ATOM     21  O   UNL     1       2.361   4.395  21.410  0.00  0.00    +0.000 OA
ENDBRANCH  10  21
BRANCH  11  22
ATOM     22  C   UNL     1       4.321   2.927  19.579  0.00  0.00    +0.000 C 
ATOM     23  N   UNL     1       4.695   1.846  19.749  0.00  0.00    +0.000 NA
ENDBRANCH  11  22
ENDBRANCH   1  16
BRANCH   9  24
ATOM     24  C   UNL     1      -2.712  11.309  18.187  0.00  0.00    +0.000 A 
ATOM     25  C   UNL     1      -1.962  10.661  17.179  0.00  0.00    +0.000 A 
ATOM     26  C   UNL     1      -2.536  10.333  15.955  0.00  0.00    +0.000 A 
ATOM     27  C   UNL     1      -3.872  10.628  15.737  0.00  0.00    +0.000 A 
ATOM     28  F   UNL     1      -4.419  10.358  14.544  0.00  0.00    +0.000 F 
ATOM     29  C   UNL     1      -4.653  11.208  16.730  0.00  0.00    +0.000 A 
ATOM     30  C   UNL     1      -4.091  11.542  17.973  0.00  0.00    +0.000 A 
ATOM     31  C   UNL     1      -4.980  12.138  19.031  0.00  0.00    +0.000 C 
ENDBRANCH   9  24
TORSDOF 4
ENDMDL
MODEL 8
REMARK VINA RESULT:      -7.7      3.109      8.853
REMARK  Name = 
REMARK  6 active torsions:
REMARK  status: ('A' for Active; 'I' for Inactive)
REMARK    1  A    between atoms: C_1  and  O_2
REMARK    2  A    between atoms: O_2  and  C_3
REMARK    3  A    between atoms: C_4  and  C_5
REMARK    4  A    between atoms: C_11  and  C_12
REMARK    5  A    between atoms: C_20  and  C_21
REMARK    6  A    between atoms: C_27  and  C_28
REMARK                            x       y       z     vdW  Elec       q    Type
REMARK                         _______ _______ _______ _____ _____    ______ ____
ROOT
ATOM      1  C   UNL     1       1.332   8.441  20.164  0.00  0.00    +0.000 A 
ATOM      2  N   UNL     1       0.723   9.598  19.732  0.00  0.00    +0.000 NA
ATOM      3  C   UNL     1       0.138  10.065  20.817  0.00  0.00    +0.000 A 
ATOM      4  N   UNL     1       0.358   9.195  21.842  0.00  0.00    +0.000 N 
ATOM      5  N   UNL     1       1.097   8.140  21.451  0.00  0.00    +0.000 NA
ATOM      6  C   UNL     1      -0.009   9.463  23.219  0.00  0.00    +0.000 C 
ATOM      7  C   UNL     1      -1.083  10.544  23.259  0.00  0.00    +0.000 C 
ATOM      8  O   UNL     1      -0.699  11.640  22.426  0.00  0.00    +0.000 OA
ATOM      9  C   UNL     1      -0.675  11.297  21.018  0.00  0.00    +0.000 C 
ENDROOT
BRANCH   1  16
ATOM     10  C   UNL     1       4.094   4.933  17.614  0.00  0.00    +0.000 A 
ATOM     11  C   UNL     1       4.952   5.109  16.497  0.00  0.00    +0.000 A 
ATOM     12  C   UNL     1       5.168   6.384  15.954  0.00  0.00    +0.000 A 
ATOM     13  C   UNL     1       4.512   7.512  16.442  0.00  0.00    +0.000 A 
ATOM     14  C   UNL     1       3.638   7.333  17.513  0.00  0.00    +0.000 A 
ATOM     15  N   UNL     1       2.844   8.256  18.165  0.00  0.00    +0.000 N 
ATOM     16  C   UNL     1       2.193   7.674  19.222  0.00  0.00    +0.000 A 
ATOM     17  C   UNL     1       2.519   6.336  19.217  0.00  0.00    +0.000 A 
ATOM     18  C   UNL     1       3.426   6.092  18.123  0.00  0.00    +0.000 A 
ATOM     19  H   UNL     1       2.763   9.236  17.927  0.00  0.00    +0.000 HD
BRANCH  10  21
ATOM     20  C   UNL     1       4.580   3.329  19.339  0.00  0.00    +0.000 C 
ATOM     21  O   UNL     1       3.787   3.749  18.234  0.00  0.00    +0.000 OA
ENDBRANCH  10  21
BRANCH  11  22
ATOM     22  C   UNL     1       5.631   4.040  15.813  0.00  0.00    +0.000 C 
ATOM     23  N   UNL     1       6.177   3.201  15.232  0.00  0.00    +0.000 NA
ENDBRANCH  11  22
ENDBRANCH   1  16
BRANCH   9  24
ATOM     24  C   UNL     1      -0.135  12.488  20.245  0.00  0.00    +0.000 A 
ATOM     25  C   UNL     1       0.914  13.251  20.806  0.00  0.00    +0.000 A 
ATOM     26  C   UNL     1       1.383  14.400  20.178  0.00  0.00    +0.000 A 
ATOM     27  C   UNL     1       0.822  14.785  18.971  0.00  0.00    +0.000 A 
ATOM     28  F   UNL     1       1.235  15.915  18.384  0.00  0.00    +0.000 F 
ATOM     29  C   UNL     1      -0.168  14.022  18.362  0.00  0.00    +0.000 A 
ATOM     30  C   UNL     1      -0.650  12.857  18.979  0.00  0.00    +0.000 A 
ATOM     31  C   UNL     1      -1.699  12.043  18.270  0.00  0.00    +0.000 C 
ENDBRANCH   9  24
TORSDOF 4
ENDMDL
MODEL 9
REMARK VINA RESULT:      -7.7      1.075      1.126
REMARK  Name = 
REMARK  6 active torsions:
REMARK  status: ('A' for Active; 'I' for Inactive)
REMARK    1  A    between atoms: C_1  and  O_2
REMARK    2  A    between atoms: O_2  and  C_3
REMARK    3  A    between atoms: C_4  and  C_5
REMARK    4  A    between atoms: C_11  and  C_12
REMARK    5  A    between atoms: C_20  and  C_21
REMARK    6  A    between atoms: C_27  and  C_28
REMARK                            x       y       z     vdW  Elec       q    Type
REMARK                         _______ _______ _______ _____ _____    ______ ____
ROOT
ATOM      1  C   UNL     1       2.485   6.379  19.112  0.00  0.00    +0.000 A 
ATOM      2  N   UNL     1       3.730   6.064  18.614  0.00  0.00    +0.000 NA
ATOM      3  C   UNL     1       3.742   4.746  18.623  0.00  0.00    +0.000 A 
ATOM      4  N   UNL     1       2.567   4.299  19.146  0.00  0.00    +0.000 N 
ATOM      5  N   UNL     1       1.754   5.318  19.487  0.00  0.00    +0.000 NA
ATOM      6  C   UNL     1       2.172   2.905  19.167  0.00  0.00    +0.000 C 
ATOM      7  C   UNL     1       3.408   2.023  19.022  0.00  0.00    +0.000 C 
ATOM      8  O   UNL     1       4.213   2.493  17.939  0.00  0.00    +0.000 OA
ATOM      9  C   UNL     1       4.803   3.791  18.194  0.00  0.00    +0.000 C 
ENDROOT
BRANCH   1  16
ATOM     10  C   UNL     1       0.210  10.910  19.967  0.00  0.00    +0.000 A 
ATOM     11  C   UNL     1       0.455  12.165  19.351  0.00  0.00    +0.000 A 
ATOM     12  C   UNL     1       1.412  12.288  18.334  0.00  0.00    +0.000 A 
ATOM     13  C   UNL     1       2.198  11.211  17.929  0.00  0.00    +0.000 A 
ATOM     14  C   UNL     1       1.985   9.987  18.563  0.00  0.00    +0.000 A 
ATOM     15  N   UNL     1       2.632   8.780  18.386  0.00  0.00    +0.000 N 
ATOM     16  C   UNL     1       2.056   7.805  19.157  0.00  0.00    +0.000 A 
ATOM     17  C   UNL     1       1.060   8.402  19.896  0.00  0.00    +0.000 A 
ATOM     18  C   UNL     1       1.009   9.800  19.547  0.00  0.00    +0.000 A 
ATOM     19  H   UNL     1       3.408   8.614  17.757  0.00  0.00    +0.000 HD
BRANCH  10  21
ATOM     20  C   UNL     1      -0.227  10.685  22.323  0.00  0.00    +0.000 C 
ATOM     21  O   UNL     1      -0.685  10.652  20.975  0.00  0.00    +0.000 OA
ENDBRANCH  10  21
BRANCH  11  22
ATOM     22  C   UNL     1      -0.199  13.395  19.715  0.00  0.00    +0.000 C 
ATOM     23  N   UNL     1      -0.743  14.365  20.033  0.00  0.00    +0.000 NA
ENDBRANCH  11  22
ENDBRANCH   1  16
BRANCH   9  24
ATOM     24  C   UNL     1       5.526   4.244  16.938  0.00  0.00    +0.000 A 
ATOM     25  C   UNL     1       4.884   4.099  15.687  0.00  0.00    +0.000 A 
ATOM     26  C   UNL     1       5.538   4.418  14.501  0.00  0.00    +0.000 A 
ATOM     27  C   UNL     1       6.833   4.907  14.557  0.00  0.00    +0.000 A 
ATOM     28  F   UNL     1       7.486   5.171  13.418  0.00  0.00    +0.000 F 
ATOM     29  C   UNL     1       7.470   5.120  15.774  0.00  0.00    +0.000 A 
ATOM     30  C   UNL     1       6.823   4.808  16.981  0.00  0.00    +0.000 A 
ATOM     31  C   UNL     1       7.537   5.085  18.277  0.00  0.00    +0.000 C 
ENDBRANCH   9  24
TORSDOF 4
ENDMDL
