MODEL 1
REMARK VINA RESULT:      -6.9      0.000      0.000
REMARK  Name = 
REMARK  8 active torsions:
REMARK  status: ('A' for Active; 'I' for Inactive)
REMARK    1  A    between atoms: C_1  and  N_2
REMARK    2  A    between atoms: N_2  and  C_3
REMARK    3  A    between atoms: N_2  and  C_4
REMARK    4  A    between atoms: C_4  and  C_5
REMARK    5  A    between atoms: C_5  and  N_6
REMARK    6  A    between atoms: N_6  and  C_7
REMARK    7  A    between atoms: C_9  and  C_10
REMARK    8  A    between atoms: C_18  and  C_19
REMARK                            x       y       z     vdW  Elec       q    Type
REMARK                         _______ _______ _______ _____ _____    ______ ____
ROOT
ATOM      1  C   UNL     1       4.250   4.246  17.739  0.00  0.00    +0.000 A 
ATOM      2  O   UNL     1       3.150   4.992  18.093  0.00  0.00    +0.000 OA
ATOM      3  C   UNL     1       3.580   6.295  18.013  0.00  0.00    +0.000 A 
ATOM      4  N   UNL     1       4.815   6.431  17.568  0.00  0.00    +0.000 NA
ATOM      5  C   UNL     1       5.251   5.142  17.427  0.00  0.00    +0.000 A 
ENDROOT
BRANCH   3   6
ATOM      6  C   UNL     1       2.687   7.357  18.478  0.00  0.00    +0.000 A 
ATOM      7  C   UNL     1       2.413   8.428  17.604  0.00  0.00    +0.000 A 
ATOM      8  C   UNL     1       1.654   9.526  18.014  0.00  0.00    +0.000 A 
ATOM      9  C   UNL     1       1.151   9.568  19.308  0.00  0.00    +0.000 A 
ATOM     10  C   UNL     1       1.395   8.504  20.178  0.00  0.00    +0.000 A 
ATOM     11 CL   UNL     1       0.776   8.572  21.784  0.00  0.00    +0.000 Cl
ATOM     12  C   UNL     1       2.152   7.399  19.771  0.00  0.00    +0.000 A 
ENDBRANCH   3   6
BRANCH   1  13
ATOM     13  N   UNL     1       4.175   2.898  17.818  0.00  0.00    +0.000 N 
ATOM     14  H   UNL     1       3.938   2.344  16.995  0.00  0.00    +0.000 HD
BRANCH  13  15
ATOM     15  C   UNL     1       3.807   2.252  19.076  0.00  0.00    +0.000 C 
BRANCH  15  16
ATOM     16  C   UNL     1       2.276   2.001  19.168  0.00  0.00    +0.000 C 
BRANCH  16  18
ATOM     17  C   UNL     1       2.576   2.773  21.459  0.00  0.00    +0.000 C 
ATOM     18  N   UNL     1       1.607   2.482  20.398  0.00  0.00    +0.000 NA
ATOM     19  C   UNL     1       0.827   3.692  20.113  0.00  0.00    +0.000 C 
ENDBRANCH  16  18
ENDBRANCH  15  16
ENDBRANCH  13  15
ENDBRANCH   1  13
BRANCH   5  20
ATOM     20  C   UNL     1       6.578   4.863  16.989  0.00  0.00    +0.000 C 
ATOM     21  N   UNL     1       7.665   4.644  16.642  0.00  0.00    +0.000 NA
ENDBRANCH   5  20
TORSDOF 6
ENDMDL
MODEL 2
REMARK VINA RESULT:      -6.8      1.729      3.904
REMARK  Name = 
REMARK  8 active torsions:
REMARK  status: ('A' for Active; 'I' for Inactive)
REMARK    1  A    between atoms: C_1  and  N_2
REMARK    2  A    between atoms: N_2  and  C_3
REMARK    3  A    between atoms: N_2  and  C_4
REMARK    4  A    between atoms: C_4  and  C_5
REMARK    5  A    between atoms: C_5  and  N_6
REMARK    6  A    between atoms: N_6  and  C_7
REMARK    7  A    between atoms: C_9  and  C_10
REMARK    8  A    between atoms: C_18  and  C_19
REMARK                            x       y       z     vdW  Elec       q    Type
REMARK                         _______ _______ _______ _____ _____    ______ ____
ROOT
ATOM      1  C   UNL     1       5.033   4.431  18.874  0.00  0.00    +0.000 A 
ATOM      2  O   UNL     1       4.637   5.736  19.060  0.00  0.00    +0.000 OA
ATOM      3  C   UNL     1       3.265   5.671  19.123  0.00  0.00    +0.000 A 
ATOM      4  N   UNL     1       2.778   4.445  19.072  0.00  0.00    +0.000 NA
ATOM      5  C   UNL     1       3.886   3.665  18.882  0.00  0.00    +0.000 A 
ENDROOT
BRANCH   3   6
ATOM      6  C   UNL     1       2.507   6.921  19.165  0.00  0.00    +0.000 A 
ATOM      7  C   UNL     1       2.466   7.717  18.003  0.00  0.00    +0.000 A 
ATOM      8  C   UNL     1       1.848   8.969  17.999  0.00  0.00    +0.000 A 
ATOM      9  C   UNL     1       1.257   9.446  19.162  0.00  0.00    +0.000 A 
ATOM     10  C   UNL     1       1.271   8.661  20.316  0.00  0.00    +0.000 A 
ATOM     11 CL   UNL     1       0.544   9.267  21.755  0.00  0.00    +0.000 Cl
ATOM     12  C   UNL     1       1.884   7.403  20.323  0.00  0.00    +0.000 A 
ENDBRANCH   3   6
BRANCH   1  13
ATOM     13  N   UNL     1       6.344   4.172  18.672  0.00  0.00    +0.000 N 
ATOM     14  H   UNL     1       6.901   3.722  19.398  0.00  0.00    +0.000 HD
BRANCH  13  15
ATOM     15  C   UNL     1       7.133   5.016  17.778  0.00  0.00    +0.000 C 
BRANCH  15  16
ATOM     16  C   UNL     1       7.173   4.448  16.332  0.00  0.00    +0.000 C 
BRANCH  16  18
ATOM     17  C   UNL     1       5.393   5.913  15.547  0.00  0.00    +0.000 C 
ATOM     18  N   UNL     1       5.915   4.544  15.557  0.00  0.00    +0.000 NA
ATOM     19  C   UNL     1       6.134   4.100  14.176  0.00  0.00    +0.000 C 
ENDBRANCH  16  18
ENDBRANCH  15  16
ENDBRANCH  13  15
ENDBRANCH   1  13
BRANCH   5  20
ATOM     20  C   UNL     1       3.770   2.252  18.741  0.00  0.00    +0.000 C 
ATOM     21  N   UNL     1       3.663   1.102  18.618  0.00  0.00    +0.000 NA
ENDBRANCH   5  20
TORSDOF 6
ENDMDL
MODEL 3
REMARK VINA RESULT:      -6.7      4.015      6.052
REMARK  Name = 
REMARK  8 active torsions:
REMARK  status: ('A' for Active; 'I' for Inactive)
REMARK    1  A    between atoms: C_1  and  N_2
REMARK    2  A    between atoms: N_2  and  C_3
REMARK    3  A    between atoms: N_2  and  C_4
REMARK    4  A    between atoms: C_4  and  C_5
REMARK    5  A    between atoms: C_5  and  N_6
REMARK    6  A    between atoms: N_6  and  C_7
REMARK    7  A    between atoms: C_9  and  C_10
REMARK    8  A    between atoms: C_18  and  C_19
REMARK                            x       y       z     vdW  Elec       q    Type
REMARK                         _______ _______ _______ _____ _____    ______ ____
ROOT
ATOM      1  C   UNL     1       5.356   5.176  17.747  0.00  0.00    +0.000 A 
ATOM      2  O   UNL     1       5.210   4.866  16.414  0.00  0.00    +0.000 OA
ATOM      3  C   UNL     1       6.493   4.657  15.969  0.00  0.00    +0.000 A 
ATOM      4  N   UNL     1       7.413   4.730  16.912  0.00  0.00    +0.000 NA
ATOM      5  C   UNL     1       6.705   5.090  18.026  0.00  0.00    +0.000 A 
ENDROOT
BRANCH   3   6
ATOM      6  C   UNL     1       6.712   4.452  14.537  0.00  0.00    +0.000 A 
ATOM      7  C   UNL     1       7.634   5.287  13.876  0.00  0.00    +0.000 A 
ATOM      8  C   UNL     1       7.820   5.219  12.494  0.00  0.00    +0.000 A 
ATOM      9  C   UNL     1       7.085   4.307  11.748  0.00  0.00    +0.000 A 
ATOM     10  C   UNL     1       6.183   3.457  12.390  0.00  0.00    +0.000 A 
ATOM     11 CL   UNL     1       5.268   2.337  11.454  0.00  0.00    +0.000 Cl
ATOM     12  C   UNL     1       5.997   3.518  13.776  0.00  0.00    +0.000 A 
ENDBRANCH   3   6
BRANCH   1  13
ATOM     13  N   UNL     1       4.263   5.538  18.455  0.00  0.00    +0.000 N 
ATOM     14  H   UNL     1       4.062   6.523  18.628  0.00  0.00    +0.000 HD
BRANCH  13  15
ATOM     15  C   UNL     1       3.720   4.648  19.478  0.00  0.00    +0.000 C 
BRANCH  15  16
ATOM     16  C   UNL     1       2.244   4.262  19.182  0.00  0.00    +0.000 C 
BRANCH  16  18
ATOM     17  C   UNL     1       3.180   2.139  18.439  0.00  0.00    +0.000 C 
ATOM     18  N   UNL     1       2.038   3.054  18.351  0.00  0.00    +0.000 NA
ATOM     19  C   UNL     1       0.822   2.349  18.771  0.00  0.00    +0.000 C 
ENDBRANCH  16  18
ENDBRANCH  15  16
ENDBRANCH  13  15
ENDBRANCH   1  13
BRANCH   5  20
ATOM     20  C   UNL     1       7.361   5.307  19.272  0.00  0.00    +0.000 C 
ATOM     21  N   UNL     1       7.885   5.488  20.293  0.00  0.00    +0.000 NA
ENDBRANCH   5  20
TORSDOF 6
ENDMDL
MODEL 4
REMARK VINA RESULT:      -6.7      4.035      6.019
REMARK  Name = 
REMARK  8 active torsions:
REMARK  status: ('A' for Active; 'I' for Inactive)
REMARK    1  A    between atoms: C_1  and  N_2
REMARK    2  A    between atoms: N_2  and  C_3
REMARK    3  A    between atoms: N_2  and  C_4
REMARK    4  A    between atoms: C_4  and  C_5
REMARK    5  A    between atoms: C_5  and  N_6
REMARK    6  A    between atoms: N_6  and  C_7
REMARK    7  A    between atoms: C_9  and  C_10
REMARK    8  A    between atoms: C_18  and  C_19
REMARK                            x       y       z     vdW  Elec       q    Type
REMARK                         _______ _______ _______ _____ _____    ______ ____
ROOT
ATOM      1  C   UNL     1       5.286   4.961  17.760  0.00  0.00    +0.000 A 
ATOM      2  O   UNL     1       5.164   4.642  16.427  0.00  0.00    +0.000 OA
ATOM      3  C   UNL     1       6.459   4.577  15.971  0.00  0.00    +0.000 A 
ATOM      4  N   UNL     1       7.373   4.747  16.909  0.00  0.00    +0.000 NA
ATOM      5  C   UNL     1       6.637   5.022  18.030  0.00  0.00    +0.000 A 
ENDROOT
BRANCH   3   6
ATOM      6  C   UNL     1       6.689   4.405  14.537  0.00  0.00    +0.000 A 
ATOM      7  C   UNL     1       7.608   5.262  13.900  0.00  0.00    +0.000 A 
ATOM      8  C   UNL     1       7.803   5.224  12.517  0.00  0.00    +0.000 A 
ATOM      9  C   UNL     1       7.079   4.322  11.748  0.00  0.00    +0.000 A 
ATOM     10  C   UNL     1       6.180   3.451  12.367  0.00  0.00    +0.000 A 
ATOM     11 CL   UNL     1       5.281   2.344  11.401  0.00  0.00    +0.000 Cl
ATOM     12  C   UNL     1       5.986   3.482  13.752  0.00  0.00    +0.000 A 
ENDBRANCH   3   6
BRANCH   1  13
ATOM     13  N   UNL     1       4.165   5.197  18.478  0.00  0.00    +0.000 N 
ATOM     14  H   UNL     1       4.120   5.988  19.121  0.00  0.00    +0.000 HD
BRANCH  13  15
ATOM     15  C   UNL     1       3.285   4.094  18.855  0.00  0.00    +0.000 C 
BRANCH  15  16
ATOM     16  C   UNL     1       2.685   4.294  20.275  0.00  0.00    +0.000 C 
BRANCH  16  18
ATOM     17  C   UNL     1       0.891   2.933  19.347  0.00  0.00    +0.000 C 
ATOM     18  N   UNL     1       1.368   3.666  20.524  0.00  0.00    +0.000 NA
ATOM     19  C   UNL     1       1.450   2.747  21.664  0.00  0.00    +0.000 C 
ENDBRANCH  16  18
ENDBRANCH  15  16
ENDBRANCH  13  15
ENDBRANCH   1  13
BRANCH   5  20
ATOM     20  C   UNL     1       7.276   5.304  19.272  0.00  0.00    +0.000 C 
ATOM     21  N   UNL     1       7.808   5.532  20.279  0.00  0.00    +0.000 NA
ENDBRANCH   5  20
TORSDOF 6
ENDMDL
MODEL 5
REMARK VINA RESULT:      -6.6      1.698      4.008
REMARK  Name = 
REMARK  8 active torsions:
REMARK  status: ('A' for Active; 'I' for Inactive)
REMARK    1  A    between atoms: C_1  and  N_2
REMARK    2  A    between atoms: N_2  and  C_3
REMARK    3  A    between atoms: N_2  and  C_4
REMARK    4  A    between atoms: C_4  and  C_5
REMARK    5  A    between atoms: C_5  and  N_6
REMARK    6  A    between atoms: N_6  and  C_7
REMARK    7  A    between atoms: C_9  and  C_10
REMARK    8  A    between atoms: C_18  and  C_19
REMARK                            x       y       z     vdW  Elec       q    Type
REMARK                         _______ _______ _______ _____ _____    ______ ____
ROOT
ATOM      1  C   UNL     1       4.770   4.655  19.290  0.00  0.00    +0.000 A 
ATOM      2  O   UNL     1       4.368   5.955  19.494  0.00  0.00    +0.000 OA
ATOM      3  C   UNL     1       3.025   5.947  19.201  0.00  0.00    +0.000 A 
ATOM      4  N   UNL     1       2.540   4.754  18.911  0.00  0.00    +0.000 NA
ATOM      5  C   UNL     1       3.642   3.944  18.933  0.00  0.00    +0.000 A 
ENDROOT
BRANCH   3   6
ATOM      6  C   UNL     1       2.308   7.222  19.171  0.00  0.00    +0.000 A 
ATOM      7  C   UNL     1       2.286   7.947  17.963  0.00  0.00    +0.000 A 
ATOM      8  C   UNL     1       1.710   9.217  17.885  0.00  0.00    +0.000 A 
ATOM      9  C   UNL     1       1.142   9.782  19.019  0.00  0.00    +0.000 A 
ATOM     10  C   UNL     1       1.137   9.068  20.218  0.00  0.00    +0.000 A 
ATOM     11 CL   UNL     1       0.438   9.784  21.621  0.00  0.00    +0.000 Cl
ATOM     12  C   UNL     1       1.708   7.793  20.300  0.00  0.00    +0.000 A 
ENDBRANCH   3   6
BRANCH   1  13
ATOM     13  N   UNL     1       6.083   4.354  19.401  0.00  0.00    +0.000 N 
ATOM     14  H   UNL     1       6.406   3.707  20.120  0.00  0.00    +0.000 HD
BRANCH  13  15
ATOM     15  C   UNL     1       7.098   5.325  18.998  0.00  0.00    +0.000 C 
BRANCH  15  16
ATOM     16  C   UNL     1       7.499   5.154  17.506  0.00  0.00    +0.000 C 
BRANCH  16  18
ATOM     17  C   UNL     1       5.808   6.162  16.072  0.00  0.00    +0.000 C 
ATOM     18  N   UNL     1       7.168   6.281  16.606  0.00  0.00    +0.000 NA
ATOM     19  C   UNL     1       7.296   7.556  17.320  0.00  0.00    +0.000 C 
ENDBRANCH  16  18
ENDBRANCH  15  16
ENDBRANCH  13  15
ENDBRANCH   1  13
BRANCH   5  20
ATOM     20  C   UNL     1       3.535   2.556  18.632  0.00  0.00    +0.000 C 
ATOM     21  N   UNL     1       3.453   1.421  18.398  0.00  0.00    +0.000 NA
ENDBRANCH   5  20
TORSDOF 6
ENDMDL
MODEL 6
REMARK VINA RESULT:      -6.6      3.118      5.413
REMARK  Name = 
REMARK  8 active torsions:
REMARK  status: ('A' for Active; 'I' for Inactive)
REMARK    1  A    between atoms: C_1  and  N_2
REMARK    2  A    between atoms: N_2  and  C_3
REMARK    3  A    between atoms: N_2  and  C_4
REMARK    4  A    between atoms: C_4  and  C_5
REMARK    5  A    between atoms: C_5  and  N_6
REMARK    6  A    between atoms: N_6  and  C_7
REMARK    7  A    between atoms: C_9  and  C_10
REMARK    8  A    between atoms: C_18  and  C_19
REMARK                            x       y       z     vdW  Elec       q    Type
REMARK                         _______ _______ _______ _____ _____    ______ ____
ROOT
ATOM      1  C   UNL     1       6.115   5.115  16.800  0.00  0.00    +0.000 A 
ATOM      2  O   UNL     1       4.952   4.481  17.169  0.00  0.00    +0.000 OA
ATOM      3  C   UNL     1       4.342   5.361  18.031  0.00  0.00    +0.000 A 
ATOM      4  N   UNL     1       4.975   6.511  18.170  0.00  0.00    +0.000 NA
ATOM      5  C   UNL     1       6.110   6.346  17.422  0.00  0.00    +0.000 A 
ENDROOT
BRANCH   3   6
ATOM      6  C   UNL     1       3.136   4.928  18.737  0.00  0.00    +0.000 A 
ATOM      7  C   UNL     1       2.757   5.624  19.902  0.00  0.00    +0.000 A 
ATOM      8  C   UNL     1       1.678   5.206  20.683  0.00  0.00    +0.000 A 
ATOM      9  C   UNL     1       0.957   4.080  20.308  0.00  0.00    +0.000 A 
ATOM     10  C   UNL     1       1.306   3.391  19.145  0.00  0.00    +0.000 A 
ATOM     11 CL   UNL     1       0.410   1.990  18.696  0.00  0.00    +0.000 Cl
ATOM     12  C   UNL     1       2.383   3.810  18.356  0.00  0.00    +0.000 A 
ENDBRANCH   3   6
BRANCH   1  13
ATOM     13  N   UNL     1       6.999   4.452  16.020  0.00  0.00    +0.000 N 
ATOM     14  H   UNL     1       7.905   4.169  16.392  0.00  0.00    +0.000 HD
BRANCH  13  15
ATOM     15  C   UNL     1       7.005   4.658  14.574  0.00  0.00    +0.000 C 
BRANCH  15  16
ATOM     16  C   UNL     1       5.767   4.009  13.894  0.00  0.00    +0.000 C 
BRANCH  16  18
ATOM     17  C   UNL     1       4.806   3.279  11.778  0.00  0.00    +0.000 C 
ATOM     18  N   UNL     1       6.014   3.319  12.608  0.00  0.00    +0.000 NA
ATOM     19  C   UNL     1       7.086   3.993  11.867  0.00  0.00    +0.000 C 
ENDBRANCH  16  18
ENDBRANCH  15  16
ENDBRANCH  13  15
ENDBRANCH   1  13
BRANCH   5  20
ATOM     20  C   UNL     1       7.090   7.378  17.344  0.00  0.00    +0.000 C 
ATOM     21  N   UNL     1       7.880   8.227  17.287  0.00  0.00    +0.000 NA
ENDBRANCH   5  20
TORSDOF 6
ENDMDL
MODEL 7
REMARK VINA RESULT:      -6.6      3.800      5.943
REMARK  Name = 
REMARK  8 active torsions:
REMARK  status: ('A' for Active; 'I' for Inactive)
REMARK    1  A    between atoms: C_1  and  N_2
REMARK    2  A    between atoms: N_2  and  C_3
REMARK    3  A    between atoms: N_2  and  C_4
REMARK    4  A    between atoms: C_4  and  C_5
REMARK    5  A    between atoms: C_5  and  N_6
REMARK    6  A    between atoms: N_6  and  C_7
REMARK    7  A    between atoms: C_9  and  C_10
REMARK    8  A    between atoms: C_18  and  C_19
REMARK                            x       y       z     vdW  Elec       q    Type
REMARK                         _______ _______ _______ _____ _____    ______ ____
ROOT
ATOM      1  C   UNL     1       5.155   4.420  18.092  0.00  0.00    +0.000 A 
ATOM      2  O   UNL     1       5.924   3.966  17.046  0.00  0.00    +0.000 OA
ATOM      3  C   UNL     1       5.606   4.799  16.000  0.00  0.00    +0.000 A 
ATOM      4  N   UNL     1       4.774   5.774  16.317  0.00  0.00    +0.000 NA
ATOM      5  C   UNL     1       4.462   5.518  17.625  0.00  0.00    +0.000 A 
ENDROOT
BRANCH   3   6
ATOM      6  C   UNL     1       6.143   4.494  14.674  0.00  0.00    +0.000 A 
ATOM      7  C   UNL     1       7.265   5.218  14.226  0.00  0.00    +0.000 A 
ATOM      8  C   UNL     1       7.770   5.055  12.934  0.00  0.00    +0.000 A 
ATOM      9  C   UNL     1       7.159   4.158  12.068  0.00  0.00    +0.000 A 
ATOM     10  C   UNL     1       6.059   3.417  12.504  0.00  0.00    +0.000 A 
ATOM     11 CL   UNL     1       5.302   2.315  11.417  0.00  0.00    +0.000 Cl
ATOM     12  C   UNL     1       5.553   3.574  13.799  0.00  0.00    +0.000 A 
ENDBRANCH   3   6
BRANCH   1  13
ATOM     13  N   UNL     1       5.168   3.733  19.256  0.00  0.00    +0.000 N 
ATOM     14  H   UNL     1       5.983   3.769  19.869  0.00  0.00    +0.000 HD
BRANCH  13  15
ATOM     15  C   UNL     1       4.394   2.502  19.394  0.00  0.00    +0.000 C 
BRANCH  15  16
ATOM     16  C   UNL     1       2.865   2.781  19.417  0.00  0.00    +0.000 C 
BRANCH  16  18
ATOM     17  C   UNL     1       1.049   4.149  20.290  0.00  0.00    +0.000 C 
ATOM     18  N   UNL     1       2.359   3.555  20.573  0.00  0.00    +0.000 NA
ATOM     19  C   UNL     1       2.253   2.693  21.755  0.00  0.00    +0.000 C 
ENDBRANCH  16  18
ENDBRANCH  15  16
ENDBRANCH  13  15
ENDBRANCH   1  13
BRANCH   5  20
ATOM     20  C   UNL     1       3.544   6.347  18.333  0.00  0.00    +0.000 C 
ATOM     21  N   UNL     1       2.788   7.023  18.899  0.00  0.00    +0.000 NA
ENDBRANCH   5  20
TORSDOF 6
ENDMDL
MODEL 8
REMARK VINA RESULT:      -6.6      1.654      3.832
REMARK  Name = 
REMARK  8 active torsions:
REMARK  status: ('A' for Active; 'I' for Inactive)
REMARK    1  A    between atoms: C_1  and  N_2
REMARK    2  A    between atoms: N_2  and  C_3
REMARK    3  A    between atoms: N_2  and  C_4
REMARK    4  A    between atoms: C_4  and  C_5
REMARK    5  A    between atoms: C_5  and  N_6
REMARK    6  A    between atoms: N_6  and  C_7
REMARK    7  A    between atoms: C_9  and  C_10
REMARK    8  A    between atoms: C_18  and  C_19
REMARK                            x       y       z     vdW  Elec       q    Type
REMARK                         _______ _______ _______ _____ _____    ______ ____
ROOT
ATOM      1  C   UNL     1       4.217   4.664  17.083  0.00  0.00    +0.000 A 
ATOM      2  O   UNL     1       3.877   5.976  17.317  0.00  0.00    +0.000 OA
ATOM      3  C   UNL     1       3.002   5.920  18.376  0.00  0.00    +0.000 A 
ATOM      4  N   UNL     1       2.829   4.709  18.872  0.00  0.00    +0.000 NA
ATOM      5  C   UNL     1       3.566   3.911  18.039  0.00  0.00    +0.000 A 
ENDROOT
BRANCH   3   6
ATOM      6  C   UNL     1       2.322   7.148  18.788  0.00  0.00    +0.000 A 
ATOM      7  C   UNL     1       2.139   8.164  17.829  0.00  0.00    +0.000 A 
ATOM      8  C   UNL     1       1.591   9.401  18.173  0.00  0.00    +0.000 A 
ATOM      9  C   UNL     1       1.213   9.641  19.488  0.00  0.00    +0.000 A 
ATOM     10  C   UNL     1       1.368   8.637  20.445  0.00  0.00    +0.000 A 
ATOM     11 CL   UNL     1       0.905   8.950  22.075  0.00  0.00    +0.000 Cl
ATOM     12  C   UNL     1       1.912   7.394  20.104  0.00  0.00    +0.000 A 
ENDBRANCH   3   6
BRANCH   1  13
ATOM     13  N   UNL     1       5.001   4.373  16.021  0.00  0.00    +0.000 N 
ATOM     14  H   UNL     1       4.914   3.475  15.545  0.00  0.00    +0.000 HD
BRANCH  13  15
ATOM     15  C   UNL     1       6.330   4.966  15.902  0.00  0.00    +0.000 C 
BRANCH  15  16
ATOM     16  C   UNL     1       7.212   4.658  17.144  0.00  0.00    +0.000 C 
BRANCH  16  18
ATOM     17  C   UNL     1       7.227   7.085  17.354  0.00  0.00    +0.000 C 
ATOM     18  N   UNL     1       7.813   5.827  17.825  0.00  0.00    +0.000 NA
ATOM     19  C   UNL     1       7.626   5.721  19.277  0.00  0.00    +0.000 C 
ENDBRANCH  16  18
ENDBRANCH  15  16
ENDBRANCH  13  15
ENDBRANCH   1  13
BRANCH   5  20
ATOM     20  C   UNL     1       3.608   2.499  18.227  0.00  0.00    +0.000 C 
ATOM     21  N   UNL     1       3.629   1.349  18.384  0.00  0.00    +0.000 NA
ENDBRANCH   5  20
TORSDOF 6
ENDMDL
MODEL 9
REMARK VINA RESULT:      -6.6      3.987      6.160
REMARK  Name = 
REMARK  8 active torsions:
REMARK  status: ('A' for Active; 'I' for Inactive)
REMARK    1  A    between atoms: C_1  and  N_2
REMARK    2  A    between atoms: N_2  and  C_3
REMARK    3  A    between atoms: N_2  and  C_4
REMARK    4  A    between atoms: C_4  and  C_5
REMARK    5  A    between atoms: C_5  and  N_6
REMARK    6  A    between atoms: N_6  and  C_7
REMARK    7  A    between atoms: C_9  and  C_10
REMARK    8  A    between atoms: C_18  and  C_19
REMARK                            x       y       z     vdW  Elec       q    Type
REMARK                         _______ _______ _______ _____ _____    ______ ____
ROOT
ATOM      1  C   UNL     1       5.410   5.751  17.564  0.00  0.00    +0.000 A 
ATOM      2  O   UNL     1       5.273   5.451  16.229  0.00  0.00    +0.000 OA
ATOM      3  C   UNL     1       6.481   4.898  15.877  0.00  0.00    +0.000 A 
ATOM      4  N   UNL     1       7.324   4.754  16.882  0.00  0.00    +0.000 NA
ATOM      5  C   UNL     1       6.665   5.321  17.940  0.00  0.00    +0.000 A 
ENDROOT
BRANCH   3   6
ATOM      6  C   UNL     1       6.730   4.600  14.466  0.00  0.00    +0.000 A 
ATOM      7  C   UNL     1       7.633   5.420  13.761  0.00  0.00    +0.000 A 
ATOM      8  C   UNL     1       7.844   5.260  12.390  0.00  0.00    +0.000 A 
ATOM      9  C   UNL     1       7.154   4.272  11.701  0.00  0.00    +0.000 A 
ATOM     10  C   UNL     1       6.272   3.437  12.390  0.00  0.00    +0.000 A 
ATOM     11 CL   UNL     1       5.413   2.221  11.523  0.00  0.00    +0.000 Cl
ATOM     12  C   UNL     1       6.061   3.590  13.765  0.00  0.00    +0.000 A 
ENDBRANCH   3   6
BRANCH   1  13
ATOM     13  N   UNL     1       4.408   6.410  18.190  0.00  0.00    +0.000 N 
ATOM     14  H   UNL     1       4.549   6.801  19.121  0.00  0.00    +0.000 HD
BRANCH  13  15
ATOM     15  C   UNL     1       3.015   6.070  17.909  0.00  0.00    +0.000 C 
BRANCH  15  16
ATOM     16  C   UNL     1       2.624   4.693  18.516  0.00  0.00    +0.000 C 
BRANCH  16  18
ATOM     17  C   UNL     1       2.283   4.289  20.894  0.00  0.00    +0.000 C 
ATOM     18  N   UNL     1       3.262   4.341  19.804  0.00  0.00    +0.000 NA
ATOM     19  C   UNL     1       3.936   3.042  19.699  0.00  0.00    +0.000 C 
ENDBRANCH  16  18
ENDBRANCH  15  16
ENDBRANCH  13  15
ENDBRANCH   1  13
BRANCH   5  20
ATOM     20  C   UNL     1       7.273   5.393  19.226  0.00  0.00    +0.000 C 
ATOM     21  N   UNL     1       7.780   5.457  20.269  0.00  0.00    +0.000 NA
ENDBRANCH   5  20
TORSDOF 6
ENDMDL
