MODEL 1
REMARK VINA RESULT:      -8.6      0.000      0.000
REMARK  Name = 
REMARK  6 active torsions:
REMARK  status: ('A' for Active; 'I' for Inactive)
REMARK    1  A    between atoms: C_2  and  C_13
REMARK    2  A    between atoms: N_3  and  C_4
REMARK    3  A    between atoms: C_8  and  N_9
REMARK    4  A    between atoms: C_17  and  C_18
REMARK    5  A    between atoms: N_20  and  C_21
REMARK    6  A    between atoms: C_25  and  N_26
REMARK                            x       y       z     vdW  Elec       q    Type
REMARK                         _______ _______ _______ _____ _____    ______ ____
ROOT
ATOM      1  C   UNL     1       4.243   5.993  17.515  0.00  0.00    +0.000 A 
ATOM      2  C   UNL     1       4.453   5.017  18.496  0.00  0.00    +0.000 A 
ATOM      3  C   UNL     1       3.787   5.116  19.716  0.00  0.00    +0.000 A 
ATOM      4  C   UNL     1       2.914   6.180  19.947  0.00  0.00    +0.000 A 
ATOM      5  C   UNL     1       2.699   7.156  18.963  0.00  0.00    +0.000 A 
ATOM      6  C   UNL     1       3.378   7.073  17.751  0.00  0.00    +0.000 A 
ENDROOT
BRANCH   1   8
ATOM      7  O   UNL     1       5.085   7.046  15.639  0.00  0.00    +0.000 OA
ATOM      8  C   UNL     1       4.964   5.976  16.221  0.00  0.00    +0.000 C 
ATOM      9  N   UNL     1       5.352   4.729  15.759  0.00  0.00    +0.000 N 
ATOM     10  H   UNL     1       5.021   3.918  16.268  0.00  0.00    +0.000 HD
BRANCH   9  11
ATOM     11  C   UNL     1       5.995   4.488  14.524  0.00  0.00    +0.000 A 
ATOM     12  C   UNL     1       7.175   5.138  14.145  0.00  0.00    +0.000 A 
ATOM     13  C   UNL     1       7.760   4.911  12.897  0.00  0.00    +0.000 A 
ATOM     14  C   UNL     1       7.172   4.021  12.006  0.00  0.00    +0.000 A 
ATOM     15  C   UNL     1       6.002   3.351  12.383  0.00  0.00    +0.000 A 
ATOM     16  C   UNL     1       5.415   3.570  13.643  0.00  0.00    +0.000 A 
BRANCH  15  17
ATOM     17  N   UNL     1       5.371   2.424  11.437  0.00  0.00    +0.000 N 
ATOM     18  O   UNL     1       4.243   2.712  11.012  0.00  0.00    +0.000 OA
ATOM     19  O   UNL     1       6.003   1.406  11.122  0.00  0.00    +0.000 OA
ENDBRANCH  15  17
ENDBRANCH   9  11
ENDBRANCH   1   8
BRANCH   5  20
ATOM     20  C   UNL     1       1.807   8.297  19.291  0.00  0.00    +0.000 C 
ATOM     21  O   UNL     1       1.433   8.386  20.456  0.00  0.00    +0.000 OA
ATOM     22  N   UNL     1       1.420   9.115  18.238  0.00  0.00    +0.000 N 
ATOM     23  H   UNL     1       1.646   8.815  17.298  0.00  0.00    +0.000 HD
BRANCH  22  24
ATOM     24  C   UNL     1       0.555  10.232  18.361  0.00  0.00    +0.000 A 
ATOM     25  C   UNL     1       1.013  11.500  18.735  0.00  0.00    +0.000 A 
ATOM     26  C   UNL     1       0.132  12.572  18.902  0.00  0.00    +0.000 A 
ATOM     27  C   UNL     1      -1.229  12.392  18.690  0.00  0.00    +0.000 A 
ATOM     28  C   UNL     1      -1.695  11.135  18.289  0.00  0.00    +0.000 A 
ATOM     29  C   UNL     1      -0.810  10.056  18.107  0.00  0.00    +0.000 A 
BRANCH  28  30
ATOM     30  N   UNL     1      -3.136  10.941  18.084  0.00  0.00    +0.000 N 
ATOM     31  O   UNL     1      -3.517   9.843  17.653  0.00  0.00    +0.000 OA
ATOM     32  O   UNL     1      -3.887  11.890  18.350  0.00  0.00    +0.000 OA
ENDBRANCH  28  30
ENDBRANCH  22  24
ENDBRANCH   5  20
TORSDOF 6
ENDMDL
MODEL 2
REMARK VINA RESULT:      -8.5      0.369      9.852
REMARK  Name = 
REMARK  6 active torsions:
REMARK  status: ('A' for Active; 'I' for Inactive)
REMARK    1  A    between atoms: C_2  and  C_13
REMARK    2  A    between atoms: N_3  and  C_4
REMARK    3  A    between atoms: C_8  and  N_9
REMARK    4  A    between atoms: C_17  and  C_18
REMARK    5  A    between atoms: N_20  and  C_21
REMARK    6  A    between atoms: C_25  and  N_26
REMARK                            x       y       z     vdW  Elec       q    Type
REMARK                         _______ _______ _______ _____ _____    ______ ____
ROOT
ATOM      1  C   UNL     1       2.609   7.060  19.135  0.00  0.00    +0.000 A 
ATOM      2  C   UNL     1       2.693   5.950  19.984  0.00  0.00    +0.000 A 
ATOM      3  C   UNL     1       3.488   4.865  19.619  0.00  0.00    +0.000 A 
ATOM      4  C   UNL     1       4.196   4.896  18.417  0.00  0.00    +0.000 A 
ATOM      5  C   UNL     1       4.117   6.010  17.568  0.00  0.00    +0.000 A 
ATOM      6  C   UNL     1       3.308   7.086  17.919  0.00  0.00    +0.000 A 
ENDROOT
BRANCH   1   8
ATOM      7  O   UNL     1       1.345   8.329  20.594  0.00  0.00    +0.000 OA
ATOM      8  C   UNL     1       1.737   8.218  19.439  0.00  0.00    +0.000 C 
ATOM      9  N   UNL     1       1.383   9.011  18.360  0.00  0.00    +0.000 N 
ATOM     10  H   UNL     1       1.641   8.686  17.436  0.00  0.00    +0.000 HD
BRANCH   9  11
ATOM     11  C   UNL     1       0.513  10.123  18.424  0.00  0.00    +0.000 A 
ATOM     12  C   UNL     1       0.861  11.321  19.059  0.00  0.00    +0.000 A 
ATOM     13  C   UNL     1      -0.039  12.385  19.145  0.00  0.00    +0.000 A 
ATOM     14  C   UNL     1      -1.307  12.268  18.588  0.00  0.00    +0.000 A 
ATOM     15  C   UNL     1      -1.658  11.082  17.933  0.00  0.00    +0.000 A 
ATOM     16  C   UNL     1      -0.751  10.011  17.836  0.00  0.00    +0.000 A 
BRANCH  15  17
ATOM     17  N   UNL     1      -3.002  10.951  17.360  0.00  0.00    +0.000 N 
ATOM     18  O   UNL     1      -3.932  11.545  17.924  0.00  0.00    +0.000 OA
ATOM     19  O   UNL     1      -3.128  10.251  16.346  0.00  0.00    +0.000 OA
ENDBRANCH  15  17
ENDBRANCH   9  11
ENDBRANCH   1   8
BRANCH   5  20
ATOM     20  C   UNL     1       4.843   5.957  16.275  0.00  0.00    +0.000 C 
ATOM     21  O   UNL     1       5.000   7.023  15.686  0.00  0.00    +0.000 OA
ATOM     22  N   UNL     1       5.215   4.702  15.813  0.00  0.00    +0.000 N 
ATOM     23  H   UNL     1       4.855   3.891  16.303  0.00  0.00    +0.000 HD
BRANCH  22  24
ATOM     24  C   UNL     1       5.891   4.459  14.591  0.00  0.00    +0.000 A 
ATOM     25  C   UNL     1       7.087   5.102  14.252  0.00  0.00    +0.000 A 
ATOM     26  C   UNL     1       7.705   4.886  13.018  0.00  0.00    +0.000 A 
ATOM     27  C   UNL     1       7.135   4.014  12.098  0.00  0.00    +0.000 A 
ATOM     28  C   UNL     1       5.953   3.345  12.437  0.00  0.00    +0.000 A 
ATOM     29  C   UNL     1       5.335   3.549  13.684  0.00  0.00    +0.000 A 
BRANCH  28  30
ATOM     30  N   UNL     1       5.342   2.439  11.457  0.00  0.00    +0.000 N 
ATOM     31  O   UNL     1       5.961   1.407  11.158  0.00  0.00    +0.000 OA
ATOM     32  O   UNL     1       4.244   2.761  10.983  0.00  0.00    +0.000 OA
ENDBRANCH  28  30
ENDBRANCH  22  24
ENDBRANCH   5  20
TORSDOF 6
ENDMDL
MODEL 3
REMARK VINA RESULT:      -8.4      1.140      9.924
REMARK  Name = 
REMARK  6 active torsions:
REMARK  status: ('A' for Active; 'I' for Inactive)
REMARK    1  A    between atoms: C_2  and  C_13
REMARK    2  A    between atoms: N_3  and  C_4
REMARK    3  A    between atoms: C_8  and  N_9
REMARK    4  A    between atoms: C_17  and  C_18
REMARK    5  A    between atoms: N_20  and  C_21
REMARK    6  A    between atoms: C_25  and  N_26
REMARK                            x       y       z     vdW  Elec       q    Type
REMARK                         _______ _______ _______ _____ _____    ______ ____
ROOT
ATOM      1  C   UNL     1       2.725   7.275  18.633  0.00  0.00    +0.000 A 
ATOM      2  C   UNL     1       2.489   6.573  19.821  0.00  0.00    +0.000 A 
ATOM      3  C   UNL     1       3.145   5.364  20.045  0.00  0.00    +0.000 A 
ATOM      4  C   UNL     1       4.033   4.867  19.090  0.00  0.00    +0.000 A 
ATOM      5  C   UNL     1       4.274   5.573  17.902  0.00  0.00    +0.000 A 
ATOM      6  C   UNL     1       3.605   6.769  17.665  0.00  0.00    +0.000 A 
ENDROOT
BRANCH   1   8
ATOM      7  O   UNL     1       2.287   9.065  17.241  0.00  0.00    +0.000 OA
ATOM      8  C   UNL     1       2.016   8.534  18.310  0.00  0.00    +0.000 C 
ATOM      9  N   UNL     1       1.179   9.030  19.296  0.00  0.00    +0.000 N 
ATOM     10  H   UNL     1       1.196   8.571  20.199  0.00  0.00    +0.000 HD
BRANCH   9  11
ATOM     11  C   UNL     1       0.461  10.244  19.213  0.00  0.00    +0.000 A 
ATOM     12  C   UNL     1       0.846  11.400  19.902  0.00  0.00    +0.000 A 
ATOM     13  C   UNL     1       0.088  12.571  19.834  0.00  0.00    +0.000 A 
ATOM     14  C   UNL     1      -1.069  12.606  19.066  0.00  0.00    +0.000 A 
ATOM     15  C   UNL     1      -1.452  11.463  18.357  0.00  0.00    +0.000 A 
ATOM     16  C   UNL     1      -0.687  10.283  18.415  0.00  0.00    +0.000 A 
BRANCH  15  17
ATOM     17  N   UNL     1      -2.683  11.492  17.559  0.00  0.00    +0.000 N 
ATOM     18  O   UNL     1      -3.741  11.775  18.140  0.00  0.00    +0.000 OA
ATOM     19  O   UNL     1      -2.592  11.230  16.352  0.00  0.00    +0.000 OA
ENDBRANCH  15  17
ENDBRANCH   9  11
ENDBRANCH   1   8
BRANCH   5  20
ATOM     20  C   UNL     1       5.181   4.962  16.898  0.00  0.00    +0.000 C 
ATOM     21  O   UNL     1       6.086   4.255  17.330  0.00  0.00    +0.000 OA
ATOM     22  N   UNL     1       4.969   5.305  15.569  0.00  0.00    +0.000 N 
ATOM     23  H   UNL     1       4.310   6.048  15.371  0.00  0.00    +0.000 HD
BRANCH  22  24
ATOM     24  C   UNL     1       5.750   4.840  14.482  0.00  0.00    +0.000 A 
ATOM     25  C   UNL     1       7.044   5.310  14.229  0.00  0.00    +0.000 A 
ATOM     26  C   UNL     1       7.772   4.876  13.118  0.00  0.00    +0.000 A 
ATOM     27  C   UNL     1       7.217   3.953  12.240  0.00  0.00    +0.000 A 
ATOM     28  C   UNL     1       5.934   3.456  12.497  0.00  0.00    +0.000 A 
ATOM     29  C   UNL     1       5.202   3.880  13.622  0.00  0.00    +0.000 A 
BRANCH  28  30
ATOM     30  N   UNL     1       5.341   2.497  11.558  0.00  0.00    +0.000 N 
ATOM     31  O   UNL     1       4.208   2.743  11.117  0.00  0.00    +0.000 OA
ATOM     32  O   UNL     1       6.006   1.493  11.265  0.00  0.00    +0.000 OA
ENDBRANCH  28  30
ENDBRANCH  22  24
ENDBRANCH   5  20
TORSDOF 6
ENDMDL
MODEL 4
REMARK VINA RESULT:      -8.4      1.157      1.163
REMARK  Name = 
REMARK  6 active torsions:
REMARK  status: ('A' for Active; 'I' for Inactive)
REMARK    1  A    between atoms: C_2  and  C_13
REMARK    2  A    between atoms: N_3  and  C_4
REMARK    3  A    between atoms: C_8  and  N_9
REMARK    4  A    between atoms: C_17  and  C_18
REMARK    5  A    between atoms: N_20  and  C_21
REMARK    6  A    between atoms: C_25  and  N_26
REMARK                            x       y       z     vdW  Elec       q    Type
REMARK                         _______ _______ _______ _____ _____    ______ ____
ROOT
ATOM      1  C   UNL     1       4.220   5.435  17.946  0.00  0.00    +0.000 A 
ATOM      2  C   UNL     1       4.026   4.868  19.211  0.00  0.00    +0.000 A 
ATOM      3  C   UNL     1       3.177   5.496  20.121  0.00  0.00    +0.000 A 
ATOM      4  C   UNL     1       2.524   6.676  19.762  0.00  0.00    +0.000 A 
ATOM      5  C   UNL     1       2.714   7.241  18.493  0.00  0.00    +0.000 A 
ATOM      6  C   UNL     1       3.577   6.630  17.589  0.00  0.00    +0.000 A 
ENDROOT
BRANCH   1   8
ATOM      7  O   UNL     1       6.086   4.189  17.397  0.00  0.00    +0.000 OA
ATOM      8  C   UNL     1       5.153   4.848  16.956  0.00  0.00    +0.000 C 
ATOM      9  N   UNL     1       4.922   5.181  15.632  0.00  0.00    +0.000 N 
ATOM     10  H   UNL     1       4.216   5.883  15.442  0.00  0.00    +0.000 HD
BRANCH   9  11
ATOM     11  C   UNL     1       5.729   4.778  14.544  0.00  0.00    +0.000 A 
ATOM     12  C   UNL     1       7.010   5.296  14.319  0.00  0.00    +0.000 A 
ATOM     13  C   UNL     1       7.763   4.911  13.208  0.00  0.00    +0.000 A 
ATOM     14  C   UNL     1       7.246   3.991  12.303  0.00  0.00    +0.000 A 
ATOM     15  C   UNL     1       5.975   3.452  12.529  0.00  0.00    +0.000 A 
ATOM     16  C   UNL     1       5.216   3.831  13.652  0.00  0.00    +0.000 A 
BRANCH  15  17
ATOM     17  N   UNL     1       5.420   2.495  11.566  0.00  0.00    +0.000 N 
ATOM     18  O   UNL     1       4.286   2.716  11.119  0.00  0.00    +0.000 OA
ATOM     19  O   UNL     1       6.119   1.519  11.258  0.00  0.00    +0.000 OA
ENDBRANCH  15  17
ENDBRANCH   9  11
ENDBRANCH   1   8
BRANCH   5  20
ATOM     20  C   UNL     1       2.041   8.530  18.193  0.00  0.00    +0.000 C 
ATOM     21  O   UNL     1       2.402   9.118  17.178  0.00  0.00    +0.000 OA
ATOM     22  N   UNL     1       1.118   8.989  19.124  0.00  0.00    +0.000 N 
ATOM     23  H   UNL     1       1.057   8.501  20.010  0.00  0.00    +0.000 HD
BRANCH  22  24
ATOM     24  C   UNL     1       0.401  10.207  19.016  0.00  0.00    +0.000 A 
ATOM     25  C   UNL     1       0.784  11.369  19.696  0.00  0.00    +0.000 A 
ATOM     26  C   UNL     1       0.028  12.541  19.616  0.00  0.00    +0.000 A 
ATOM     27  C   UNL     1      -1.128  12.572  18.845  0.00  0.00    +0.000 A 
ATOM     28  C   UNL     1      -1.507  11.424  18.141  0.00  0.00    +0.000 A 
ATOM     29  C   UNL     1      -0.741  10.244  18.207  0.00  0.00    +0.000 A 
BRANCH  28  30
ATOM     30  N   UNL     1      -2.738  11.452  17.343  0.00  0.00    +0.000 N 
ATOM     31  O   UNL     1      -2.655  11.169  16.138  0.00  0.00    +0.000 OA
ATOM     32  O   UNL     1      -3.790  11.762  17.920  0.00  0.00    +0.000 OA
ENDBRANCH  28  30
ENDBRANCH  22  24
ENDBRANCH   5  20
TORSDOF 6
ENDMDL
MODEL 5
REMARK VINA RESULT:      -8.3      1.083      1.186
REMARK  Name = 
REMARK  6 active torsions:
REMARK  status: ('A' for Active; 'I' for Inactive)
REMARK    1  A    between atoms: C_2  and  C_13
REMARK    2  A    between atoms: N_3  and  C_4
REMARK    3  A    between atoms: C_8  and  N_9
REMARK    4  A    between atoms: C_17  and  C_18
REMARK    5  A    between atoms: N_20  and  C_21
REMARK    6  A    between atoms: C_25  and  N_26
REMARK                            x       y       z     vdW  Elec       q    Type
REMARK                         _______ _______ _______ _____ _____    ______ ____
ROOT
ATOM      1  C   UNL     1       4.277   6.327  17.567  0.00  0.00    +0.000 A 
ATOM      2  C   UNL     1       4.156   5.481  18.676  0.00  0.00    +0.000 A 
ATOM      3  C   UNL     1       3.239   5.791  19.678  0.00  0.00    +0.000 A 
ATOM      4  C   UNL     1       2.448   6.935  19.567  0.00  0.00    +0.000 A 
ATOM      5  C   UNL     1       2.565   7.781  18.454  0.00  0.00    +0.000 A 
ATOM      6  C   UNL     1       3.494   7.486  17.461  0.00  0.00    +0.000 A 
ENDROOT
BRANCH   1   8
ATOM      7  O   UNL     1       6.210   6.866  16.423  0.00  0.00    +0.000 OA
ATOM      8  C   UNL     1       5.272   6.083  16.497  0.00  0.00    +0.000 C 
ATOM      9  N   UNL     1       4.990   5.039  15.632  0.00  0.00    +0.000 N 
ATOM     10  H   UNL     1       4.083   4.595  15.714  0.00  0.00    +0.000 HD
BRANCH   9  11
ATOM     11  C   UNL     1       5.775   4.681  14.513  0.00  0.00    +0.000 A 
ATOM     12  C   UNL     1       7.038   5.233  14.266  0.00  0.00    +0.000 A 
ATOM     13  C   UNL     1       7.768   4.892  13.126  0.00  0.00    +0.000 A 
ATOM     14  C   UNL     1       7.247   3.983  12.213  0.00  0.00    +0.000 A 
ATOM     15  C   UNL     1       5.994   3.410  12.460  0.00  0.00    +0.000 A 
ATOM     16  C   UNL     1       5.259   3.744  13.612  0.00  0.00    +0.000 A 
BRANCH  15  17
ATOM     17  N   UNL     1       5.435   2.463  11.489  0.00  0.00    +0.000 N 
ATOM     18  O   UNL     1       4.299   2.690  11.050  0.00  0.00    +0.000 OA
ATOM     19  O   UNL     1       6.132   1.491  11.167  0.00  0.00    +0.000 OA
ENDBRANCH  15  17
ENDBRANCH   9  11
ENDBRANCH   1   8
BRANCH   5  20
ATOM     20  C   UNL     1       1.741   9.015  18.423  0.00  0.00    +0.000 C 
ATOM     21  O   UNL     1       1.983   9.817  17.525  0.00  0.00    +0.000 OA
ATOM     22  N   UNL     1       0.823   9.185  19.451  0.00  0.00    +0.000 N 
ATOM     23  H   UNL     1       0.862   8.539  20.231  0.00  0.00    +0.000 HD
BRANCH  22  24
ATOM     24  C   UNL     1      -0.027  10.309  19.596  0.00  0.00    +0.000 A 
ATOM     25  C   UNL     1       0.207  11.313  20.544  0.00  0.00    +0.000 A 
ATOM     26  C   UNL     1      -0.677  12.382  20.704  0.00  0.00    +0.000 A 
ATOM     27  C   UNL     1      -1.814  12.471  19.909  0.00  0.00    +0.000 A 
ATOM     28  C   UNL     1      -2.044  11.487  18.940  0.00  0.00    +0.000 A 
ATOM     29  C   UNL     1      -1.150  10.414  18.766  0.00  0.00    +0.000 A 
BRANCH  28  30
ATOM     30  N   UNL     1      -3.255  11.570  18.115  0.00  0.00    +0.000 N 
ATOM     31  O   UNL     1      -4.304  11.943  18.661  0.00  0.00    +0.000 OA
ATOM     32  O   UNL     1      -3.159  11.257  16.920  0.00  0.00    +0.000 OA
ENDBRANCH  28  30
ENDBRANCH  22  24
ENDBRANCH   5  20
TORSDOF 6
ENDMDL
MODEL 6
REMARK VINA RESULT:      -8.3      1.753      2.233
REMARK  Name = 
REMARK  6 active torsions:
REMARK  status: ('A' for Active; 'I' for Inactive)
REMARK    1  A    between atoms: C_2  and  C_13
REMARK    2  A    between atoms: N_3  and  C_4
REMARK    3  A    between atoms: C_8  and  N_9
REMARK    4  A    between atoms: C_17  and  C_18
REMARK    5  A    between atoms: N_20  and  C_21
REMARK    6  A    between atoms: C_25  and  N_26
REMARK                            x       y       z     vdW  Elec       q    Type
REMARK                         _______ _______ _______ _____ _____    ______ ____
ROOT
ATOM      1  C   UNL     1       4.095   5.970  17.572  0.00  0.00    +0.000 A 
ATOM      2  C   UNL     1       4.209   4.942  18.516  0.00  0.00    +0.000 A 
ATOM      3  C   UNL     1       3.508   5.033  19.717  0.00  0.00    +0.000 A 
ATOM      4  C   UNL     1       2.698   6.141  19.967  0.00  0.00    +0.000 A 
ATOM      5  C   UNL     1       2.580   7.169  19.020  0.00  0.00    +0.000 A 
ATOM      6  C   UNL     1       3.293   7.092  17.828  0.00  0.00    +0.000 A 
ENDROOT
BRANCH   1   8
ATOM      7  O   UNL     1       5.034   7.039  15.752  0.00  0.00    +0.000 OA
ATOM      8  C   UNL     1       4.858   5.959  16.303  0.00  0.00    +0.000 C 
ATOM      9  N   UNL     1       5.221   4.712  15.822  0.00  0.00    +0.000 N 
ATOM     10  H   UNL     1       4.847   3.900  16.299  0.00  0.00    +0.000 HD
BRANCH   9  11
ATOM     11  C   UNL     1       5.896   4.479  14.603  0.00  0.00    +0.000 A 
ATOM     12  C   UNL     1       7.095   5.119  14.267  0.00  0.00    +0.000 A 
ATOM     13  C   UNL     1       7.712   4.902  13.034  0.00  0.00    +0.000 A 
ATOM     14  C   UNL     1       7.140   4.031  12.114  0.00  0.00    +0.000 A 
ATOM     15  C   UNL     1       5.952   3.371  12.448  0.00  0.00    +0.000 A 
ATOM     16  C   UNL     1       5.331   3.580  13.693  0.00  0.00    +0.000 A 
BRANCH  15  17
ATOM     17  N   UNL     1       5.337   2.465  11.471  0.00  0.00    +0.000 N 
ATOM     18  O   UNL     1       5.972   1.453  11.142  0.00  0.00    +0.000 OA
ATOM     19  O   UNL     1       4.219   2.767  11.032  0.00  0.00    +0.000 OA
ENDBRANCH  15  17
ENDBRANCH   9  11
ENDBRANCH   1   8
BRANCH   5  20
ATOM     20  C   UNL     1       1.752   8.350  19.370  0.00  0.00    +0.000 C 
ATOM     21  O   UNL     1       1.364   8.428  20.531  0.00  0.00    +0.000 OA
ATOM     22  N   UNL     1       1.431   9.222  18.336  0.00  0.00    +0.000 N 
ATOM     23  H   UNL     1       1.655   8.937  17.391  0.00  0.00    +0.000 HD
BRANCH  22  24
ATOM     24  C   UNL     1       0.633  10.384  18.480  0.00  0.00    +0.000 A 
ATOM     25  C   UNL     1      -0.738  10.395  18.197  0.00  0.00    +0.000 A 
ATOM     26  C   UNL     1      -1.491  11.567  18.293  0.00  0.00    +0.000 A 
ATOM     27  C   UNL     1      -0.884  12.755  18.683  0.00  0.00    +0.000 A 
ATOM     28  C   UNL     1       0.481  12.750  18.994  0.00  0.00    +0.000 A 
ATOM     29  C   UNL     1       1.242  11.568  18.911  0.00  0.00    +0.000 A 
BRANCH  28  30
ATOM     30  N   UNL     1       1.126  14.008  19.386  0.00  0.00    +0.000 N 
ATOM     31  O   UNL     1       1.845  14.000  20.396  0.00  0.00    +0.000 OA
ATOM     32  O   UNL     1       0.910  15.008  18.687  0.00  0.00    +0.000 OA
ENDBRANCH  28  30
ENDBRANCH  22  24
ENDBRANCH   5  20
TORSDOF 6
ENDMDL
MODEL 7
REMARK VINA RESULT:      -8.3      2.298     10.461
REMARK  Name = 
REMARK  6 active torsions:
REMARK  status: ('A' for Active; 'I' for Inactive)
REMARK    1  A    between atoms: C_2  and  C_13
REMARK    2  A    between atoms: N_3  and  C_4
REMARK    3  A    between atoms: C_8  and  N_9
REMARK    4  A    between atoms: C_17  and  C_18
REMARK    5  A    between atoms: N_20  and  C_21
REMARK    6  A    between atoms: C_25  and  N_26
REMARK                            x       y       z     vdW  Elec       q    Type
REMARK                         _______ _______ _______ _____ _____    ______ ____
ROOT
ATOM      1  C   UNL     1       2.666   6.907  19.315  0.00  0.00    +0.000 A 
ATOM      2  C   UNL     1       2.757   5.771  20.128  0.00  0.00    +0.000 A 
ATOM      3  C   UNL     1       3.544   4.696  19.718  0.00  0.00    +0.000 A 
ATOM      4  C   UNL     1       4.237   4.763  18.509  0.00  0.00    +0.000 A 
ATOM      5  C   UNL     1       4.151   5.903  17.697  0.00  0.00    +0.000 A 
ATOM      6  C   UNL     1       3.350   6.970  18.091  0.00  0.00    +0.000 A 
ENDROOT
BRANCH   1   8
ATOM      7  O   UNL     1       1.471   8.803  18.752  0.00  0.00    +0.000 OA
ATOM      8  C   UNL     1       1.802   8.058  19.666  0.00  0.00    +0.000 C 
ATOM      9  N   UNL     1       1.529   8.223  21.014  0.00  0.00    +0.000 N 
ATOM     10  H   UNL     1       2.023   7.628  21.668  0.00  0.00    +0.000 HD
BRANCH   9  11
ATOM     11  C   UNL     1       0.779   9.287  21.563  0.00  0.00    +0.000 A 
ATOM     12  C   UNL     1      -0.075   9.126  22.660  0.00  0.00    +0.000 A 
ATOM     13  C   UNL     1      -0.837  10.188  23.149  0.00  0.00    +0.000 A 
ATOM     14  C   UNL     1      -0.751  11.439  22.549  0.00  0.00    +0.000 A 
ATOM     15  C   UNL     1       0.115  11.617  21.464  0.00  0.00    +0.000 A 
ATOM     16  C   UNL     1       0.891  10.551  20.974  0.00  0.00    +0.000 A 
BRANCH  15  17
ATOM     17  N   UNL     1       0.193  12.932  20.819  0.00  0.00    +0.000 N 
ATOM     18  O   UNL     1       0.923  13.044  19.823  0.00  0.00    +0.000 OA
ATOM     19  O   UNL     1      -0.473  13.853  21.309  0.00  0.00    +0.000 OA
ENDBRANCH  15  17
ENDBRANCH   9  11
ENDBRANCH   1   8
BRANCH   5  20
ATOM     20  C   UNL     1       4.861   5.889  16.393  0.00  0.00    +0.000 C 
ATOM     21  O   UNL     1       4.999   6.970  15.828  0.00  0.00    +0.000 OA
ATOM     22  N   UNL     1       5.240   4.648  15.897  0.00  0.00    +0.000 N 
ATOM     23  H   UNL     1       4.894   3.823  16.371  0.00  0.00    +0.000 HD
BRANCH  22  24
ATOM     24  C   UNL     1       5.902   4.442  14.661  0.00  0.00    +0.000 A 
ATOM     25  C   UNL     1       7.087   5.106  14.322  0.00  0.00    +0.000 A 
ATOM     26  C   UNL     1       7.690   4.926  13.075  0.00  0.00    +0.000 A 
ATOM     27  C   UNL     1       7.118   4.070  12.142  0.00  0.00    +0.000 A 
ATOM     28  C   UNL     1       5.947   3.381  12.480  0.00  0.00    +0.000 A 
ATOM     29  C   UNL     1       5.343   3.548  13.740  0.00  0.00    +0.000 A 
BRANCH  28  30
ATOM     30  N   UNL     1       5.333   2.492  11.487  0.00  0.00    +0.000 N 
ATOM     31  O   UNL     1       5.960   1.476  11.152  0.00  0.00    +0.000 OA
ATOM     32  O   UNL     1       4.224   2.812  11.037  0.00  0.00    +0.000 OA
ENDBRANCH  28  30
ENDBRANCH  22  24
ENDBRANCH   5  20
TORSDOF 6
ENDMDL
MODEL 8
REMARK VINA RESULT:      -8.3      3.761      5.579
REMARK  Name = 
REMARK  6 active torsions:
REMARK  status: ('A' for Active; 'I' for Inactive)
REMARK    1  A    between atoms: C_2  and  C_13
REMARK    2  A    between atoms: N_3  and  C_4
REMARK    3  A    between atoms: C_8  and  N_9
REMARK    4  A    between atoms: C_17  and  C_18
REMARK    5  A    between atoms: N_20  and  C_21
REMARK    6  A    between atoms: C_25  and  N_26
REMARK                            x       y       z     vdW  Elec       q    Type
REMARK                         _______ _______ _______ _____ _____    ______ ____
ROOT
ATOM      1  C   UNL     1       1.599   8.559  19.781  0.00  0.00    +0.000 A 
ATOM      2  C   UNL     1       1.069   7.929  20.913  0.00  0.00    +0.000 A 
ATOM      3  C   UNL     1       0.473   8.699  21.911  0.00  0.00    +0.000 A 
ATOM      4  C   UNL     1       0.406  10.085  21.772  0.00  0.00    +0.000 A 
ATOM      5  C   UNL     1       0.934  10.717  20.635  0.00  0.00    +0.000 A 
ATOM      6  C   UNL     1       1.547   9.954  19.647  0.00  0.00    +0.000 A 
ENDROOT
BRANCH   1   8
ATOM      7  O   UNL     1       2.150   8.202  17.566  0.00  0.00    +0.000 OA
ATOM      8  C   UNL     1       2.295   7.802  18.715  0.00  0.00    +0.000 C 
ATOM      9  N   UNL     1       2.971   6.663  19.120  0.00  0.00    +0.000 N 
ATOM     10  H   UNL     1       2.849   6.364  20.080  0.00  0.00    +0.000 HD
BRANCH   9  11
ATOM     11  C   UNL     1       3.644   5.771  18.255  0.00  0.00    +0.000 A 
ATOM     12  C   UNL     1       3.039   4.625  17.727  0.00  0.00    +0.000 A 
ATOM     13  C   UNL     1       3.747   3.740  16.912  0.00  0.00    +0.000 A 
ATOM     14  C   UNL     1       5.078   3.993  16.605  0.00  0.00    +0.000 A 
ATOM     15  C   UNL     1       5.688   5.146  17.110  0.00  0.00    +0.000 A 
ATOM     16  C   UNL     1       4.976   6.046  17.925  0.00  0.00    +0.000 A 
BRANCH  15  17
ATOM     17  N   UNL     1       7.099   5.406  16.801  0.00  0.00    +0.000 N 
ATOM     18  O   UNL     1       7.422   6.566  16.509  0.00  0.00    +0.000 OA
ATOM     19  O   UNL     1       7.883   4.448  16.848  0.00  0.00    +0.000 OA
ENDBRANCH  15  17
ENDBRANCH   9  11
ENDBRANCH   1   8
BRANCH   5  20
ATOM     20  C   UNL     1       0.888  12.199  20.574  0.00  0.00    +0.000 C 
ATOM     21  O   UNL     1       0.936  12.797  21.645  0.00  0.00    +0.000 OA
ATOM     22  N   UNL     1       0.722  12.772  19.320  0.00  0.00    +0.000 N 
ATOM     23  H   UNL     1       0.503  12.158  18.545  0.00  0.00    +0.000 HD
BRANCH  22  24
ATOM     24  C   UNL     1       0.632  14.165  19.075  0.00  0.00    +0.000 A 
ATOM     25  C   UNL     1      -0.574  14.870  19.171  0.00  0.00    +0.000 A 
ATOM     26  C   UNL     1      -0.646  16.232  18.870  0.00  0.00    +0.000 A 
ATOM     27  C   UNL     1       0.495  16.918  18.472  0.00  0.00    +0.000 A 
ATOM     28  C   UNL     1       1.711  16.230  18.398  0.00  0.00    +0.000 A 
ATOM     29  C   UNL     1       1.792  14.860  18.713  0.00  0.00    +0.000 A 
BRANCH  28  30
ATOM     30  N   UNL     1       2.912  16.951  17.959  0.00  0.00    +0.000 N 
ATOM     31  O   UNL     1       3.841  17.078  18.771  0.00  0.00    +0.000 OA
ATOM     32  O   UNL     1       2.925  17.394  16.802  0.00  0.00    +0.000 OA
ENDBRANCH  28  30
ENDBRANCH  22  24
ENDBRANCH   5  20
TORSDOF 6
ENDMDL
MODEL 9
REMARK VINA RESULT:      -8.3      3.824      5.816
REMARK  Name = 
REMARK  6 active torsions:
REMARK  status: ('A' for Active; 'I' for Inactive)
REMARK    1  A    between atoms: C_2  and  C_13
REMARK    2  A    between atoms: N_3  and  C_4
REMARK    3  A    between atoms: C_8  and  N_9
REMARK    4  A    between atoms: C_17  and  C_18
REMARK    5  A    between atoms: N_20  and  C_21
REMARK    6  A    between atoms: C_25  and  N_26
REMARK                            x       y       z     vdW  Elec       q    Type
REMARK                         _______ _______ _______ _____ _____    ______ ____
ROOT
ATOM      1  C   UNL     1       1.555   8.845  19.395  0.00  0.00    +0.000 A 
ATOM      2  C   UNL     1       1.276   8.501  20.722  0.00  0.00    +0.000 A 
ATOM      3  C   UNL     1       0.577   9.396  21.530  0.00  0.00    +0.000 A 
ATOM      4  C   UNL     1       0.159  10.621  21.010  0.00  0.00    +0.000 A 
ATOM      5  C   UNL     1       0.434  10.965  19.678  0.00  0.00    +0.000 A 
ATOM      6  C   UNL     1       1.149  10.083  18.874  0.00  0.00    +0.000 A 
ENDROOT
BRANCH   1   8
ATOM      7  O   UNL     1       2.527   8.353  17.358  0.00  0.00    +0.000 OA
ATOM      8  C   UNL     1       2.343   7.963  18.503  0.00  0.00    +0.000 C 
ATOM      9  N   UNL     1       2.717   6.740  19.035  0.00  0.00    +0.000 N 
ATOM     10  H   UNL     1       2.335   6.486  19.938  0.00  0.00    +0.000 HD
BRANCH   9  11
ATOM     11  C   UNL     1       3.416   5.732  18.333  0.00  0.00    +0.000 A 
ATOM     12  C   UNL     1       2.768   4.687  17.663  0.00  0.00    +0.000 A 
ATOM     13  C   UNL     1       3.490   3.681  17.018  0.00  0.00    +0.000 A 
ATOM     14  C   UNL     1       4.880   3.709  17.027  0.00  0.00    +0.000 A 
ATOM     15  C   UNL     1       5.537   4.759  17.676  0.00  0.00    +0.000 A 
ATOM     16  C   UNL     1       4.814   5.780  18.320  0.00  0.00    +0.000 A 
BRANCH  15  17
ATOM     17  N   UNL     1       7.004   4.781  17.701  0.00  0.00    +0.000 N 
ATOM     18  O   UNL     1       7.561   4.909  18.801  0.00  0.00    +0.000 OA
ATOM     19  O   UNL     1       7.598   4.671  16.620  0.00  0.00    +0.000 OA
ENDBRANCH  15  17
ENDBRANCH   9  11
ENDBRANCH   1   8
BRANCH   5  20
ATOM     20  C   UNL     1       0.018  12.308  19.202  0.00  0.00    +0.000 C 
ATOM     21  O   UNL     1      -0.757  12.339  18.251  0.00  0.00    +0.000 OA
ATOM     22  N   UNL     1       0.599  13.404  19.825  0.00  0.00    +0.000 N 
ATOM     23  H   UNL     1       1.366  13.234  20.464  0.00  0.00    +0.000 HD
BRANCH  22  24
ATOM     24  C   UNL     1       0.340  14.756  19.486  0.00  0.00    +0.000 A 
ATOM     25  C   UNL     1      -0.854  15.402  19.826  0.00  0.00    +0.000 A 
ATOM     26  C   UNL     1      -1.106  16.718  19.431  0.00  0.00    +0.000 A 
ATOM     27  C   UNL     1      -0.161  17.416  18.690  0.00  0.00    +0.000 A 
ATOM     28  C   UNL     1       1.048  16.789  18.367  0.00  0.00    +0.000 A 
ATOM     29  C   UNL     1       1.313  15.468  18.773  0.00  0.00    +0.000 A 
BRANCH  28  30
ATOM     30  N   UNL     1       2.038  17.520  17.567  0.00  0.00    +0.000 N 
ATOM     31  O   UNL     1       1.627  18.407  16.805  0.00  0.00    +0.000 OA
ATOM     32  O   UNL     1       3.229  17.202  17.696  0.00  0.00    +0.000 OA
ENDBRANCH  28  30
ENDBRANCH  22  24
ENDBRANCH   5  20
TORSDOF 6
ENDMDL
