MODEL 1
REMARK VINA RESULT:      -8.4      0.000      0.000
REMARK  Name = 
REMARK  4 active torsions:
REMARK  status: ('A' for Active; 'I' for Inactive)
REMARK    1  A    between atoms: C_7  and  N_8
REMARK    2  A    between atoms: N_8  and  C_9
REMARK    3  A    between atoms: N_8  and  C_20
REMARK    4  A    between atoms: C_9  and  C_10
REMARK                            x       y       z     vdW  Elec       q    Type
REMARK                         _______ _______ _______ _____ _____    ______ ____
ROOT
ATOM      1  N   UNL     1       3.898   4.537  18.100  0.00  0.00    +0.000 N 
ENDROOT
BRANCH   1   8
ATOM      2  F   UNL     1       4.920   6.114  15.960  0.00  0.00    +0.000 F 
ATOM      3  C   UNL     1       5.648   5.968  17.084  0.00  0.00    +0.000 A 
ATOM      4  C   UNL     1       6.927   6.527  17.085  0.00  0.00    +0.000 A 
ATOM      5  C   UNL     1       7.724   6.428  18.217  0.00  0.00    +0.000 A 
ATOM      6  C   UNL     1       7.224   5.785  19.342  0.00  0.00    +0.000 A 
ATOM      7  C   UNL     1       5.943   5.211  19.321  0.00  0.00    +0.000 A 
ATOM      8  C   UNL     1       5.121   5.257  18.180  0.00  0.00    +0.000 A 
ENDBRANCH   1   8
BRANCH   1   9
ATOM      9  C   UNL     1       3.786   3.098  18.393  0.00  0.00    +0.000 C 
ATOM     10  C   UNL     1       2.939   2.711  19.644  0.00  0.00    +0.000 C 
ATOM     11  N   UNL     1       2.264   1.666  18.852  0.00  0.00    +0.000 NA
ATOM     12  C   UNL     1       2.648   2.370  17.619  0.00  0.00    +0.000 C 
ATOM     13  H   UNL     1       1.259   1.618  19.011  0.00  0.00    +0.000 HD
ENDBRANCH   1   9
BRANCH   1  14
ATOM     14  C   UNL     1       2.651   5.273  17.818  0.00  0.00    +0.000 C 
BRANCH  14  15
ATOM     15  C   UNL     1       2.508   6.651  18.438  0.00  0.00    +0.000 A 
ATOM     16  C   UNL     1       2.477   7.780  17.611  0.00  0.00    +0.000 A 
ATOM     17  C   UNL     1       1.954   8.989  18.081  0.00  0.00    +0.000 A 
ATOM     18  C   UNL     1       1.494   9.116  19.396  0.00  0.00    +0.000 A 
ATOM     19  C   UNL     1       0.851  10.291  19.828  0.00  0.00    +0.000 A 
ATOM     20  C   UNL     1       0.441  10.436  21.153  0.00  0.00    +0.000 A 
ATOM     21  C   UNL     1       0.681   9.410  22.060  0.00  0.00    +0.000 A 
ATOM     22  C   UNL     1       1.276   8.217  21.632  0.00  0.00    +0.000 A 
ATOM     23  C   UNL     1       1.663   8.037  20.289  0.00  0.00    +0.000 A 
ATOM     24  C   UNL     1       2.168   6.811  19.795  0.00  0.00    +0.000 A 
ENDBRANCH  14  15
ENDBRANCH   1  14
TORSDOF 4
ENDMDL
MODEL 2
REMARK VINA RESULT:      -8.3      1.995      3.888
REMARK  Name = 
REMARK  4 active torsions:
REMARK  status: ('A' for Active; 'I' for Inactive)
REMARK    1  A    between atoms: C_7  and  N_8
REMARK    2  A    between atoms: N_8  and  C_9
REMARK    3  A    between atoms: N_8  and  C_20
REMARK    4  A    between atoms: C_9  and  C_10
REMARK                            x       y       z     vdW  Elec       q    Type
REMARK                         _______ _______ _______ _____ _____    ______ ____
ROOT
ATOM      1  N   UNL     1       3.238   5.540  18.720  0.00  0.00    +0.000 N 
ENDROOT
BRANCH   1   8
ATOM      2  F   UNL     1       2.472   5.060  21.420  0.00  0.00    +0.000 F 
ATOM      3  C   UNL     1       2.001   4.261  20.444  0.00  0.00    +0.000 A 
ATOM      4  C   UNL     1       1.234   3.164  20.840  0.00  0.00    +0.000 A 
ATOM      5  C   UNL     1       0.703   2.308  19.885  0.00  0.00    +0.000 A 
ATOM      6  C   UNL     1       0.932   2.572  18.540  0.00  0.00    +0.000 A 
ATOM      7  C   UNL     1       1.721   3.667  18.156  0.00  0.00    +0.000 A 
ATOM      8  C   UNL     1       2.308   4.534  19.097  0.00  0.00    +0.000 A 
ENDBRANCH   1   8
BRANCH   1   9
ATOM      9  C   UNL     1       4.681   5.455  19.004  0.00  0.00    +0.000 C 
ATOM     10  C   UNL     1       5.261   4.023  19.217  0.00  0.00    +0.000 C 
ATOM     11  N   UNL     1       6.390   4.357  18.328  0.00  0.00    +0.000 NA
ATOM     12  C   UNL     1       5.587   5.439  17.736  0.00  0.00    +0.000 C 
ATOM     13  H   UNL     1       6.632   3.612  17.678  0.00  0.00    +0.000 HD
ENDBRANCH   1   9
BRANCH   1  14
ATOM     14  C   UNL     1       2.771   6.679  17.908  0.00  0.00    +0.000 C 
BRANCH  14  15
ATOM     15  C   UNL     1       2.280   7.905  18.658  0.00  0.00    +0.000 A 
ATOM     16  C   UNL     1       1.900   9.046  17.942  0.00  0.00    +0.000 A 
ATOM     17  C   UNL     1       1.084  10.015  18.534  0.00  0.00    +0.000 A 
ATOM     18  C   UNL     1       0.667   9.897  19.865  0.00  0.00    +0.000 A 
ATOM     19  C   UNL     1      -0.255  10.804  20.418  0.00  0.00    +0.000 A 
ATOM     20  C   UNL     1      -0.628  10.715  21.759  0.00  0.00    +0.000 A 
ATOM     21  C   UNL     1      -0.072   9.724  22.560  0.00  0.00    +0.000 A 
ATOM     22  C   UNL     1       0.810   8.786  22.010  0.00  0.00    +0.000 A 
ATOM     23  C   UNL     1       1.169   8.837  20.648  0.00  0.00    +0.000 A 
ATOM     24  C   UNL     1       1.971   7.847  20.031  0.00  0.00    +0.000 A 
ENDBRANCH  14  15
ENDBRANCH   1  14
TORSDOF 4
ENDMDL
MODEL 3
REMARK VINA RESULT:      -8.2      1.718      3.571
REMARK  Name = 
REMARK  4 active torsions:
REMARK  status: ('A' for Active; 'I' for Inactive)
REMARK    1  A    between atoms: C_7  and  N_8
REMARK    2  A    between atoms: N_8  and  C_9
REMARK    3  A    between atoms: N_8  and  C_20
REMARK    4  A    between atoms: C_9  and  C_10
REMARK                            x       y       z     vdW  Elec       q    Type
REMARK                         _______ _______ _______ _____ _____    ______ ____
ROOT
ATOM      1  N   UNL     1       3.384   5.614  18.461  0.00  0.00    +0.000 N 
ENDROOT
BRANCH   1   8
ATOM      2  F   UNL     1       2.472   3.459  16.838  0.00  0.00    +0.000 F 
ATOM      3  C   UNL     1       2.071   3.541  18.121  0.00  0.00    +0.000 A 
ATOM      4  C   UNL     1       1.133   2.600  18.551  0.00  0.00    +0.000 A 
ATOM      5  C   UNL     1       0.688   2.616  19.866  0.00  0.00    +0.000 A 
ATOM      6  C   UNL     1       1.202   3.564  20.741  0.00  0.00    +0.000 A 
ATOM      7  C   UNL     1       2.131   4.516  20.291  0.00  0.00    +0.000 A 
ATOM      8  C   UNL     1       2.576   4.555  18.957  0.00  0.00    +0.000 A 
ENDBRANCH   1   8
BRANCH   1   9
ATOM      9  C   UNL     1       4.854   5.621  18.553  0.00  0.00    +0.000 C 
ATOM     10  C   UNL     1       5.509   4.389  19.252  0.00  0.00    +0.000 C 
ATOM     11  N   UNL     1       6.494   4.303  18.157  0.00  0.00    +0.000 NA
ATOM     12  C   UNL     1       5.581   5.065  17.291  0.00  0.00    +0.000 C 
ATOM     13  H   UNL     1       6.673   3.352  17.843  0.00  0.00    +0.000 HD
ENDBRANCH   1   9
BRANCH   1  14
ATOM     14  C   UNL     1       2.744   6.716  17.719  0.00  0.00    +0.000 C 
BRANCH  14  15
ATOM     15  C   UNL     1       2.300   7.923  18.525  0.00  0.00    +0.000 A 
ATOM     16  C   UNL     1       1.959   9.108  17.862  0.00  0.00    +0.000 A 
ATOM     17  C   UNL     1       1.180  10.079  18.500  0.00  0.00    +0.000 A 
ATOM     18  C   UNL     1       0.763   9.916  19.826  0.00  0.00    +0.000 A 
ATOM     19  C   UNL     1      -0.125  10.830  20.422  0.00  0.00    +0.000 A 
ATOM     20  C   UNL     1      -0.498  10.694  21.760  0.00  0.00    +0.000 A 
ATOM     21  C   UNL     1       0.024   9.649  22.514  0.00  0.00    +0.000 A 
ATOM     22  C   UNL     1       0.870   8.706  21.918  0.00  0.00    +0.000 A 
ATOM     23  C   UNL     1       1.228   8.804  20.559  0.00  0.00    +0.000 A 
ATOM     24  C   UNL     1       1.992   7.815  19.895  0.00  0.00    +0.000 A 
ENDBRANCH  14  15
ENDBRANCH   1  14
TORSDOF 4
ENDMDL
MODEL 4
REMARK VINA RESULT:      -8.2      0.948      1.250
REMARK  Name = 
REMARK  4 active torsions:
REMARK  status: ('A' for Active; 'I' for Inactive)
REMARK    1  A    between atoms: C_7  and  N_8
REMARK    2  A    between atoms: N_8  and  C_9
REMARK    3  A    between atoms: N_8  and  C_20
REMARK    4  A    between atoms: C_9  and  C_10
REMARK                            x       y       z     vdW  Elec       q    Type
REMARK                         _______ _______ _______ _____ _____    ______ ____
ROOT
ATOM      1  N   UNL     1       3.736   5.306  18.363  0.00  0.00    +0.000 N 
ENDROOT
BRANCH   1   8
ATOM      2  F   UNL     1       4.829   6.965  16.322  0.00  0.00    +0.000 F 
ATOM      3  C   UNL     1       5.626   6.513  17.309  0.00  0.00    +0.000 A 
ATOM      4  C   UNL     1       6.987   6.811  17.207  0.00  0.00    +0.000 A 
ATOM      5  C   UNL     1       7.863   6.390  18.199  0.00  0.00    +0.000 A 
ATOM      6  C   UNL     1       7.363   5.692  19.290  0.00  0.00    +0.000 A 
ATOM      7  C   UNL     1       5.996   5.383  19.370  0.00  0.00    +0.000 A 
ATOM      8  C   UNL     1       5.084   5.759  18.366  0.00  0.00    +0.000 A 
ENDBRANCH   1   8
BRANCH   1   9
ATOM      9  C   UNL     1       3.227   4.291  17.425  0.00  0.00    +0.000 C 
ATOM     10  C   UNL     1       3.647   2.815  17.708  0.00  0.00    +0.000 C 
ATOM     11  N   UNL     1       2.252   2.387  17.493  0.00  0.00    +0.000 NA
ATOM     12  C   UNL     1       1.801   3.761  17.762  0.00  0.00    +0.000 C 
ATOM     13  H   UNL     1       1.927   1.700  18.171  0.00  0.00    +0.000 HD
ENDBRANCH   1   9
BRANCH   1  14
ATOM     14  C   UNL     1       2.817   5.786  19.411  0.00  0.00    +0.000 C 
BRANCH  14  15
ATOM     15  C   UNL     1       2.372   7.234  19.328  0.00  0.00    +0.000 A 
ATOM     16  C   UNL     1       2.344   7.878  18.085  0.00  0.00    +0.000 A 
ATOM     17  C   UNL     1       1.580   9.035  17.902  0.00  0.00    +0.000 A 
ATOM     18  C   UNL     1       0.866   9.606  18.962  0.00  0.00    +0.000 A 
ATOM     19  C   UNL     1      -0.001  10.693  18.748  0.00  0.00    +0.000 A 
ATOM     20  C   UNL     1      -0.671  11.294  19.814  0.00  0.00    +0.000 A 
ATOM     21  C   UNL     1      -0.469  10.819  21.105  0.00  0.00    +0.000 A 
ATOM     22  C   UNL     1       0.354   9.707  21.325  0.00  0.00    +0.000 A 
ATOM     23  C   UNL     1       1.009   9.064  20.257  0.00  0.00    +0.000 A 
ATOM     24  C   UNL     1       1.762   7.876  20.423  0.00  0.00    +0.000 A 
ENDBRANCH  14  15
ENDBRANCH   1  14
TORSDOF 4
ENDMDL
MODEL 5
REMARK VINA RESULT:      -8.1      1.609      3.715
REMARK  Name = 
REMARK  4 active torsions:
REMARK  status: ('A' for Active; 'I' for Inactive)
REMARK    1  A    between atoms: C_7  and  N_8
REMARK    2  A    between atoms: N_8  and  C_9
REMARK    3  A    between atoms: N_8  and  C_20
REMARK    4  A    between atoms: C_9  and  C_10
REMARK                            x       y       z     vdW  Elec       q    Type
REMARK                         _______ _______ _______ _____ _____    ______ ____
ROOT
ATOM      1  N   UNL     1       4.082   4.651  18.523  0.00  0.00    +0.000 N 
ENDROOT
BRANCH   1   8
ATOM      2  F   UNL     1       2.328   3.083  16.918  0.00  0.00    +0.000 F 
ATOM      3  C   UNL     1       2.089   3.206  18.238  0.00  0.00    +0.000 A 
ATOM      4  C   UNL     1       0.915   2.629  18.723  0.00  0.00    +0.000 A 
ATOM      5  C   UNL     1       0.614   2.704  20.076  0.00  0.00    +0.000 A 
ATOM      6  C   UNL     1       1.503   3.342  20.931  0.00  0.00    +0.000 A 
ATOM      7  C   UNL     1       2.672   3.935  20.427  0.00  0.00    +0.000 A 
ATOM      8  C   UNL     1       2.991   3.913  19.057  0.00  0.00    +0.000 A 
ENDBRANCH   1   8
BRANCH   1   9
ATOM      9  C   UNL     1       5.491   4.280  18.737  0.00  0.00    +0.000 C 
ATOM     10  C   UNL     1       6.446   4.454  17.515  0.00  0.00    +0.000 C 
ATOM     11  N   UNL     1       7.439   5.099  18.395  0.00  0.00    +0.000 NA
ATOM     12  C   UNL     1       6.368   5.409  19.356  0.00  0.00    +0.000 C 
ATOM     13  H   UNL     1       7.879   5.919  17.981  0.00  0.00    +0.000 HD
ENDBRANCH   1   9
BRANCH   1  14
ATOM     14  C   UNL     1       3.807   5.783  17.619  0.00  0.00    +0.000 C 
BRANCH  14  15
ATOM     15  C   UNL     1       3.187   7.024  18.237  0.00  0.00    +0.000 A 
ATOM     16  C   UNL     1       2.949   8.148  17.438  0.00  0.00    +0.000 A 
ATOM     17  C   UNL     1       2.040   9.128  17.845  0.00  0.00    +0.000 A 
ATOM     18  C   UNL     1       1.382   9.039  19.078  0.00  0.00    +0.000 A 
ATOM     19  C   UNL     1       0.375   9.956  19.429  0.00  0.00    +0.000 A 
ATOM     20  C   UNL     1      -0.242   9.896  20.679  0.00  0.00    +0.000 A 
ATOM     21  C   UNL     1       0.153   8.925  21.592  0.00  0.00    +0.000 A 
ATOM     22  C   UNL     1       1.121   7.977  21.236  0.00  0.00    +0.000 A 
ATOM     23  C   UNL     1       1.728   7.997  19.965  0.00  0.00    +0.000 A 
ATOM     24  C   UNL     1       2.628   6.996  19.529  0.00  0.00    +0.000 A 
ENDBRANCH  14  15
ENDBRANCH   1  14
TORSDOF 4
ENDMDL
MODEL 6
REMARK VINA RESULT:      -8.1      0.941      1.896
REMARK  Name = 
REMARK  4 active torsions:
REMARK  status: ('A' for Active; 'I' for Inactive)
REMARK    1  A    between atoms: C_7  and  N_8
REMARK    2  A    between atoms: N_8  and  C_9
REMARK    3  A    between atoms: N_8  and  C_20
REMARK    4  A    between atoms: C_9  and  C_10
REMARK                            x       y       z     vdW  Elec       q    Type
REMARK                         _______ _______ _______ _____ _____    ______ ____
ROOT
ATOM      1  N   UNL     1       4.281   4.476  18.704  0.00  0.00    +0.000 N 
ENDROOT
BRANCH   1   8
ATOM      2  F   UNL     1       4.531   6.144  16.409  0.00  0.00    +0.000 F 
ATOM      3  C   UNL     1       5.544   6.075  17.294  0.00  0.00    +0.000 A 
ATOM      4  C   UNL     1       6.715   6.762  16.968  0.00  0.00    +0.000 A 
ATOM      5  C   UNL     1       7.792   6.747  17.843  0.00  0.00    +0.000 A 
ATOM      6  C   UNL     1       7.678   6.059  19.044  0.00  0.00    +0.000 A 
ATOM      7  C   UNL     1       6.502   5.357  19.351  0.00  0.00    +0.000 A 
ATOM      8  C   UNL     1       5.404   5.317  18.472  0.00  0.00    +0.000 A 
ENDBRANCH   1   8
BRANCH   1   9
ATOM      9  C   UNL     1       3.984   3.283  17.893  0.00  0.00    +0.000 C 
ATOM     10  C   UNL     1       3.484   2.025  18.669  0.00  0.00    +0.000 C 
ATOM     11  N   UNL     1       2.416   1.843  17.668  0.00  0.00    +0.000 NA
ATOM     12  C   UNL     1       2.548   3.258  17.287  0.00  0.00    +0.000 C 
ATOM     13  H   UNL     1       1.514   1.602  18.073  0.00  0.00    +0.000 HD
ENDBRANCH   1   9
BRANCH   1  14
ATOM     14  C   UNL     1       3.424   4.732  19.876  0.00  0.00    +0.000 C 
BRANCH  14  15
ATOM     15  C   UNL     1       2.493   5.928  19.801  0.00  0.00    +0.000 A 
ATOM     16  C   UNL     1       1.704   6.260  20.908  0.00  0.00    +0.000 A 
ATOM     17  C   UNL     1       1.159   7.542  21.033  0.00  0.00    +0.000 A 
ATOM     18  C   UNL     1       1.345   8.507  20.037  0.00  0.00    +0.000 A 
ATOM     19  C   UNL     1       0.906   9.831  20.222  0.00  0.00    +0.000 A 
ATOM     20  C   UNL     1       1.045  10.778  19.207  0.00  0.00    +0.000 A 
ATOM     21  C   UNL     1       1.615  10.405  17.995  0.00  0.00    +0.000 A 
ATOM     22  C   UNL     1       2.099   9.104  17.817  0.00  0.00    +0.000 A 
ATOM     23  C   UNL     1       2.002   8.143  18.843  0.00  0.00    +0.000 A 
ATOM     24  C   UNL     1       2.573   6.853  18.741  0.00  0.00    +0.000 A 
ENDBRANCH  14  15
ENDBRANCH   1  14
TORSDOF 4
ENDMDL
MODEL 7
REMARK VINA RESULT:      -8.0      1.214      1.421
REMARK  Name = 
REMARK  4 active torsions:
REMARK  status: ('A' for Active; 'I' for Inactive)
REMARK    1  A    between atoms: C_7  and  N_8
REMARK    2  A    between atoms: N_8  and  C_9
REMARK    3  A    between atoms: N_8  and  C_20
REMARK    4  A    between atoms: C_9  and  C_10
REMARK                            x       y       z     vdW  Elec       q    Type
REMARK                         _______ _______ _______ _____ _____    ______ ____
ROOT
ATOM      1  N   UNL     1       3.509   4.519  18.568  0.00  0.00    +0.000 N 
ENDROOT
BRANCH   1   8
ATOM      2  F   UNL     1       4.453   4.114  15.912  0.00  0.00    +0.000 F 
ATOM      3  C   UNL     1       5.325   4.438  16.885  0.00  0.00    +0.000 A 
ATOM      4  C   UNL     1       6.678   4.454  16.540  0.00  0.00    +0.000 A 
ATOM      5  C   UNL     1       7.631   4.796  17.490  0.00  0.00    +0.000 A 
ATOM      6  C   UNL     1       7.216   5.137  18.771  0.00  0.00    +0.000 A 
ATOM      7  C   UNL     1       5.854   5.098  19.110  0.00  0.00    +0.000 A 
ATOM      8  C   UNL     1       4.863   4.719  18.185  0.00  0.00    +0.000 A 
ENDBRANCH   1   8
BRANCH   1   9
ATOM      9  C   UNL     1       2.636   3.504  17.954  0.00  0.00    +0.000 C 
ATOM     10  C   UNL     1       2.925   2.020  18.339  0.00  0.00    +0.000 C 
ATOM     11  N   UNL     1       1.481   1.804  18.553  0.00  0.00    +0.000 NA
ATOM     12  C   UNL     1       1.301   3.255  18.719  0.00  0.00    +0.000 C 
ATOM     13  H   UNL     1       1.269   1.259  19.386  0.00  0.00    +0.000 HD
ENDBRANCH   1   9
BRANCH   1  14
ATOM     14  C   UNL     1       2.967   5.282  19.708  0.00  0.00    +0.000 C 
BRANCH  14  15
ATOM     15  C   UNL     1       2.604   6.734  19.455  0.00  0.00    +0.000 A 
ATOM     16  C   UNL     1       2.768   7.274  18.174  0.00  0.00    +0.000 A 
ATOM     17  C   UNL     1       2.089   8.439  17.803  0.00  0.00    +0.000 A 
ATOM     18  C   UNL     1       1.270   9.120  18.710  0.00  0.00    +0.000 A 
ATOM     19  C   UNL     1       0.489  10.216  18.299  0.00  0.00    +0.000 A 
ATOM     20  C   UNL     1      -0.286  10.925  19.217  0.00  0.00    +0.000 A 
ATOM     21  C   UNL     1      -0.277  10.551  20.556  0.00  0.00    +0.000 A 
ATOM     22  C   UNL     1       0.458   9.433  20.968  0.00  0.00    +0.000 A 
ATOM     23  C   UNL     1       1.217   8.680  20.050  0.00  0.00    +0.000 A 
ATOM     24  C   UNL     1       1.886   7.485  20.406  0.00  0.00    +0.000 A 
ENDBRANCH  14  15
ENDBRANCH   1  14
TORSDOF 4
ENDMDL
MODEL 8
REMARK VINA RESULT:      -8.0      1.334      1.857
REMARK  Name = 
REMARK  4 active torsions:
REMARK  status: ('A' for Active; 'I' for Inactive)
REMARK    1  A    between atoms: C_7  and  N_8
REMARK    2  A    between atoms: N_8  and  C_9
REMARK    3  A    between atoms: N_8  and  C_20
REMARK    4  A    between atoms: C_9  and  C_10
REMARK                            x       y       z     vdW  Elec       q    Type
REMARK                         _______ _______ _______ _____ _____    ______ ____
ROOT
ATOM      1  N   UNL     1       3.601   5.287  18.329  0.00  0.00    +0.000 N 
ENDROOT
BRANCH   1   8
ATOM      2  F   UNL     1       5.694   4.217  19.938  0.00  0.00    +0.000 F 
ATOM      3  C   UNL     1       5.971   5.187  19.045  0.00  0.00    +0.000 A 
ATOM      4  C   UNL     1       7.276   5.685  19.039  0.00  0.00    +0.000 A 
ATOM      5  C   UNL     1       7.634   6.674  18.133  0.00  0.00    +0.000 A 
ATOM      6  C   UNL     1       6.687   7.139  17.230  0.00  0.00    +0.000 A 
ATOM      7  C   UNL     1       5.374   6.642  17.260  0.00  0.00    +0.000 A 
ATOM      8  C   UNL     1       4.963   5.669  18.189  0.00  0.00    +0.000 A 
ENDBRANCH   1   8
BRANCH   1   9
ATOM      9  C   UNL     1       2.950   4.283  17.470  0.00  0.00    +0.000 C 
ATOM     10  C   UNL     1       3.470   2.818  17.602  0.00  0.00    +0.000 C 
ATOM     11  N   UNL     1       2.076   2.337  17.651  0.00  0.00    +0.000 NA
ATOM     12  C   UNL     1       1.640   3.681  18.062  0.00  0.00    +0.000 C 
ATOM     13  H   UNL     1       1.918   1.614  18.350  0.00  0.00    +0.000 HD
ENDBRANCH   1   9
BRANCH   1  14
ATOM     14  C   UNL     1       2.817   5.831  19.453  0.00  0.00    +0.000 C 
BRANCH  14  15
ATOM     15  C   UNL     1       2.353   7.271  19.337  0.00  0.00    +0.000 A 
ATOM     16  C   UNL     1       2.313   7.884  18.079  0.00  0.00    +0.000 A 
ATOM     17  C   UNL     1       1.534   9.027  17.870  0.00  0.00    +0.000 A 
ATOM     18  C   UNL     1       0.816   9.614  18.918  0.00  0.00    +0.000 A 
ATOM     19  C   UNL     1      -0.066  10.684  18.680  0.00  0.00    +0.000 A 
ATOM     20  C   UNL     1      -0.741  11.301  19.733  0.00  0.00    +0.000 A 
ATOM     21  C   UNL     1      -0.529  10.861  21.035  0.00  0.00    +0.000 A 
ATOM     22  C   UNL     1       0.309   9.766  21.279  0.00  0.00    +0.000 A 
ATOM     23  C   UNL     1       0.969   9.105  20.225  0.00  0.00    +0.000 A 
ATOM     24  C   UNL     1       1.737   7.932  20.418  0.00  0.00    +0.000 A 
ENDBRANCH  14  15
ENDBRANCH   1  14
TORSDOF 4
ENDMDL
MODEL 9
REMARK VINA RESULT:      -8.0      1.636      2.688
REMARK  Name = 
REMARK  4 active torsions:
REMARK  status: ('A' for Active; 'I' for Inactive)
REMARK    1  A    between atoms: C_7  and  N_8
REMARK    2  A    between atoms: N_8  and  C_9
REMARK    3  A    between atoms: N_8  and  C_20
REMARK    4  A    between atoms: C_9  and  C_10
REMARK                            x       y       z     vdW  Elec       q    Type
REMARK                         _______ _______ _______ _____ _____    ______ ____
ROOT
ATOM      1  N   UNL     1       4.495   3.684  17.960  0.00  0.00    +0.000 N 
ENDROOT
BRANCH   1   8
ATOM      2  F   UNL     1       7.239   4.395  18.237  0.00  0.00    +0.000 F 
ATOM      3  C   UNL     1       6.656   4.456  17.025  0.00  0.00    +0.000 A 
ATOM      4  C   UNL     1       7.424   4.974  15.980  0.00  0.00    +0.000 A 
ATOM      5  C   UNL     1       6.891   5.050  14.701  0.00  0.00    +0.000 A 
ATOM      6  C   UNL     1       5.600   4.590  14.478  0.00  0.00    +0.000 A 
ATOM      7  C   UNL     1       4.832   4.089  15.541  0.00  0.00    +0.000 A 
ATOM      8  C   UNL     1       5.324   4.032  16.858  0.00  0.00    +0.000 A 
ENDBRANCH   1   8
BRANCH   1   9
ATOM      9  C   UNL     1       3.737   2.423  18.034  0.00  0.00    +0.000 C 
ATOM     10  C   UNL     1       3.250   1.991  19.451  0.00  0.00    +0.000 C 
ATOM     11  N   UNL     1       1.918   1.690  18.892  0.00  0.00    +0.000 NA
ATOM     12  C   UNL     1       2.212   2.571  17.751  0.00  0.00    +0.000 C 
ATOM     13  H   UNL     1       1.148   2.007  19.478  0.00  0.00    +0.000 HD
ENDBRANCH   1   9
BRANCH   1  14
ATOM     14  C   UNL     1       4.467   4.564  19.142  0.00  0.00    +0.000 C 
BRANCH  14  15
ATOM     15  C   UNL     1       3.323   5.558  19.234  0.00  0.00    +0.000 A 
ATOM     16  C   UNL     1       2.498   5.557  20.365  0.00  0.00    +0.000 A 
ATOM     17  C   UNL     1       1.718   6.676  20.675  0.00  0.00    +0.000 A 
ATOM     18  C   UNL     1       1.704   7.802  19.843  0.00  0.00    +0.000 A 
ATOM     19  C   UNL     1       1.022   8.973  20.221  0.00  0.00    +0.000 A 
ATOM     20  C   UNL     1       0.966  10.074  19.367  0.00  0.00    +0.000 A 
ATOM     21  C   UNL     1       1.583  10.009  18.123  0.00  0.00    +0.000 A 
ATOM     22  C   UNL     1       2.305   8.867  17.755  0.00  0.00    +0.000 A 
ATOM     23  C   UNL     1       2.405   7.759  18.619  0.00  0.00    +0.000 A 
ATOM     24  C   UNL     1       3.213   6.633  18.331  0.00  0.00    +0.000 A 
ENDBRANCH  14  15
ENDBRANCH   1  14
TORSDOF 4
ENDMDL
