MODEL 1
REMARK VINA RESULT:      -8.3      0.000      0.000
REMARK  Name = 
REMARK  7 active torsions:
REMARK  status: ('A' for Active; 'I' for Inactive)
REMARK    1  A    between atoms: C_2  and  C_3
REMARK    2  A    between atoms: C_3  and  C_4
REMARK    3  A    between atoms: N_6  and  C_7
REMARK    4  A    between atoms: C_10  and  C_11
REMARK    5  A    between atoms: C_11  and  C_12
REMARK    6  A    between atoms: C_12  and  N_13
REMARK    7  A    between atoms: C_16  and  C_17
REMARK                            x       y       z     vdW  Elec       q    Type
REMARK                         _______ _______ _______ _____ _____    ______ ____
ROOT
ATOM      1  C   UNL     1       1.085   4.719  20.078  0.00  0.00    +0.000 C 
ENDROOT
BRANCH   1   2
ATOM      2  N   UNL     1       1.617   3.689  19.160  0.00  0.00    +0.000 NA
ATOM      3  C   UNL     1       1.859   4.262  17.825  0.00  0.00    +0.000 C 
ATOM      4  C   UNL     1       2.721   3.406  16.902  0.00  0.00    +0.000 C 
ATOM      5  C   UNL     1       4.013   2.914  17.561  0.00  0.00    +0.000 C 
ATOM      6  C   UNL     1       3.644   2.199  18.864  0.00  0.00    +0.000 C 
ATOM      7  C   UNL     1       2.791   3.057  19.793  0.00  0.00    +0.000 C 
BRANCH   5   8
ATOM      8  C   UNL     1       5.106   3.969  17.702  0.00  0.00    +0.000 A 
ATOM      9  C   UNL     1       5.462   4.570  18.925  0.00  0.00    +0.000 A 
ATOM     10  C   UNL     1       6.445   5.570  19.023  0.00  0.00    +0.000 A 
ATOM     11  C   UNL     1       7.126   5.996  17.892  0.00  0.00    +0.000 A 
ATOM     12  C   UNL     1       6.806   5.392  16.697  0.00  0.00    +0.000 A 
ATOM     13  C   UNL     1       5.826   4.406  16.592  0.00  0.00    +0.000 A 
ATOM     14  C   UNL     1       5.697   4.039  15.158  0.00  0.00    +0.000 C 
ATOM     15  C   UNL     1       6.994   4.645  14.628  0.00  0.00    +0.000 C 
ATOM     16  O   UNL     1       7.405   5.715  15.506  0.00  0.00    +0.000 OA
ENDBRANCH   5   8
ENDBRANCH   1   2
BRANCH   1  17
ATOM     17  C   UNL     1       2.145   5.542  20.826  0.00  0.00    +0.000 C 
BRANCH  17  21
ATOM     18  C   UNL     1       0.911   9.445  19.231  0.00  0.00    +0.000 C 
ATOM     19  C   UNL     1       2.083   8.720  18.566  0.00  0.00    +0.000 C 
ATOM     20  C   UNL     1       2.160   7.249  18.951  0.00  0.00    +0.000 C 
ATOM     21  C   UNL     1       2.174   7.042  20.471  0.00  0.00    +0.000 C 
ATOM     22  C   UNL     1       0.970   7.748  21.118  0.00  0.00    +0.000 C 
ATOM     23  C   UNL     1       0.901   9.227  20.749  0.00  0.00    +0.000 C 
BRANCH  18  26
ATOM     24  C   UNL     1      -0.124  11.656  18.725  0.00  0.00    +0.000 C 
ATOM     25  O   UNL     1      -1.260  11.204  18.717  0.00  0.00    +0.000 OA
ATOM     26  N   UNL     1       0.998  10.868  18.918  0.00  0.00    +0.000 N 
ATOM     27  H   UNL     1       1.895  11.312  19.055  0.00  0.00    +0.000 HD
BRANCH  24  28
ATOM     28  C   UNL     1       0.199  13.113  18.459  0.00  0.00    +0.000 C 
BRANCH  28  30
ATOM     29  N   UNL     1       2.950  13.487  18.285  0.00  0.00    +0.000 NA
ATOM     30  C   UNL     1       1.702  13.317  18.364  0.00  0.00    +0.000 C 
ENDBRANCH  28  30
ENDBRANCH  24  28
ENDBRANCH  18  26
ENDBRANCH  17  21
ENDBRANCH   1  17
TORSDOF 7
ENDMDL
MODEL 2
REMARK VINA RESULT:      -8.1      3.183      3.885
REMARK  Name = 
REMARK  7 active torsions:
REMARK  status: ('A' for Active; 'I' for Inactive)
REMARK    1  A    between atoms: C_2  and  C_3
REMARK    2  A    between atoms: C_3  and  C_4
REMARK    3  A    between atoms: N_6  and  C_7
REMARK    4  A    between atoms: C_10  and  C_11
REMARK    5  A    between atoms: C_11  and  C_12
REMARK    6  A    between atoms: C_12  and  N_13
REMARK    7  A    between atoms: C_16  and  C_17
REMARK                            x       y       z     vdW  Elec       q    Type
REMARK                         _______ _______ _______ _____ _____    ______ ____
ROOT
ATOM      1  C   UNL     1       1.871   7.165  20.825  0.00  0.00    +0.000 C 
ENDROOT
BRANCH   1   2
ATOM      2  N   UNL     1       1.816   5.937  20.002  0.00  0.00    +0.000 NA
ATOM      3  C   UNL     1       2.125   6.243  18.595  0.00  0.00    +0.000 C 
ATOM      4  C   UNL     1       2.439   5.031  17.725  0.00  0.00    +0.000 C 
ATOM      5  C   UNL     1       3.472   4.087  18.349  0.00  0.00    +0.000 C 
ATOM      6  C   UNL     1       2.985   3.704  19.749  0.00  0.00    +0.000 C 
ATOM      7  C   UNL     1       2.679   4.915  20.624  0.00  0.00    +0.000 C 
BRANCH   5   8
ATOM      8  C   UNL     1       4.914   4.580  18.288  0.00  0.00    +0.000 A 
ATOM      9  C   UNL     1       5.622   5.068  19.404  0.00  0.00    +0.000 A 
ATOM     10  C   UNL     1       6.938   5.555  19.315  0.00  0.00    +0.000 A 
ATOM     11  C   UNL     1       7.605   5.555  18.098  0.00  0.00    +0.000 A 
ATOM     12  C   UNL     1       6.931   5.051  17.009  0.00  0.00    +0.000 A 
ATOM     13  C   UNL     1       5.623   4.574  17.088  0.00  0.00    +0.000 A 
ATOM     14  C   UNL     1       5.194   4.182  15.721  0.00  0.00    +0.000 C 
ATOM     15  C   UNL     1       6.558   4.129  15.038  0.00  0.00    +0.000 C 
ATOM     16  O   UNL     1       7.474   4.988  15.751  0.00  0.00    +0.000 OA
ENDBRANCH   5   8
ENDBRANCH   1   2
BRANCH   1  17
ATOM     17  C   UNL     1       1.422   8.451  20.115  0.00  0.00    +0.000 C 
BRANCH  17  21
ATOM     18  C   UNL     1      -0.686  11.543  22.417  0.00  0.00    +0.000 C 
ATOM     19  C   UNL     1      -0.522  10.153  23.037  0.00  0.00    +0.000 C 
ATOM     20  C   UNL     1       0.532   9.314  22.327  0.00  0.00    +0.000 C 
ATOM     21  C   UNL     1       0.284   9.217  20.816  0.00  0.00    +0.000 C 
ATOM     22  C   UNL     1       0.156  10.623  20.206  0.00  0.00    +0.000 C 
ATOM     23  C   UNL     1      -0.912  11.462  20.902  0.00  0.00    +0.000 C 
BRANCH  18  26
ATOM     24  C   UNL     1      -1.713  13.517  23.540  0.00  0.00    +0.000 C 
ATOM     25  O   UNL     1      -0.672  14.159  23.525  0.00  0.00    +0.000 OA
ATOM     26  N   UNL     1      -1.804  12.219  23.067  0.00  0.00    +0.000 N 
ATOM     27  H   UNL     1      -2.714  11.791  22.975  0.00  0.00    +0.000 HD
BRANCH  24  28
ATOM     28  C   UNL     1      -3.007  14.036  24.134  0.00  0.00    +0.000 C 
BRANCH  28  30
ATOM     29  N   UNL     1      -4.784  11.943  24.584  0.00  0.00    +0.000 NA
ATOM     30  C   UNL     1      -3.978  12.892  24.380  0.00  0.00    +0.000 C 
ENDBRANCH  28  30
ENDBRANCH  24  28
ENDBRANCH  18  26
ENDBRANCH  17  21
ENDBRANCH   1  17
TORSDOF 7
ENDMDL
MODEL 3
REMARK VINA RESULT:      -8.1      1.007      1.378
REMARK  Name = 
REMARK  7 active torsions:
REMARK  status: ('A' for Active; 'I' for Inactive)
REMARK    1  A    between atoms: C_2  and  C_3
REMARK    2  A    between atoms: C_3  and  C_4
REMARK    3  A    between atoms: N_6  and  C_7
REMARK    4  A    between atoms: C_10  and  C_11
REMARK    5  A    between atoms: C_11  and  C_12
REMARK    6  A    between atoms: C_12  and  N_13
REMARK    7  A    between atoms: C_16  and  C_17
REMARK                            x       y       z     vdW  Elec       q    Type
REMARK                         _______ _______ _______ _____ _____    ______ ____
ROOT
ATOM      1  C   UNL     1       1.169   4.423  20.449  0.00  0.00    +0.000 C 
ENDROOT
BRANCH   1   2
ATOM      2  N   UNL     1       1.673   3.476  19.431  0.00  0.00    +0.000 NA
ATOM      3  C   UNL     1       1.823   4.148  18.129  0.00  0.00    +0.000 C 
ATOM      4  C   UNL     1       2.651   3.384  17.101  0.00  0.00    +0.000 C 
ATOM      5  C   UNL     1       3.991   2.886  17.649  0.00  0.00    +0.000 C 
ATOM      6  C   UNL     1       3.717   2.070  18.916  0.00  0.00    +0.000 C 
ATOM      7  C   UNL     1       2.896   2.836  19.950  0.00  0.00    +0.000 C 
BRANCH   5   8
ATOM      8  C   UNL     1       5.063   3.960  17.803  0.00  0.00    +0.000 A 
ATOM      9  C   UNL     1       5.387   4.572  19.030  0.00  0.00    +0.000 A 
ATOM     10  C   UNL     1       6.352   5.589  19.141  0.00  0.00    +0.000 A 
ATOM     11  C   UNL     1       7.044   6.023  18.019  0.00  0.00    +0.000 A 
ATOM     12  C   UNL     1       6.755   5.408  16.822  0.00  0.00    +0.000 A 
ATOM     13  C   UNL     1       5.794   4.405  16.704  0.00  0.00    +0.000 A 
ATOM     14  C   UNL     1       5.695   4.030  15.270  0.00  0.00    +0.000 C 
ATOM     15  C   UNL     1       6.990   4.657  14.759  0.00  0.00    +0.000 C 
ATOM     16  O   UNL     1       7.368   5.737  15.639  0.00  0.00    +0.000 OA
ENDBRANCH   5   8
ENDBRANCH   1   2
BRANCH   1  17
ATOM     17  C   UNL     1       2.010   5.696  20.634  0.00  0.00    +0.000 C 
BRANCH  17  21
ATOM     18  C   UNL     1       1.475   9.920  19.550  0.00  0.00    +0.000 C 
ATOM     19  C   UNL     1       0.568   9.320  20.627  0.00  0.00    +0.000 C 
ATOM     20  C   UNL     1       1.095   7.999  21.171  0.00  0.00    +0.000 C 
ATOM     21  C   UNL     1       1.380   6.980  20.060  0.00  0.00    +0.000 C 
ATOM     22  C   UNL     1       2.320   7.589  19.006  0.00  0.00    +0.000 C 
ATOM     23  C   UNL     1       1.786   8.903  18.445  0.00  0.00    +0.000 C 
BRANCH  18  26
ATOM     24  C   UNL     1       1.023  12.371  19.509  0.00  0.00    +0.000 C 
ATOM     25  O   UNL     1       1.684  12.583  20.516  0.00  0.00    +0.000 OA
ATOM     26  N   UNL     1       0.825  11.102  18.992  0.00  0.00    +0.000 N 
ATOM     27  H   UNL     1       0.392  11.001  18.086  0.00  0.00    +0.000 HD
BRANCH  24  28
ATOM     28  C   UNL     1       0.289  13.456  18.746  0.00  0.00    +0.000 C 
BRANCH  28  30
ATOM     29  N   UNL     1       1.701  15.850  18.853  0.00  0.00    +0.000 NA
ATOM     30  C   UNL     1       1.061  14.764  18.804  0.00  0.00    +0.000 C 
ENDBRANCH  28  30
ENDBRANCH  24  28
ENDBRANCH  18  26
ENDBRANCH  17  21
ENDBRANCH   1  17
TORSDOF 7
ENDMDL
MODEL 4
REMARK VINA RESULT:      -7.9      1.540      2.056
REMARK  Name = 
REMARK  7 active torsions:
REMARK  status: ('A' for Active; 'I' for Inactive)
REMARK    1  A    between atoms: C_2  and  C_3
REMARK    2  A    between atoms: C_3  and  C_4
REMARK    3  A    between atoms: N_6  and  C_7
REMARK    4  A    between atoms: C_10  and  C_11
REMARK    5  A    between atoms: C_11  and  C_12
REMARK    6  A    between atoms: C_12  and  N_13
REMARK    7  A    between atoms: C_16  and  C_17
REMARK                            x       y       z     vdW  Elec       q    Type
REMARK                         _______ _______ _______ _____ _____    ______ ____
ROOT
ATOM      1  C   UNL     1       1.263   4.957  20.396  0.00  0.00    +0.000 C 
ENDROOT
BRANCH   1   2
ATOM      2  N   UNL     1       1.664   3.957  19.382  0.00  0.00    +0.000 NA
ATOM      3  C   UNL     1       1.895   4.606  18.080  0.00  0.00    +0.000 C 
ATOM      4  C   UNL     1       2.639   3.753  17.057  0.00  0.00    +0.000 C 
ATOM      5  C   UNL     1       3.912   3.110  17.614  0.00  0.00    +0.000 C 
ATOM      6  C   UNL     1       3.541   2.332  18.880  0.00  0.00    +0.000 C 
ATOM      7  C   UNL     1       2.806   3.186  19.908  0.00  0.00    +0.000 C 
BRANCH   5   8
ATOM      8  C   UNL     1       5.096   4.058  17.773  0.00  0.00    +0.000 A 
ATOM      9  C   UNL     1       5.524   4.576  19.012  0.00  0.00    +0.000 A 
ATOM     10  C   UNL     1       6.594   5.481  19.128  0.00  0.00    +0.000 A 
ATOM     11  C   UNL     1       7.290   5.891  18.001  0.00  0.00    +0.000 A 
ATOM     12  C   UNL     1       6.898   5.366  16.790  0.00  0.00    +0.000 A 
ATOM     13  C   UNL     1       5.834   4.475  16.666  0.00  0.00    +0.000 A 
ATOM     14  C   UNL     1       5.648   4.179  15.223  0.00  0.00    +0.000 C 
ATOM     15  C   UNL     1       6.984   4.690  14.690  0.00  0.00    +0.000 C 
ATOM     16  O   UNL     1       7.503   5.684  15.600  0.00  0.00    +0.000 OA
ENDBRANCH   5   8
ENDBRANCH   1   2
BRANCH   1  17
ATOM     17  C   UNL     1       2.087   6.254  20.400  0.00  0.00    +0.000 C 
BRANCH  17  21
ATOM     18  C   UNL     1       1.086  10.532  20.383  0.00  0.00    +0.000 C 
ATOM     19  C   UNL     1       0.706   9.696  21.608  0.00  0.00    +0.000 C 
ATOM     20  C   UNL     1       1.431   8.358  21.655  0.00  0.00    +0.000 C 
ATOM     21  C   UNL     1       1.257   7.551  20.361  0.00  0.00    +0.000 C 
ATOM     22  C   UNL     1       1.677   8.396  19.146  0.00  0.00    +0.000 C 
ATOM     23  C   UNL     1       0.938   9.730  19.085  0.00  0.00    +0.000 C 
BRANCH  18  26
ATOM     24  C   UNL     1       0.744  12.991  20.603  0.00  0.00    +0.000 C 
ATOM     25  O   UNL     1       1.897  13.193  20.956  0.00  0.00    +0.000 OA
ATOM     26  N   UNL     1       0.246  11.725  20.348  0.00  0.00    +0.000 N 
ATOM     27  H   UNL     1      -0.666  11.630  19.926  0.00  0.00    +0.000 HD
BRANCH  24  28
ATOM     28  C   UNL     1      -0.293  14.088  20.464  0.00  0.00    +0.000 C 
BRANCH  28  30
ATOM     29  N   UNL     1      -2.858  13.012  20.465  0.00  0.00    +0.000 NA
ATOM     30  C   UNL     1      -1.694  13.500  20.464  0.00  0.00    +0.000 C 
ENDBRANCH  28  30
ENDBRANCH  24  28
ENDBRANCH  18  26
ENDBRANCH  17  21
ENDBRANCH   1  17
TORSDOF 7
ENDMDL
MODEL 5
REMARK VINA RESULT:      -7.8      2.833      9.286
REMARK  Name = 
REMARK  7 active torsions:
REMARK  status: ('A' for Active; 'I' for Inactive)
REMARK    1  A    between atoms: C_2  and  C_3
REMARK    2  A    between atoms: C_3  and  C_4
REMARK    3  A    between atoms: N_6  and  C_7
REMARK    4  A    between atoms: C_10  and  C_11
REMARK    5  A    between atoms: C_11  and  C_12
REMARK    6  A    between atoms: C_12  and  N_13
REMARK    7  A    between atoms: C_16  and  C_17
REMARK                            x       y       z     vdW  Elec       q    Type
REMARK                         _______ _______ _______ _____ _____    ______ ____
ROOT
ATOM      1  C   UNL     1       1.741   7.062  19.527  0.00  0.00    +0.000 C 
ENDROOT
BRANCH   1   2
ATOM      2  N   UNL     1       1.900   8.531  19.584  0.00  0.00    +0.000 NA
ATOM      3  C   UNL     1       1.840   9.110  18.231  0.00  0.00    +0.000 C 
ATOM      4  C   UNL     1       1.643  10.622  18.185  0.00  0.00    +0.000 C 
ATOM      5  C   UNL     1       0.494  11.111  19.072  0.00  0.00    +0.000 C 
ATOM      6  C   UNL     1       0.728  10.586  20.491  0.00  0.00    +0.000 C 
ATOM      7  C   UNL     1       0.916   9.072  20.541  0.00  0.00    +0.000 C 
BRANCH   5   8
ATOM      8  C   UNL     1      -0.903  10.852  18.519  0.00  0.00    +0.000 A 
ATOM      9  C   UNL     1      -1.186   9.892  17.527  0.00  0.00    +0.000 A 
ATOM     10  C   UNL     1      -2.477   9.699  17.003  0.00  0.00    +0.000 A 
ATOM     11  C   UNL     1      -3.543  10.456  17.468  0.00  0.00    +0.000 A 
ATOM     12  C   UNL     1      -3.279  11.375  18.459  0.00  0.00    +0.000 A 
ATOM     13  C   UNL     1      -2.001  11.577  18.977  0.00  0.00    +0.000 A 
ATOM     14  C   UNL     1      -2.076  12.685  19.964  0.00  0.00    +0.000 C 
ATOM     15  C   UNL     1      -3.587  12.726  20.178  0.00  0.00    +0.000 C 
ATOM     16  O   UNL     1      -4.241  12.184  19.010  0.00  0.00    +0.000 OA
ENDBRANCH   5   8
ENDBRANCH   1   2
BRANCH   1  17
ATOM     17  C   UNL     1       3.049   6.265  19.399  0.00  0.00    +0.000 C 
BRANCH  17  21
ATOM     18  C   UNL     1       5.416   4.865  15.972  0.00  0.00    +0.000 C 
ATOM     19  C   UNL     1       4.972   6.330  16.006  0.00  0.00    +0.000 C 
ATOM     20  C   UNL     1       4.507   6.772  17.387  0.00  0.00    +0.000 C 
ATOM     21  C   UNL     1       3.420   5.852  17.961  0.00  0.00    +0.000 C 
ATOM     22  C   UNL     1       3.899   4.391  17.951  0.00  0.00    +0.000 C 
ATOM     23  C   UNL     1       4.348   3.938  16.565  0.00  0.00    +0.000 C 
BRANCH  18  26
ATOM     24  C   UNL     1       6.937   4.740  14.002  0.00  0.00    +0.000 C 
ATOM     25  O   UNL     1       7.832   5.359  14.561  0.00  0.00    +0.000 OA
ATOM     26  N   UNL     1       5.709   4.494  14.592  0.00  0.00    +0.000 N 
ATOM     27  H   UNL     1       5.065   3.861  14.141  0.00  0.00    +0.000 HD
BRANCH  24  28
ATOM     28  C   UNL     1       7.038   4.228  12.579  0.00  0.00    +0.000 C 
BRANCH  28  30
ATOM     29  N   UNL     1       4.649   3.037  11.799  0.00  0.00    +0.000 NA
ATOM     30  C   UNL     1       5.732   3.577  12.152  0.00  0.00    +0.000 C 
ENDBRANCH  28  30
ENDBRANCH  24  28
ENDBRANCH  18  26
ENDBRANCH  17  21
ENDBRANCH   1  17
TORSDOF 7
ENDMDL
MODEL 6
REMARK VINA RESULT:      -7.8      2.888      3.275
REMARK  Name = 
REMARK  7 active torsions:
REMARK  status: ('A' for Active; 'I' for Inactive)
REMARK    1  A    between atoms: C_2  and  C_3
REMARK    2  A    between atoms: C_3  and  C_4
REMARK    3  A    between atoms: N_6  and  C_7
REMARK    4  A    between atoms: C_10  and  C_11
REMARK    5  A    between atoms: C_11  and  C_12
REMARK    6  A    between atoms: C_12  and  N_13
REMARK    7  A    between atoms: C_16  and  C_17
REMARK                            x       y       z     vdW  Elec       q    Type
REMARK                         _______ _______ _______ _____ _____    ______ ____
ROOT
ATOM      1  C   UNL     1       1.819   6.886  20.741  0.00  0.00    +0.000 C 
ENDROOT
BRANCH   1   2
ATOM      2  N   UNL     1       1.876   5.669  19.901  0.00  0.00    +0.000 NA
ATOM      3  C   UNL     1       2.148   6.022  18.498  0.00  0.00    +0.000 C 
ATOM      4  C   UNL     1       2.572   4.857  17.610  0.00  0.00    +0.000 C 
ATOM      5  C   UNL     1       3.691   4.006  18.218  0.00  0.00    +0.000 C 
ATOM      6  C   UNL     1       3.249   3.560  19.614  0.00  0.00    +0.000 C 
ATOM      7  C   UNL     1       2.834   4.726  20.507  0.00  0.00    +0.000 C 
BRANCH   5   8
ATOM      8  C   UNL     1       5.080   4.633  18.159  0.00  0.00    +0.000 A 
ATOM      9  C   UNL     1       5.778   5.096  19.292  0.00  0.00    +0.000 A 
ATOM     10  C   UNL     1       7.042   5.708  19.208  0.00  0.00    +0.000 A 
ATOM     11  C   UNL     1       7.665   5.864  17.978  0.00  0.00    +0.000 A 
ATOM     12  C   UNL     1       7.002   5.386  16.870  0.00  0.00    +0.000 A 
ATOM     13  C   UNL     1       5.746   4.786  16.945  0.00  0.00    +0.000 A 
ATOM     14  C   UNL     1       5.308   4.464  15.562  0.00  0.00    +0.000 C 
ATOM     15  C   UNL     1       6.648   4.591  14.841  0.00  0.00    +0.000 C 
ATOM     16  O   UNL     1       7.506   5.472  15.596  0.00  0.00    +0.000 OA
ENDBRANCH   5   8
ENDBRANCH   1   2
BRANCH   1  17
ATOM     17  C   UNL     1       1.482   8.185  19.992  0.00  0.00    +0.000 C 
BRANCH  17  21
ATOM     18  C   UNL     1      -1.083  11.021  22.156  0.00  0.00    +0.000 C 
ATOM     19  C   UNL     1      -0.263  11.534  20.969  0.00  0.00    +0.000 C 
ATOM     20  C   UNL     1       0.267  10.409  20.091  0.00  0.00    +0.000 C 
ATOM     21  C   UNL     1       1.051   9.360  20.891  0.00  0.00    +0.000 C 
ATOM     22  C   UNL     1       0.198   8.832  22.057  0.00  0.00    +0.000 C 
ATOM     23  C   UNL     1      -0.320   9.955  22.951  0.00  0.00    +0.000 C 
BRANCH  18  26
ATOM     24  C   UNL     1      -2.725  12.623  23.130  0.00  0.00    +0.000 C 
ATOM     25  O   UNL     1      -3.655  12.187  22.466  0.00  0.00    +0.000 OA
ATOM     26  N   UNL     1      -1.429  12.151  23.012  0.00  0.00    +0.000 N 
ATOM     27  H   UNL     1      -0.734  12.447  23.682  0.00  0.00    +0.000 HD
BRANCH  24  28
ATOM     28  C   UNL     1      -2.863  13.771  24.111  0.00  0.00    +0.000 C 
BRANCH  28  30
ATOM     29  N   UNL     1      -0.498  15.229  24.245  0.00  0.00    +0.000 NA
ATOM     30  C   UNL     1      -1.571  14.568  24.184  0.00  0.00    +0.000 C 
ENDBRANCH  28  30
ENDBRANCH  24  28
ENDBRANCH  18  26
ENDBRANCH  17  21
ENDBRANCH   1  17
TORSDOF 7
ENDMDL
MODEL 7
REMARK VINA RESULT:      -7.7      1.398      2.040
REMARK  Name = 
REMARK  7 active torsions:
REMARK  status: ('A' for Active; 'I' for Inactive)
REMARK    1  A    between atoms: C_2  and  C_3
REMARK    2  A    between atoms: C_3  and  C_4
REMARK    3  A    between atoms: N_6  and  C_7
REMARK    4  A    between atoms: C_10  and  C_11
REMARK    5  A    between atoms: C_11  and  C_12
REMARK    6  A    between atoms: C_12  and  N_13
REMARK    7  A    between atoms: C_16  and  C_17
REMARK                            x       y       z     vdW  Elec       q    Type
REMARK                         _______ _______ _______ _____ _____    ______ ____
ROOT
ATOM      1  C   UNL     1       1.474   4.772  20.546  0.00  0.00    +0.000 C 
ENDROOT
BRANCH   1   2
ATOM      2  N   UNL     1       1.855   3.803  19.495  0.00  0.00    +0.000 NA
ATOM      3  C   UNL     1       1.976   4.477  18.191  0.00  0.00    +0.000 C 
ATOM      4  C   UNL     1       2.691   3.670  17.112  0.00  0.00    +0.000 C 
ATOM      5  C   UNL     1       4.023   3.078  17.580  0.00  0.00    +0.000 C 
ATOM      6  C   UNL     1       3.767   2.269  18.854  0.00  0.00    +0.000 C 
ATOM      7  C   UNL     1       3.060   3.078  19.939  0.00  0.00    +0.000 C 
BRANCH   5   8
ATOM      8  C   UNL     1       5.172   4.076  17.679  0.00  0.00    +0.000 A 
ATOM      9  C   UNL     1       5.618   4.639  18.892  0.00  0.00    +0.000 A 
ATOM     10  C   UNL     1       6.653   5.588  18.954  0.00  0.00    +0.000 A 
ATOM     11  C   UNL     1       7.297   6.000  17.796  0.00  0.00    +0.000 A 
ATOM     12  C   UNL     1       6.888   5.432  16.610  0.00  0.00    +0.000 A 
ATOM     13  C   UNL     1       5.857   4.496  16.540  0.00  0.00    +0.000 A 
ATOM     14  C   UNL     1       5.638   4.161  15.110  0.00  0.00    +0.000 C 
ATOM     15  C   UNL     1       6.934   4.712  14.524  0.00  0.00    +0.000 C 
ATOM     16  O   UNL     1       7.441   5.746  15.394  0.00  0.00    +0.000 OA
ENDBRANCH   5   8
ENDBRANCH   1   2
BRANCH   1  17
ATOM     17  C   UNL     1       2.238   6.105  20.518  0.00  0.00    +0.000 C 
BRANCH  17  21
ATOM     18  C   UNL     1       1.044  10.308  20.057  0.00  0.00    +0.000 C 
ATOM     19  C   UNL     1       0.452   9.501  21.215  0.00  0.00    +0.000 C 
ATOM     20  C   UNL     1       1.218   8.214  21.488  0.00  0.00    +0.000 C 
ATOM     21  C   UNL     1       1.370   7.345  20.232  0.00  0.00    +0.000 C 
ATOM     22  C   UNL     1       1.999   8.163  19.091  0.00  0.00    +0.000 C 
ATOM     23  C   UNL     1       1.223   9.445  18.802  0.00  0.00    +0.000 C 
BRANCH  18  26
ATOM     24  C   UNL     1      -1.095  11.292  19.239  0.00  0.00    +0.000 C 
ATOM     25  O   UNL     1      -1.539  10.211  18.879  0.00  0.00    +0.000 OA
ATOM     26  N   UNL     1       0.171  11.444  19.779  0.00  0.00    +0.000 N 
ATOM     27  H   UNL     1       0.430  12.330  20.187  0.00  0.00    +0.000 HD
BRANCH  24  28
ATOM     28  C   UNL     1      -1.845  12.600  19.080  0.00  0.00    +0.000 C 
BRANCH  28  30
ATOM     29  N   UNL     1      -3.917  12.768  20.928  0.00  0.00    +0.000 NA
ATOM     30  C   UNL     1      -2.977  12.692  20.090  0.00  0.00    +0.000 C 
ENDBRANCH  28  30
ENDBRANCH  24  28
ENDBRANCH  18  26
ENDBRANCH  17  21
ENDBRANCH   1  17
TORSDOF 7
ENDMDL
MODEL 8
REMARK VINA RESULT:      -7.4      1.677      2.131
REMARK  Name = 
REMARK  7 active torsions:
REMARK  status: ('A' for Active; 'I' for Inactive)
REMARK    1  A    between atoms: C_2  and  C_3
REMARK    2  A    between atoms: C_3  and  C_4
REMARK    3  A    between atoms: N_6  and  C_7
REMARK    4  A    between atoms: C_10  and  C_11
REMARK    5  A    between atoms: C_11  and  C_12
REMARK    6  A    between atoms: C_12  and  N_13
REMARK    7  A    between atoms: C_16  and  C_17
REMARK                            x       y       z     vdW  Elec       q    Type
REMARK                         _______ _______ _______ _____ _____    ______ ____
ROOT
ATOM      1  C   UNL     1       1.621   5.455  20.603  0.00  0.00    +0.000 C 
ENDROOT
BRANCH   1   2
ATOM      2  N   UNL     1       1.931   4.363  19.655  0.00  0.00    +0.000 NA
ATOM      3  C   UNL     1       2.092   4.893  18.291  0.00  0.00    +0.000 C 
ATOM      4  C   UNL     1       2.747   3.937  17.300  0.00  0.00    +0.000 C 
ATOM      5  C   UNL     1       4.039   3.305  17.829  0.00  0.00    +0.000 C 
ATOM      6  C   UNL     1       3.733   2.647  19.177  0.00  0.00    +0.000 C 
ATOM      7  C   UNL     1       3.086   3.606  20.173  0.00  0.00    +0.000 C 
BRANCH   5   8
ATOM      8  C   UNL     1       5.253   4.228  17.832  0.00  0.00    +0.000 A 
ATOM      9  C   UNL     1       5.793   4.807  18.997  0.00  0.00    +0.000 A 
ATOM     10  C   UNL     1       6.889   5.689  18.970  0.00  0.00    +0.000 A 
ATOM     11  C   UNL     1       7.499   6.012  17.766  0.00  0.00    +0.000 A 
ATOM     12  C   UNL     1       6.996   5.426  16.626  0.00  0.00    +0.000 A 
ATOM     13  C   UNL     1       5.905   4.558  16.645  0.00  0.00    +0.000 A 
ATOM     14  C   UNL     1       5.594   4.182  15.242  0.00  0.00    +0.000 C 
ATOM     15  C   UNL     1       6.892   4.623  14.572  0.00  0.00    +0.000 C 
ATOM     16  O   UNL     1       7.506   5.655  15.374  0.00  0.00    +0.000 OA
ENDBRANCH   5   8
ENDBRANCH   1   2
BRANCH   1  17
ATOM     17  C   UNL     1       2.227   6.823  20.251  0.00  0.00    +0.000 C 
BRANCH  17  21
ATOM     18  C   UNL     1       0.726  10.933  20.648  0.00  0.00    +0.000 C 
ATOM     19  C   UNL     1       0.462   9.944  21.786  0.00  0.00    +0.000 C 
ATOM     20  C   UNL     1       1.342   8.703  21.703  0.00  0.00    +0.000 C 
ATOM     21  C   UNL     1       1.248   8.010  20.337  0.00  0.00    +0.000 C 
ATOM     22  C   UNL     1       1.550   9.010  19.209  0.00  0.00    +0.000 C 
ATOM     23  C   UNL     1       0.658  10.246  19.278  0.00  0.00    +0.000 C 
BRANCH  18  26
ATOM     24  C   UNL     1      -1.484  11.950  20.104  0.00  0.00    +0.000 C 
ATOM     25  O   UNL     1      -1.811  11.026  19.372  0.00  0.00    +0.000 OA
ATOM     26  N   UNL     1      -0.250  12.015  20.729  0.00  0.00    +0.000 N 
ATOM     27  H   UNL     1      -0.089  12.724  21.429  0.00  0.00    +0.000 HD
BRANCH  24  28
ATOM     28  C   UNL     1      -2.356  13.162  20.361  0.00  0.00    +0.000 C 
BRANCH  28  30
ATOM     29  N   UNL     1      -1.530  14.489  22.662  0.00  0.00    +0.000 NA
ATOM     30  C   UNL     1      -1.905  13.887  21.619  0.00  0.00    +0.000 C 
ENDBRANCH  28  30
ENDBRANCH  24  28
ENDBRANCH  18  26
ENDBRANCH  17  21
ENDBRANCH   1  17
TORSDOF 7
ENDMDL
MODEL 9
REMARK VINA RESULT:      -7.4      2.877      9.069
REMARK  Name = 
REMARK  7 active torsions:
REMARK  status: ('A' for Active; 'I' for Inactive)
REMARK    1  A    between atoms: C_2  and  C_3
REMARK    2  A    between atoms: C_3  and  C_4
REMARK    3  A    between atoms: N_6  and  C_7
REMARK    4  A    between atoms: C_10  and  C_11
REMARK    5  A    between atoms: C_11  and  C_12
REMARK    6  A    between atoms: C_12  and  N_13
REMARK    7  A    between atoms: C_16  and  C_17
REMARK                            x       y       z     vdW  Elec       q    Type
REMARK                         _______ _______ _______ _____ _____    ______ ____
ROOT
ATOM      1  C   UNL     1       1.454   9.319  21.973  0.00  0.00    +0.000 C 
ENDROOT
BRANCH   1   2
ATOM      2  N   UNL     1       0.817  10.654  21.956  0.00  0.00    +0.000 NA
ATOM      3  C   UNL     1       1.167  11.378  20.722  0.00  0.00    +0.000 C 
ATOM      4  C   UNL     1       0.307  12.603  20.427  0.00  0.00    +0.000 C 
ATOM      5  C   UNL     1      -1.196  12.328  20.527  0.00  0.00    +0.000 C 
ATOM      6  C   UNL     1      -1.481  11.719  21.903  0.00  0.00    +0.000 C 
ATOM      7  C   UNL     1      -0.629  10.488  22.196  0.00  0.00    +0.000 C 
BRANCH   5   8
ATOM      8  C   UNL     1      -1.789  11.555  19.354  0.00  0.00    +0.000 A 
ATOM      9  C   UNL     1      -1.042  10.693  18.526  0.00  0.00    +0.000 A 
ATOM     10  C   UNL     1      -1.603  10.023  17.425  0.00  0.00    +0.000 A 
ATOM     11  C   UNL     1      -2.947  10.180  17.119  0.00  0.00    +0.000 A 
ATOM     12  C   UNL     1      -3.691  10.997  17.941  0.00  0.00    +0.000 A 
ATOM     13  C   UNL     1      -3.140  11.670  19.030  0.00  0.00    +0.000 A 
ATOM     14  C   UNL     1      -4.204  12.509  19.637  0.00  0.00    +0.000 C 
ATOM     15  C   UNL     1      -5.428  11.864  18.991  0.00  0.00    +0.000 C 
ATOM     16  O   UNL     1      -5.029  11.235  17.754  0.00  0.00    +0.000 OA
ENDBRANCH   5   8
ENDBRANCH   1   2
BRANCH   1  17
ATOM     17  C   UNL     1       0.551   8.155  21.537  0.00  0.00    +0.000 C 
BRANCH  17  21
ATOM     18  C   UNL     1       3.304   6.212  18.718  0.00  0.00    +0.000 C 
ATOM     19  C   UNL     1       2.533   7.449  18.252  0.00  0.00    +0.000 C 
ATOM     20  C   UNL     1       1.926   8.234  19.408  0.00  0.00    +0.000 C 
ATOM     21  C   UNL     1       1.061   7.356  20.322  0.00  0.00    +0.000 C 
ATOM     22  C   UNL     1       1.864   6.138  20.807  0.00  0.00    +0.000 C 
ATOM     23  C   UNL     1       2.458   5.338  19.651  0.00  0.00    +0.000 C 
BRANCH  18  26
ATOM     24  C   UNL     1       4.941   5.672  16.918  0.00  0.00    +0.000 C 
ATOM     25  O   UNL     1       5.706   6.569  17.243  0.00  0.00    +0.000 OA
ATOM     26  N   UNL     1       3.727   5.453  17.546  0.00  0.00    +0.000 N 
ATOM     27  H   UNL     1       3.205   4.616  17.330  0.00  0.00    +0.000 HD
BRANCH  24  28
ATOM     28  C   UNL     1       5.196   4.738  15.751  0.00  0.00    +0.000 C 
BRANCH  28  30
ATOM     29  N   UNL     1       7.625   5.335  14.535  0.00  0.00    +0.000 NA
ATOM     30  C   UNL     1       6.524   5.064  15.086  0.00  0.00    +0.000 C 
ENDBRANCH  28  30
ENDBRANCH  24  28
ENDBRANCH  18  26
ENDBRANCH  17  21
ENDBRANCH   1  17
TORSDOF 7
ENDMDL
