MODEL 1
REMARK VINA RESULT:      -8.7      0.000      0.000
REMARK  Name = 
REMARK  9 active torsions:
REMARK  status: ('A' for Active; 'I' for Inactive)
REMARK    1  A    between atoms: C_1  and  O_2
REMARK    2  A    between atoms: O_2  and  C_3
REMARK    3  A    between atoms: C_6  and  C_7
REMARK    4  A    between atoms: N_8  and  N_9
REMARK    5  A    between atoms: C_10  and  C_12
REMARK    6  A    between atoms: C_15  and  N_16
REMARK    7  A    between atoms: N_16  and  C_17
REMARK    8  A    between atoms: N_16  and  S_18
REMARK    9  A    between atoms: S_18  and  C_21
REMARK                            x       y       z     vdW  Elec       q    Type
REMARK                         _______ _______ _______ _____ _____    ______ ____
ROOT
ATOM      1  C   UNL     1       6.755   5.935  18.012  0.00  0.00    +0.000 A 
ATOM      2  C   UNL     1       6.247   5.275  16.881  0.00  0.00    +0.000 A 
ATOM      3  C   UNL     1       5.322   4.236  17.001  0.00  0.00    +0.000 A 
ATOM      4  C   UNL     1       4.897   3.827  18.258  0.00  0.00    +0.000 A 
ATOM      5  C   UNL     1       5.417   4.456  19.401  0.00  0.00    +0.000 A 
ATOM      6  C   UNL     1       6.348   5.510  19.282  0.00  0.00    +0.000 A 
ENDROOT
BRANCH   1   8
ATOM      7  N   UNL     1       8.239   7.718  18.858  0.00  0.00    +0.000 N 
ATOM      8  C   UNL     1       7.714   7.052  17.756  0.00  0.00    +0.000 C 
ATOM      9  O   UNL     1       7.947   7.356  16.588  0.00  0.00    +0.000 OA
ATOM     10  H   UNL     1       7.972   7.496  19.808  0.00  0.00    +0.000 HD
BRANCH   7  12
ATOM     11  C   UNL     1       8.449   9.942  18.372  0.00  0.00    +0.000 C 
ATOM     12  N   UNL     1       9.025   8.809  18.617  0.00  0.00    +0.000 NA
BRANCH  11  16
ATOM     13  C   UNL     1      10.815  13.439  17.630  0.00  0.00    +0.000 A 
ATOM     14  C   UNL     1      11.427  12.202  17.836  0.00  0.00    +0.000 A 
ATOM     15  C   UNL     1      10.659  11.060  18.062  0.00  0.00    +0.000 A 
ATOM     16  C   UNL     1       9.264  11.151  18.107  0.00  0.00    +0.000 A 
ATOM     17  C   UNL     1       8.643  12.389  17.915  0.00  0.00    +0.000 A 
ATOM     18  C   UNL     1       9.422  13.533  17.678  0.00  0.00    +0.000 A 
BRANCH  13  20
ATOM     19  C   UNL     1      11.120  15.660  16.871  0.00  0.00    +0.000 C 
ATOM     20  O   UNL     1      11.679  14.481  17.437  0.00  0.00    +0.000 OA
ENDBRANCH  13  20
ENDBRANCH  11  16
ENDBRANCH   7  12
ENDBRANCH   1   8
BRANCH   4  21
ATOM     21  N   UNL     1       3.858   2.843  18.381  0.00  0.00    +0.000 N 
ATOM     22  C   UNL     1       4.123   1.696  19.272  0.00  0.00    +0.000 C 
BRANCH  21  23
ATOM     23  S   UNL     1       2.225   3.301  18.156  0.00  0.00    +0.000 S 
ATOM     24  O   UNL     1       1.957   3.398  16.740  0.00  0.00    +0.000 OA
ATOM     25  O   UNL     1       1.430   2.417  18.996  0.00  0.00    +0.000 OA
BRANCH  23  26
ATOM     26  C   UNL     1       2.033   4.952  18.853  0.00  0.00    +0.000 A 
ATOM     27  C   UNL     1       1.758   5.127  20.212  0.00  0.00    +0.000 A 
ATOM     28  C   UNL     1       1.752   6.421  20.766  0.00  0.00    +0.000 A 
ATOM     29  C   UNL     1       2.042   7.530  19.970  0.00  0.00    +0.000 A 
ATOM     30  C   UNL     1       2.361   7.352  18.626  0.00  0.00    +0.000 A 
ATOM     31  C   UNL     1       2.372   6.068  18.071  0.00  0.00    +0.000 A 
ENDBRANCH  23  26
ENDBRANCH  21  23
ENDBRANCH   4  21
TORSDOF 7
ENDMDL
MODEL 2
REMARK VINA RESULT:      -8.6      0.545      1.324
REMARK  Name = 
REMARK  9 active torsions:
REMARK  status: ('A' for Active; 'I' for Inactive)
REMARK    1  A    between atoms: C_1  and  O_2
REMARK    2  A    between atoms: O_2  and  C_3
REMARK    3  A    between atoms: C_6  and  C_7
REMARK    4  A    between atoms: N_8  and  N_9
REMARK    5  A    between atoms: C_10  and  C_12
REMARK    6  A    between atoms: C_15  and  N_16
REMARK    7  A    between atoms: N_16  and  C_17
REMARK    8  A    between atoms: N_16  and  S_18
REMARK    9  A    between atoms: S_18  and  C_21
REMARK                            x       y       z     vdW  Elec       q    Type
REMARK                         _______ _______ _______ _____ _____    ______ ____
ROOT
ATOM      1  C   UNL     1       6.604   5.951  17.708  0.00  0.00    +0.000 A 
ATOM      2  C   UNL     1       5.911   5.374  16.631  0.00  0.00    +0.000 A 
ATOM      3  C   UNL     1       4.965   4.367  16.831  0.00  0.00    +0.000 A 
ATOM      4  C   UNL     1       4.703   3.906  18.114  0.00  0.00    +0.000 A 
ATOM      5  C   UNL     1       5.408   4.451  19.201  0.00  0.00    +0.000 A 
ATOM      6  C   UNL     1       6.361   5.473  19.001  0.00  0.00    +0.000 A 
ENDROOT
BRANCH   1   8
ATOM      7  N   UNL     1       7.871   7.965  18.366  0.00  0.00    +0.000 N 
ATOM      8  C   UNL     1       7.568   7.042  17.372  0.00  0.00    +0.000 C 
ATOM      9  O   UNL     1       8.000   7.096  16.222  0.00  0.00    +0.000 OA
ATOM     10  H   UNL     1       7.443   7.941  19.282  0.00  0.00    +0.000 HD
BRANCH   7  12
ATOM     11  C   UNL     1       8.910   9.926  18.916  0.00  0.00    +0.000 C 
ATOM     12  N   UNL     1       8.663   9.023  18.021  0.00  0.00    +0.000 NA
BRANCH  11  16
ATOM     13  C   UNL     1      11.388  13.284  17.933  0.00  0.00    +0.000 A 
ATOM     14  C   UNL     1      10.082  13.201  17.446  0.00  0.00    +0.000 A 
ATOM     15  C   UNL     1       9.269  12.117  17.777  0.00  0.00    +0.000 A 
ATOM     16  C   UNL     1       9.766  11.089  18.584  0.00  0.00    +0.000 A 
ATOM     17  C   UNL     1      11.077  11.158  19.066  0.00  0.00    +0.000 A 
ATOM     18  C   UNL     1      11.887  12.256  18.737  0.00  0.00    +0.000 A 
BRANCH  13  20
ATOM     19  C   UNL     1      11.352  15.345  16.770  0.00  0.00    +0.000 C 
ATOM     20  O   UNL     1      12.085  14.386  17.522  0.00  0.00    +0.000 OA
ENDBRANCH  13  20
ENDBRANCH  11  16
ENDBRANCH   7  12
ENDBRANCH   1   8
BRANCH   4  21
ATOM     21  N   UNL     1       3.648   2.959  18.337  0.00  0.00    +0.000 N 
ATOM     22  C   UNL     1       4.002   1.715  19.051  0.00  0.00    +0.000 C 
BRANCH  21  23
ATOM     23  S   UNL     1       2.032   3.504  18.468  0.00  0.00    +0.000 S 
ATOM     24  O   UNL     1       1.452   3.570  17.146  0.00  0.00    +0.000 OA
ATOM     25  O   UNL     1       1.407   2.696  19.505  0.00  0.00    +0.000 OA
BRANCH  23  26
ATOM     26  C   UNL     1       2.086   5.186  19.114  0.00  0.00    +0.000 A 
ATOM     27  C   UNL     1       2.267   6.275  18.257  0.00  0.00    +0.000 A 
ATOM     28  C   UNL     1       2.166   7.587  18.758  0.00  0.00    +0.000 A 
ATOM     29  C   UNL     1       1.864   7.806  20.103  0.00  0.00    +0.000 A 
ATOM     30  C   UNL     1       1.639   6.721  20.947  0.00  0.00    +0.000 A 
ATOM     31  C   UNL     1       1.734   5.415  20.453  0.00  0.00    +0.000 A 
ENDBRANCH  23  26
ENDBRANCH  21  23
ENDBRANCH   4  21
TORSDOF 7
ENDMDL
MODEL 3
REMARK VINA RESULT:      -8.4      0.939      1.157
REMARK  Name = 
REMARK  9 active torsions:
REMARK  status: ('A' for Active; 'I' for Inactive)
REMARK    1  A    between atoms: C_1  and  O_2
REMARK    2  A    between atoms: O_2  and  C_3
REMARK    3  A    between atoms: C_6  and  C_7
REMARK    4  A    between atoms: N_8  and  N_9
REMARK    5  A    between atoms: C_10  and  C_12
REMARK    6  A    between atoms: C_15  and  N_16
REMARK    7  A    between atoms: N_16  and  C_17
REMARK    8  A    between atoms: N_16  and  S_18
REMARK    9  A    between atoms: S_18  and  C_21
REMARK                            x       y       z     vdW  Elec       q    Type
REMARK                         _______ _______ _______ _____ _____    ______ ____
ROOT
ATOM      1  C   UNL     1       6.473   5.824  17.846  0.00  0.00    +0.000 A 
ATOM      2  C   UNL     1       5.857   5.250  16.721  0.00  0.00    +0.000 A 
ATOM      3  C   UNL     1       4.903   4.240  16.852  0.00  0.00    +0.000 A 
ATOM      4  C   UNL     1       4.554   3.773  18.112  0.00  0.00    +0.000 A 
ATOM      5  C   UNL     1       5.181   4.316  19.247  0.00  0.00    +0.000 A 
ATOM      6  C   UNL     1       6.142   5.341  19.117  0.00  0.00    +0.000 A 
ENDROOT
BRANCH   1   8
ATOM      7  N   UNL     1       7.862   7.696  18.659  0.00  0.00    +0.000 N 
ATOM      8  C   UNL     1       7.454   6.919  17.581  0.00  0.00    +0.000 C 
ATOM      9  O   UNL     1       7.808   7.108  16.419  0.00  0.00    +0.000 OA
ATOM     10  H   UNL     1       7.497   7.567  19.594  0.00  0.00    +0.000 HD
BRANCH   7  12
ATOM     11  C   UNL     1       8.936   9.590  19.356  0.00  0.00    +0.000 C 
ATOM     12  N   UNL     1       8.670   8.765  18.395  0.00  0.00    +0.000 NA
BRANCH  11  16
ATOM     13  C   UNL     1      11.482  12.965  18.643  0.00  0.00    +0.000 A 
ATOM     14  C   UNL     1      10.904  12.277  17.575  0.00  0.00    +0.000 A 
ATOM     15  C   UNL     1      10.063  11.188  17.806  0.00  0.00    +0.000 A 
ATOM     16  C   UNL     1       9.810  10.762  19.113  0.00  0.00    +0.000 A 
ATOM     17  C   UNL     1      10.396  11.438  20.188  0.00  0.00    +0.000 A 
ATOM     18  C   UNL     1      11.234  12.538  19.950  0.00  0.00    +0.000 A 
BRANCH  13  20
ATOM     19  C   UNL     1      11.877  14.771  17.165  0.00  0.00    +0.000 C 
ATOM     20  O   UNL     1      12.298  14.001  18.284  0.00  0.00    +0.000 OA
ENDBRANCH  13  20
ENDBRANCH  11  16
ENDBRANCH   7  12
ENDBRANCH   1   8
BRANCH   4  21
ATOM     21  N   UNL     1       3.489   2.822  18.258  0.00  0.00    +0.000 N 
ATOM     22  C   UNL     1       3.865   1.395  18.297  0.00  0.00    +0.000 C 
BRANCH  21  23
ATOM     23  S   UNL     1       2.050   3.277  19.064  0.00  0.00    +0.000 S 
ATOM     24  O   UNL     1       0.917   2.824  18.291  0.00  0.00    +0.000 OA
ATOM     25  O   UNL     1       2.207   2.862  20.451  0.00  0.00    +0.000 OA
BRANCH  23  26
ATOM     26  C   UNL     1       1.998   5.078  19.087  0.00  0.00    +0.000 A 
ATOM     27  C   UNL     1       2.043   5.779  20.296  0.00  0.00    +0.000 A 
ATOM     28  C   UNL     1       2.145   7.183  20.290  0.00  0.00    +0.000 A 
ATOM     29  C   UNL     1       2.222   7.878  19.082  0.00  0.00    +0.000 A 
ATOM     30  C   UNL     1       2.223   7.177  17.879  0.00  0.00    +0.000 A 
ATOM     31  C   UNL     1       2.126   5.781  17.879  0.00  0.00    +0.000 A 
ENDBRANCH  23  26
ENDBRANCH  21  23
ENDBRANCH   4  21
TORSDOF 7
ENDMDL
MODEL 4
REMARK VINA RESULT:      -8.1      0.925      1.292
REMARK  Name = 
REMARK  9 active torsions:
REMARK  status: ('A' for Active; 'I' for Inactive)
REMARK    1  A    between atoms: C_1  and  O_2
REMARK    2  A    between atoms: O_2  and  C_3
REMARK    3  A    between atoms: C_6  and  C_7
REMARK    4  A    between atoms: N_8  and  N_9
REMARK    5  A    between atoms: C_10  and  C_12
REMARK    6  A    between atoms: C_15  and  N_16
REMARK    7  A    between atoms: N_16  and  C_17
REMARK    8  A    between atoms: N_16  and  S_18
REMARK    9  A    between atoms: S_18  and  C_21
REMARK                            x       y       z     vdW  Elec       q    Type
REMARK                         _______ _______ _______ _____ _____    ______ ____
ROOT
ATOM      1  C   UNL     1       6.662   5.925  17.842  0.00  0.00    +0.000 A 
ATOM      2  C   UNL     1       6.271   5.704  19.173  0.00  0.00    +0.000 A 
ATOM      3  C   UNL     1       5.333   4.724  19.501  0.00  0.00    +0.000 A 
ATOM      4  C   UNL     1       4.757   3.952  18.501  0.00  0.00    +0.000 A 
ATOM      5  C   UNL     1       5.115   4.179  17.161  0.00  0.00    +0.000 A 
ATOM      6  C   UNL     1       6.067   5.166  16.828  0.00  0.00    +0.000 A 
ENDROOT
BRANCH   1   8
ATOM      7  N   UNL     1       8.171   7.665  18.732  0.00  0.00    +0.000 N 
ATOM      8  C   UNL     1       7.697   6.980  17.619  0.00  0.00    +0.000 C 
ATOM      9  O   UNL     1       8.035   7.222  16.462  0.00  0.00    +0.000 OA
ATOM     10  H   UNL     1       7.820   7.498  19.666  0.00  0.00    +0.000 HD
BRANCH   7  12
ATOM     11  C   UNL     1       8.828   9.816  19.141  0.00  0.00    +0.000 C 
ATOM     12  N   UNL     1       9.031   8.703  18.513  0.00  0.00    +0.000 NA
BRANCH  11  16
ATOM     13  C   UNL     1      11.451  13.157  18.560  0.00  0.00    +0.000 A 
ATOM     14  C   UNL     1      11.649  12.280  19.627  0.00  0.00    +0.000 A 
ATOM     15  C   UNL     1      10.805  11.183  19.810  0.00  0.00    +0.000 A 
ATOM     16  C   UNL     1       9.737  10.967  18.934  0.00  0.00    +0.000 A 
ATOM     17  C   UNL     1       9.524  11.849  17.869  0.00  0.00    +0.000 A 
ATOM     18  C   UNL     1      10.382  12.945  17.685  0.00  0.00    +0.000 A 
BRANCH  13  20
ATOM     19  C   UNL     1      12.076  15.286  19.383  0.00  0.00    +0.000 C 
ATOM     20  O   UNL     1      12.333  14.200  18.503  0.00  0.00    +0.000 OA
ENDBRANCH  13  20
ENDBRANCH  11  16
ENDBRANCH   7  12
ENDBRANCH   1   8
BRANCH   4  21
ATOM     21  N   UNL     1       3.885   2.864  18.844  0.00  0.00    +0.000 N 
ATOM     22  C   UNL     1       4.472   1.754  19.622  0.00  0.00    +0.000 C 
BRANCH  21  23
ATOM     23  S   UNL     1       2.207   3.145  19.021  0.00  0.00    +0.000 S 
ATOM     24  O   UNL     1       1.539   2.776  17.794  0.00  0.00    +0.000 OA
ATOM     25  O   UNL     1       1.818   2.531  20.283  0.00  0.00    +0.000 OA
BRANCH  23  26
ATOM     26  C   UNL     1       1.983   4.919  19.241  0.00  0.00    +0.000 A 
ATOM     27  C   UNL     1       1.821   5.466  20.518  0.00  0.00    +0.000 A 
ATOM     28  C   UNL     1       1.789   6.863  20.684  0.00  0.00    +0.000 A 
ATOM     29  C   UNL     1       1.943   7.708  19.582  0.00  0.00    +0.000 A 
ATOM     30  C   UNL     1       2.150   7.163  18.317  0.00  0.00    +0.000 A 
ATOM     31  C   UNL     1       2.186   5.775  18.147  0.00  0.00    +0.000 A 
ENDBRANCH  23  26
ENDBRANCH  21  23
ENDBRANCH   4  21
TORSDOF 7
ENDMDL
MODEL 5
REMARK VINA RESULT:      -8.1      6.149      9.167
REMARK  Name = 
REMARK  9 active torsions:
REMARK  status: ('A' for Active; 'I' for Inactive)
REMARK    1  A    between atoms: C_1  and  O_2
REMARK    2  A    between atoms: O_2  and  C_3
REMARK    3  A    between atoms: C_6  and  C_7
REMARK    4  A    between atoms: N_8  and  N_9
REMARK    5  A    between atoms: C_10  and  C_12
REMARK    6  A    between atoms: C_15  and  N_16
REMARK    7  A    between atoms: N_16  and  C_17
REMARK    8  A    between atoms: N_16  and  S_18
REMARK    9  A    between atoms: S_18  and  C_21
REMARK                            x       y       z     vdW  Elec       q    Type
REMARK                         _______ _______ _______ _____ _____    ______ ____
ROOT
ATOM      1  C   UNL     1       1.398   9.186  19.471  0.00  0.00    +0.000 A 
ATOM      2  C   UNL     1       1.719   8.090  20.289  0.00  0.00    +0.000 A 
ATOM      3  C   UNL     1       2.308   6.938  19.763  0.00  0.00    +0.000 A 
ATOM      4  C   UNL     1       2.575   6.855  18.403  0.00  0.00    +0.000 A 
ATOM      5  C   UNL     1       2.233   7.930  17.565  0.00  0.00    +0.000 A 
ATOM      6  C   UNL     1       1.643   9.097  18.096  0.00  0.00    +0.000 A 
ENDROOT
BRANCH   1   8
ATOM      7  N   UNL     1       0.775  10.374  21.544  0.00  0.00    +0.000 N 
ATOM      8  C   UNL     1       0.802  10.373  20.154  0.00  0.00    +0.000 C 
ATOM      9  O   UNL     1       0.320  11.261  19.453  0.00  0.00    +0.000 OA
ATOM     10  H   UNL     1       1.110   9.595  22.096  0.00  0.00    +0.000 HD
BRANCH   7  12
ATOM     11  C   UNL     1      -1.113  11.249  22.488  0.00  0.00    +0.000 C 
ATOM     12  N   UNL     1       0.129  11.407  22.160  0.00  0.00    +0.000 NA
BRANCH  11  16
ATOM     13  C   UNL     1      -3.235  14.415  24.453  0.00  0.00    +0.000 A 
ATOM     14  C   UNL     1      -1.930  14.613  24.000  0.00  0.00    +0.000 A 
ATOM     15  C   UNL     1      -1.243  13.589  23.346  0.00  0.00    +0.000 A 
ATOM     16  C   UNL     1      -1.852  12.344  23.160  0.00  0.00    +0.000 A 
ATOM     17  C   UNL     1      -3.155  12.133  23.623  0.00  0.00    +0.000 A 
ATOM     18  C   UNL     1      -3.844  13.170  24.272  0.00  0.00    +0.000 A 
BRANCH  13  20
ATOM     19  C   UNL     1      -4.326  16.505  24.254  0.00  0.00    +0.000 C 
ATOM     20  O   UNL     1      -3.790  15.489  25.091  0.00  0.00    +0.000 OA
ENDBRANCH  13  20
ENDBRANCH  11  16
ENDBRANCH   7  12
ENDBRANCH   1   8
BRANCH   4  21
ATOM     21  N   UNL     1       3.288   5.725  17.878  0.00  0.00    +0.000 N 
ATOM     22  C   UNL     1       4.738   5.661  18.152  0.00  0.00    +0.000 C 
BRANCH  21  23
ATOM     23  S   UNL     1       2.470   4.242  17.636  0.00  0.00    +0.000 S 
ATOM     24  O   UNL     1       1.127   4.518  17.181  0.00  0.00    +0.000 OA
ATOM     25  O   UNL     1       3.359   3.406  16.842  0.00  0.00    +0.000 OA
BRANCH  23  26
ATOM     26  C   UNL     1       2.337   3.438  19.243  0.00  0.00    +0.000 A 
ATOM     27  C   UNL     1       3.468   2.911  19.875  0.00  0.00    +0.000 A 
ATOM     28  C   UNL     1       3.370   2.414  21.188  0.00  0.00    +0.000 A 
ATOM     29  C   UNL     1       2.155   2.465  21.873  0.00  0.00    +0.000 A 
ATOM     30  C   UNL     1       1.039   3.031  21.260  0.00  0.00    +0.000 A 
ATOM     31  C   UNL     1       1.131   3.530  19.956  0.00  0.00    +0.000 A 
ENDBRANCH  23  26
ENDBRANCH  21  23
ENDBRANCH   4  21
TORSDOF 7
ENDMDL
MODEL 6
REMARK VINA RESULT:      -7.8      6.066      9.235
REMARK  Name = 
REMARK  9 active torsions:
REMARK  status: ('A' for Active; 'I' for Inactive)
REMARK    1  A    between atoms: C_1  and  O_2
REMARK    2  A    between atoms: O_2  and  C_3
REMARK    3  A    between atoms: C_6  and  C_7
REMARK    4  A    between atoms: N_8  and  N_9
REMARK    5  A    between atoms: C_10  and  C_12
REMARK    6  A    between atoms: C_15  and  N_16
REMARK    7  A    between atoms: N_16  and  C_17
REMARK    8  A    between atoms: N_16  and  S_18
REMARK    9  A    between atoms: S_18  and  C_21
REMARK                            x       y       z     vdW  Elec       q    Type
REMARK                         _______ _______ _______ _____ _____    ______ ____
ROOT
ATOM      1  C   UNL     1       1.472   8.421  20.073  0.00  0.00    +0.000 A 
ATOM      2  C   UNL     1       1.390   7.305  20.922  0.00  0.00    +0.000 A 
ATOM      3  C   UNL     1       1.867   6.054  20.526  0.00  0.00    +0.000 A 
ATOM      4  C   UNL     1       2.425   5.892  19.265  0.00  0.00    +0.000 A 
ATOM      5  C   UNL     1       2.488   6.991  18.392  0.00  0.00    +0.000 A 
ATOM      6  C   UNL     1       2.012   8.257  18.792  0.00  0.00    +0.000 A 
ENDROOT
BRANCH   1   8
ATOM      7  N   UNL     1       0.740   9.793  21.992  0.00  0.00    +0.000 N 
ATOM      8  C   UNL     1       0.957   9.712  20.621  0.00  0.00    +0.000 C 
ATOM      9  O   UNL     1       0.703  10.616  19.826  0.00  0.00    +0.000 OA
ATOM     10  H   UNL     1       0.886   9.008  22.614  0.00  0.00    +0.000 HD
BRANCH   7  12
ATOM     11  C   UNL     1      -1.115  10.942  22.672  0.00  0.00    +0.000 C 
ATOM     12  N   UNL     1       0.164  10.934  22.472  0.00  0.00    +0.000 NA
BRANCH  11  16
ATOM     13  C   UNL     1      -3.053  14.464  24.161  0.00  0.00    +0.000 A 
ATOM     14  C   UNL     1      -3.742  13.253  24.093  0.00  0.00    +0.000 A 
ATOM     15  C   UNL     1      -3.109  12.102  23.624  0.00  0.00    +0.000 A 
ATOM     16  C   UNL     1      -1.780  12.159  23.193  0.00  0.00    +0.000 A 
ATOM     17  C   UNL     1      -1.086  13.372  23.245  0.00  0.00    +0.000 A 
ATOM     18  C   UNL     1      -1.726  14.525  23.727  0.00  0.00    +0.000 A 
BRANCH  13  20
ATOM     19  C   UNL     1      -4.165  16.491  23.654  0.00  0.00    +0.000 C 
ATOM     20  O   UNL     1      -3.790  15.519  24.622  0.00  0.00    +0.000 OA
ENDBRANCH  13  20
ENDBRANCH  11  16
ENDBRANCH   7  12
ENDBRANCH   1   8
BRANCH   4  21
ATOM     21  N   UNL     1       3.026   4.640  18.900  0.00  0.00    +0.000 N 
ATOM     22  C   UNL     1       2.276   3.787  17.955  0.00  0.00    +0.000 C 
BRANCH  21  23
ATOM     23  S   UNL     1       4.728   4.477  18.922  0.00  0.00    +0.000 S 
ATOM     24  O   UNL     1       5.290   5.545  19.716  0.00  0.00    +0.000 OA
ATOM     25  O   UNL     1       5.005   3.088  19.257  0.00  0.00    +0.000 OA
BRANCH  23  26
ATOM     26  C   UNL     1       5.308   4.705  17.231  0.00  0.00    +0.000 A 
ATOM     27  C   UNL     1       5.676   3.607  16.447  0.00  0.00    +0.000 A 
ATOM     28  C   UNL     1       5.990   3.789  15.087  0.00  0.00    +0.000 A 
ATOM     29  C   UNL     1       5.914   5.058  14.510  0.00  0.00    +0.000 A 
ATOM     30  C   UNL     1       5.505   6.144  15.279  0.00  0.00    +0.000 A 
ATOM     31  C   UNL     1       5.187   5.968  16.631  0.00  0.00    +0.000 A 
ENDBRANCH  23  26
ENDBRANCH  21  23
ENDBRANCH   4  21
TORSDOF 7
ENDMDL
MODEL 7
REMARK VINA RESULT:      -7.7      5.571      8.766
REMARK  Name = 
REMARK  9 active torsions:
REMARK  status: ('A' for Active; 'I' for Inactive)
REMARK    1  A    between atoms: C_1  and  O_2
REMARK    2  A    between atoms: O_2  and  C_3
REMARK    3  A    between atoms: C_6  and  C_7
REMARK    4  A    between atoms: N_8  and  N_9
REMARK    5  A    between atoms: C_10  and  C_12
REMARK    6  A    between atoms: C_15  and  N_16
REMARK    7  A    between atoms: N_16  and  C_17
REMARK    8  A    between atoms: N_16  and  S_18
REMARK    9  A    between atoms: S_18  and  C_21
REMARK                            x       y       z     vdW  Elec       q    Type
REMARK                         _______ _______ _______ _____ _____    ______ ____
ROOT
ATOM      1  C   UNL     1       1.777   7.746  19.958  0.00  0.00    +0.000 A 
ATOM      2  C   UNL     1       1.401   6.698  20.813  0.00  0.00    +0.000 A 
ATOM      3  C   UNL     1       1.845   5.392  20.600  0.00  0.00    +0.000 A 
ATOM      4  C   UNL     1       2.665   5.105  19.517  0.00  0.00    +0.000 A 
ATOM      5  C   UNL     1       3.027   6.137  18.634  0.00  0.00    +0.000 A 
ATOM      6  C   UNL     1       2.584   7.459  18.851  0.00  0.00    +0.000 A 
ENDROOT
BRANCH   1   8
ATOM      7  N   UNL     1       1.117   9.414  21.654  0.00  0.00    +0.000 N 
ATOM      8  C   UNL     1       1.265   9.106  20.307  0.00  0.00    +0.000 C 
ATOM      9  O   UNL     1       0.953   9.859  19.386  0.00  0.00    +0.000 OA
ATOM     10  H   UNL     1       1.309   8.748  22.391  0.00  0.00    +0.000 HD
BRANCH   7  12
ATOM     11  C   UNL     1      -0.671  10.619  22.416  0.00  0.00    +0.000 C 
ATOM     12  N   UNL     1       0.543  10.614  21.966  0.00  0.00    +0.000 NA
BRANCH  11  16
ATOM     13  C   UNL     1      -2.595  14.317  23.415  0.00  0.00    +0.000 A 
ATOM     14  C   UNL     1      -3.214  13.099  23.699  0.00  0.00    +0.000 A 
ATOM     15  C   UNL     1      -2.583  11.894  23.388  0.00  0.00    +0.000 A 
ATOM     16  C   UNL     1      -1.330  11.898  22.768  0.00  0.00    +0.000 A 
ATOM     17  C   UNL     1      -0.709  13.115  22.468  0.00  0.00    +0.000 A 
ATOM     18  C   UNL     1      -1.345  14.324  22.792  0.00  0.00    +0.000 A 
BRANCH  13  20
ATOM     19  C   UNL     1      -3.407  15.719  25.141  0.00  0.00    +0.000 C 
ATOM     20  O   UNL     1      -3.325  15.423  23.752  0.00  0.00    +0.000 OA
ENDBRANCH  13  20
ENDBRANCH  11  16
ENDBRANCH   7  12
ENDBRANCH   1   8
BRANCH   4  21
ATOM     21  N   UNL     1       3.221   3.790  19.363  0.00  0.00    +0.000 N 
ATOM     22  C   UNL     1       3.088   2.868  20.509  0.00  0.00    +0.000 C 
BRANCH  21  23
ATOM     23  S   UNL     1       3.334   3.094  17.805  0.00  0.00    +0.000 S 
ATOM     24  O   UNL     1       3.548   1.672  17.941  0.00  0.00    +0.000 OA
ATOM     25  O   UNL     1       2.198   3.597  17.045  0.00  0.00    +0.000 OA
BRANCH  23  26
ATOM     26  C   UNL     1       4.801   3.784  17.018  0.00  0.00    +0.000 A 
ATOM     27  C   UNL     1       4.792   4.126  15.662  0.00  0.00    +0.000 A 
ATOM     28  C   UNL     1       5.896   4.792  15.099  0.00  0.00    +0.000 A 
ATOM     29  C   UNL     1       6.993   5.135  15.892  0.00  0.00    +0.000 A 
ATOM     30  C   UNL     1       6.983   4.835  17.252  0.00  0.00    +0.000 A 
ATOM     31  C   UNL     1       5.886   4.176  17.818  0.00  0.00    +0.000 A 
ENDBRANCH  23  26
ENDBRANCH  21  23
ENDBRANCH   4  21
TORSDOF 7
ENDMDL
MODEL 8
REMARK VINA RESULT:      -7.6      5.941      9.019
REMARK  Name = 
REMARK  9 active torsions:
REMARK  status: ('A' for Active; 'I' for Inactive)
REMARK    1  A    between atoms: C_1  and  O_2
REMARK    2  A    between atoms: O_2  and  C_3
REMARK    3  A    between atoms: C_6  and  C_7
REMARK    4  A    between atoms: N_8  and  N_9
REMARK    5  A    between atoms: C_10  and  C_12
REMARK    6  A    between atoms: C_15  and  N_16
REMARK    7  A    between atoms: N_16  and  C_17
REMARK    8  A    between atoms: N_16  and  S_18
REMARK    9  A    between atoms: S_18  and  C_21
REMARK                            x       y       z     vdW  Elec       q    Type
REMARK                         _______ _______ _______ _____ _____    ______ ____
ROOT
ATOM      1  C   UNL     1       1.622   8.655  19.341  0.00  0.00    +0.000 A 
ATOM      2  C   UNL     1       2.157   8.661  18.042  0.00  0.00    +0.000 A 
ATOM      3  C   UNL     1       2.927   7.597  17.568  0.00  0.00    +0.000 A 
ATOM      4  C   UNL     1       3.189   6.510  18.390  0.00  0.00    +0.000 A 
ATOM      5  C   UNL     1       2.686   6.500  19.703  0.00  0.00    +0.000 A 
ATOM      6  C   UNL     1       1.903   7.572  20.182  0.00  0.00    +0.000 A 
ENDROOT
BRANCH   1   8
ATOM      7  N   UNL     1       0.604  10.084  21.078  0.00  0.00    +0.000 N 
ATOM      8  C   UNL     1       0.788   9.835  19.722  0.00  0.00    +0.000 C 
ATOM      9  O   UNL     1       0.268  10.489  18.822  0.00  0.00    +0.000 OA
ATOM     10  H   UNL     1       0.982   9.484  21.799  0.00  0.00    +0.000 HD
BRANCH   7  12
ATOM     11  C   UNL     1      -0.657  11.166  22.648  0.00  0.00    +0.000 C 
ATOM     12  N   UNL     1      -0.249  11.094  21.421  0.00  0.00    +0.000 NA
BRANCH  11  16
ATOM     13  C   UNL     1      -3.346  14.289  23.829  0.00  0.00    +0.000 A 
ATOM     14  C   UNL     1      -3.762  12.956  23.838  0.00  0.00    +0.000 A 
ATOM     15  C   UNL     1      -2.884  11.937  23.468  0.00  0.00    +0.000 A 
ATOM     16  C   UNL     1      -1.582  12.246  23.063  0.00  0.00    +0.000 A 
ATOM     17  C   UNL     1      -1.161  13.580  23.039  0.00  0.00    +0.000 A 
ATOM     18  C   UNL     1      -2.047  14.600  23.421  0.00  0.00    +0.000 A 
BRANCH  13  20
ATOM     19  C   UNL     1      -5.565  15.063  23.548  0.00  0.00    +0.000 C 
ATOM     20  O   UNL     1      -4.305  15.192  24.195  0.00  0.00    +0.000 OA
ENDBRANCH  13  20
ENDBRANCH  11  16
ENDBRANCH   7  12
ENDBRANCH   1   8
BRANCH   4  21
ATOM     21  N   UNL     1       3.876   5.362  17.869  0.00  0.00    +0.000 N 
ATOM     22  C   UNL     1       5.318   5.250  18.169  0.00  0.00    +0.000 C 
BRANCH  21  23
ATOM     23  S   UNL     1       3.016   3.909  17.598  0.00  0.00    +0.000 S 
ATOM     24  O   UNL     1       1.805   4.210  16.870  0.00  0.00    +0.000 OA
ATOM     25  O   UNL     1       3.977   2.955  17.064  0.00  0.00    +0.000 OA
BRANCH  23  26
ATOM     26  C   UNL     1       2.526   3.270  19.211  0.00  0.00    +0.000 A 
ATOM     27  C   UNL     1       3.488   2.850  20.135  0.00  0.00    +0.000 A 
ATOM     28  C   UNL     1       3.098   2.489  21.438  0.00  0.00    +0.000 A 
ATOM     29  C   UNL     1       1.757   2.569  21.820  0.00  0.00    +0.000 A 
ATOM     30  C   UNL     1       0.806   3.030  20.914  0.00  0.00    +0.000 A 
ATOM     31  C   UNL     1       1.189   3.395  19.618  0.00  0.00    +0.000 A 
ENDBRANCH  23  26
ENDBRANCH  21  23
ENDBRANCH   4  21
TORSDOF 7
ENDMDL
MODEL 9
REMARK VINA RESULT:      -7.6      5.515      8.610
REMARK  Name = 
REMARK  9 active torsions:
REMARK  status: ('A' for Active; 'I' for Inactive)
REMARK    1  A    between atoms: C_1  and  O_2
REMARK    2  A    between atoms: O_2  and  C_3
REMARK    3  A    between atoms: C_6  and  C_7
REMARK    4  A    between atoms: N_8  and  N_9
REMARK    5  A    between atoms: C_10  and  C_12
REMARK    6  A    between atoms: C_15  and  N_16
REMARK    7  A    between atoms: N_16  and  C_17
REMARK    8  A    between atoms: N_16  and  S_18
REMARK    9  A    between atoms: S_18  and  C_21
REMARK                            x       y       z     vdW  Elec       q    Type
REMARK                         _______ _______ _______ _____ _____    ______ ____
ROOT
ATOM      1  C   UNL     1       1.790   7.670  20.091  0.00  0.00    +0.000 A 
ATOM      2  C   UNL     1       1.460   6.602  20.942  0.00  0.00    +0.000 A 
ATOM      3  C   UNL     1       1.902   5.304  20.682  0.00  0.00    +0.000 A 
ATOM      4  C   UNL     1       2.673   5.045  19.557  0.00  0.00    +0.000 A 
ATOM      5  C   UNL     1       2.988   6.096  18.679  0.00  0.00    +0.000 A 
ATOM      6  C   UNL     1       2.547   7.410  18.942  0.00  0.00    +0.000 A 
ENDROOT
BRANCH   1   8
ATOM      7  N   UNL     1       1.190   9.297  21.849  0.00  0.00    +0.000 N 
ATOM      8  C   UNL     1       1.286   9.019  20.490  0.00  0.00    +0.000 C 
ATOM      9  O   UNL     1       0.934   9.790  19.600  0.00  0.00    +0.000 OA
ATOM     10  H   UNL     1       1.416   8.616  22.562  0.00  0.00    +0.000 HD
BRANCH   7  12
ATOM     11  C   UNL     1      -0.661  10.537  22.359  0.00  0.00    +0.000 C 
ATOM     12  N   UNL     1       0.624  10.486  22.209  0.00  0.00    +0.000 NA
BRANCH  11  16
ATOM     13  C   UNL     1      -2.540  14.214  23.512  0.00  0.00    +0.000 A 
ATOM     14  C   UNL     1      -1.270  14.220  22.934  0.00  0.00    +0.000 A 
ATOM     15  C   UNL     1      -0.663  13.026  22.543  0.00  0.00    +0.000 A 
ATOM     16  C   UNL     1      -1.316  11.807  22.751  0.00  0.00    +0.000 A 
ATOM     17  C   UNL     1      -2.584  11.791  23.342  0.00  0.00    +0.000 A 
ATOM     18  C   UNL     1      -3.193  12.997  23.724  0.00  0.00    +0.000 A 
BRANCH  13  20
ATOM     19  C   UNL     1      -2.160  16.549  23.592  0.00  0.00    +0.000 C 
ATOM     20  O   UNL     1      -3.015  15.446  23.865  0.00  0.00    +0.000 OA
ENDBRANCH  13  20
ENDBRANCH  11  16
ENDBRANCH   7  12
ENDBRANCH   1   8
BRANCH   4  21
ATOM     21  N   UNL     1       3.230   3.737  19.352  0.00  0.00    +0.000 N 
ATOM     22  C   UNL     1       3.076   2.762  20.450  0.00  0.00    +0.000 C 
BRANCH  21  23
ATOM     23  S   UNL     1       3.370   3.114  17.765  0.00  0.00    +0.000 S 
ATOM     24  O   UNL     1       3.664   1.702  17.840  0.00  0.00    +0.000 OA
ATOM     25  O   UNL     1       2.202   3.584  17.034  0.00  0.00    +0.000 OA
BRANCH  23  26
ATOM     26  C   UNL     1       4.790   3.918  17.000  0.00  0.00    +0.000 A 
ATOM     27  C   UNL     1       5.934   4.213  17.748  0.00  0.00    +0.000 A 
ATOM     28  C   UNL     1       7.083   4.709  17.106  0.00  0.00    +0.000 A 
ATOM     29  C   UNL     1       7.096   4.888  15.722  0.00  0.00    +0.000 A 
ATOM     30  C   UNL     1       5.973   4.552  14.971  0.00  0.00    +0.000 A 
ATOM     31  C   UNL     1       4.828   4.054  15.603  0.00  0.00    +0.000 A 
ENDBRANCH  23  26
ENDBRANCH  21  23
ENDBRANCH   4  21
TORSDOF 7
ENDMDL
