MODEL 1
REMARK VINA RESULT:      -6.4      0.000      0.000
REMARK  Name = 
REMARK  2 active torsions:
REMARK  status: ('A' for Active; 'I' for Inactive)
REMARK    1  A    between atoms: C_1  and  C_2
REMARK    2  A    between atoms: N_4  and  C_5
REMARK                            x       y       z     vdW  Elec       q    Type
REMARK                         _______ _______ _______ _____ _____    ______ ____
ROOT
ATOM      1  C   UNL     1       3.959   3.376  17.685  0.00  0.00    +0.000 A 
ATOM      2  C   UNL     1       2.671   3.652  17.227  0.00  0.00    +0.000 A 
ATOM      3  C   UNL     1       1.563   3.595  18.083  0.00  0.00    +0.000 A 
ATOM      4  C   UNL     1       1.755   3.264  19.435  0.00  0.00    +0.000 A 
ATOM      5  C   UNL     1       0.892   3.178  20.561  0.00  0.00    +0.000 A 
ATOM      6  C   UNL     1       1.658   2.819  21.646  0.00  0.00    +0.000 A 
ATOM      7  N   UNL     1       2.949   2.658  21.217  0.00  0.00    +0.000 N 
ATOM      8  C   UNL     1       3.041   2.943  19.870  0.00  0.00    +0.000 A 
ATOM      9  C   UNL     1       4.156   2.965  19.015  0.00  0.00    +0.000 A 
ATOM     10  H   UNL     1       3.727   2.396  21.802  0.00  0.00    +0.000 HD
ENDROOT
BRANCH   1  14
ATOM     11  C   UNL     1       6.915   4.483  15.617  0.00  0.00    +0.000 C 
ATOM     12  C   UNL     1       5.714   4.695  16.499  0.00  0.00    +0.000 C 
ATOM     13  O   UNL     1       5.377   5.829  16.825  0.00  0.00    +0.000 OA
ATOM     14  N   UNL     1       5.104   3.506  16.866  0.00  0.00    +0.000 N 
ATOM     15  H   UNL     1       5.597   2.650  16.645  0.00  0.00    +0.000 HD
ENDBRANCH   1  14
TORSDOF 1
ENDMDL
MODEL 2
REMARK VINA RESULT:      -6.2      1.105      1.105
REMARK  Name = 
REMARK  2 active torsions:
REMARK  status: ('A' for Active; 'I' for Inactive)
REMARK    1  A    between atoms: C_1  and  C_2
REMARK    2  A    between atoms: N_4  and  C_5
REMARK                            x       y       z     vdW  Elec       q    Type
REMARK                         _______ _______ _______ _____ _____    ______ ____
ROOT
ATOM      1  C   UNL     1       4.206   3.708  18.162  0.00  0.00    +0.000 A 
ATOM      2  C   UNL     1       3.005   4.112  17.579  0.00  0.00    +0.000 A 
ATOM      3  C   UNL     1       1.785   3.992  18.260  0.00  0.00    +0.000 A 
ATOM      4  C   UNL     1       1.774   3.465  19.562  0.00  0.00    +0.000 A 
ATOM      5  C   UNL     1       0.757   3.266  20.535  0.00  0.00    +0.000 A 
ATOM      6  C   UNL     1       1.350   2.720  21.650  0.00  0.00    +0.000 A 
ATOM      7  N   UNL     1       2.684   2.554  21.382  0.00  0.00    +0.000 N 
ATOM      8  C   UNL     1       2.975   3.021  20.116  0.00  0.00    +0.000 A 
ATOM      9  C   UNL     1       4.199   3.105  19.432  0.00  0.00    +0.000 A 
ATOM     10  H   UNL     1       3.362   2.173  22.023  0.00  0.00    +0.000 HD
ENDROOT
BRANCH   1  14
ATOM     11  C   UNL     1       7.727   4.593  17.132  0.00  0.00    +0.000 C 
ATOM     12  C   UNL     1       6.542   4.580  18.060  0.00  0.00    +0.000 C 
ATOM     13  O   UNL     1       6.604   5.134  19.153  0.00  0.00    +0.000 OA
ATOM     14  N   UNL     1       5.459   3.893  17.535  0.00  0.00    +0.000 N 
ATOM     15  H   UNL     1       5.620   3.360  16.689  0.00  0.00    +0.000 HD
ENDBRANCH   1  14
TORSDOF 1
ENDMDL
MODEL 3
REMARK VINA RESULT:      -6.1      2.101      5.269
REMARK  Name = 
REMARK  2 active torsions:
REMARK  status: ('A' for Active; 'I' for Inactive)
REMARK    1  A    between atoms: C_1  and  C_2
REMARK    2  A    between atoms: N_4  and  C_5
REMARK                            x       y       z     vdW  Elec       q    Type
REMARK                         _______ _______ _______ _____ _____    ______ ____
ROOT
ATOM      1  C   UNL     1       3.682   4.415  18.996  0.00  0.00    +0.000 A 
ATOM      2  C   UNL     1       3.502   5.748  18.623  0.00  0.00    +0.000 A 
ATOM      3  C   UNL     1       4.080   6.265  17.457  0.00  0.00    +0.000 A 
ATOM      4  C   UNL     1       4.848   5.422  16.638  0.00  0.00    +0.000 A 
ATOM      5  C   UNL     1       5.508   5.593  15.390  0.00  0.00    +0.000 A 
ATOM      6  C   UNL     1       6.094   4.392  15.061  0.00  0.00    +0.000 A 
ATOM      7  N   UNL     1       5.839   3.506  16.075  0.00  0.00    +0.000 N 
ATOM      8  C   UNL     1       5.061   4.104  17.045  0.00  0.00    +0.000 A 
ATOM      9  C   UNL     1       4.514   3.581  18.228  0.00  0.00    +0.000 A 
ATOM     10  H   UNL     1       6.149   2.547  16.099  0.00  0.00    +0.000 HD
ENDROOT
BRANCH   1  14
ATOM     11  C   UNL     1       1.394   2.768  21.504  0.00  0.00    +0.000 C 
ATOM     12  C   UNL     1       1.775   3.287  20.143  0.00  0.00    +0.000 C 
ATOM     13  O   UNL     1       0.997   3.185  19.200  0.00  0.00    +0.000 OA
ATOM     14  N   UNL     1       3.044   3.844  20.120  0.00  0.00    +0.000 N 
ATOM     15  H   UNL     1       3.619   3.709  20.941  0.00  0.00    +0.000 HD
ENDBRANCH   1  14
TORSDOF 1
ENDMDL
MODEL 4
REMARK VINA RESULT:      -6.1      2.311      2.542
REMARK  Name = 
REMARK  2 active torsions:
REMARK  status: ('A' for Active; 'I' for Inactive)
REMARK    1  A    between atoms: C_1  and  C_2
REMARK    2  A    between atoms: N_4  and  C_5
REMARK                            x       y       z     vdW  Elec       q    Type
REMARK                         _______ _______ _______ _____ _____    ______ ____
ROOT
ATOM      1  C   UNL     1       4.135   5.303  18.515  0.00  0.00    +0.000 A 
ATOM      2  C   UNL     1       3.313   5.882  19.482  0.00  0.00    +0.000 A 
ATOM      3  C   UNL     1       2.151   5.242  19.934  0.00  0.00    +0.000 A 
ATOM      4  C   UNL     1       1.812   3.984  19.410  0.00  0.00    +0.000 A 
ATOM      5  C   UNL     1       0.772   3.053  19.677  0.00  0.00    +0.000 A 
ATOM      6  C   UNL     1       0.962   1.968  18.853  0.00  0.00    +0.000 A 
ATOM      7  N   UNL     1       2.063   2.216  18.075  0.00  0.00    +0.000 N 
ATOM      8  C   UNL     1       2.615   3.436  18.408  0.00  0.00    +0.000 A 
ATOM      9  C   UNL     1       3.764   4.082  17.924  0.00  0.00    +0.000 A 
ATOM     10  H   UNL     1       2.434   1.590  17.378  0.00  0.00    +0.000 HD
ENDROOT
BRANCH   1  14
ATOM     11  C   UNL     1       7.674   6.526  18.053  0.00  0.00    +0.000 C 
ATOM     12  C   UNL     1       6.570   5.786  18.760  0.00  0.00    +0.000 C 
ATOM     13  O   UNL     1       6.799   5.176  19.799  0.00  0.00    +0.000 OA
ATOM     14  N   UNL     1       5.354   5.884  18.102  0.00  0.00    +0.000 N 
ATOM     15  H   UNL     1       5.366   6.291  17.175  0.00  0.00    +0.000 HD
ENDBRANCH   1  14
TORSDOF 1
ENDMDL
MODEL 5
REMARK VINA RESULT:      -6.1      1.833      1.917
REMARK  Name = 
REMARK  2 active torsions:
REMARK  status: ('A' for Active; 'I' for Inactive)
REMARK    1  A    between atoms: C_1  and  C_2
REMARK    2  A    between atoms: N_4  and  C_5
REMARK                            x       y       z     vdW  Elec       q    Type
REMARK                         _______ _______ _______ _____ _____    ______ ____
ROOT
ATOM      1  C   UNL     1       4.351   5.083  18.221  0.00  0.00    +0.000 A 
ATOM      2  C   UNL     1       3.723   4.316  17.238  0.00  0.00    +0.000 A 
ATOM      3  C   UNL     1       2.643   3.478  17.545  0.00  0.00    +0.000 A 
ATOM      4  C   UNL     1       2.174   3.417  18.867  0.00  0.00    +0.000 A 
ATOM      5  C   UNL     1       1.094   2.743  19.500  0.00  0.00    +0.000 A 
ATOM      6  C   UNL     1       1.117   3.080  20.833  0.00  0.00    +0.000 A 
ATOM      7  N   UNL     1       2.186   3.912  21.041  0.00  0.00    +0.000 N 
ATOM      8  C   UNL     1       2.840   4.151  19.849  0.00  0.00    +0.000 A 
ATOM      9  C   UNL     1       3.945   4.970  19.562  0.00  0.00    +0.000 A 
ATOM     10  H   UNL     1       2.444   4.315  21.928  0.00  0.00    +0.000 HD
ENDROOT
BRANCH   1  14
ATOM     11  C   UNL     1       7.582   6.954  17.675  0.00  0.00    +0.000 C 
ATOM     12  C   UNL     1       6.746   5.768  18.075  0.00  0.00    +0.000 C 
ATOM     13  O   UNL     1       7.281   4.738  18.471  0.00  0.00    +0.000 OA
ATOM     14  N   UNL     1       5.387   5.998  17.928  0.00  0.00    +0.000 N 
ATOM     15  H   UNL     1       5.115   6.842  17.440  0.00  0.00    +0.000 HD
ENDBRANCH   1  14
TORSDOF 1
ENDMDL
MODEL 6
REMARK VINA RESULT:      -6.0      2.700      4.997
REMARK  Name = 
REMARK  2 active torsions:
REMARK  status: ('A' for Active; 'I' for Inactive)
REMARK    1  A    between atoms: C_1  and  C_2
REMARK    2  A    between atoms: N_4  and  C_5
REMARK                            x       y       z     vdW  Elec       q    Type
REMARK                         _______ _______ _______ _____ _____    ______ ____
ROOT
ATOM      1  C   UNL     1       3.534   4.879  18.535  0.00  0.00    +0.000 A 
ATOM      2  C   UNL     1       3.625   5.751  17.450  0.00  0.00    +0.000 A 
ATOM      3  C   UNL     1       4.824   6.406  17.137  0.00  0.00    +0.000 A 
ATOM      4  C   UNL     1       5.962   6.170  17.925  0.00  0.00    +0.000 A 
ATOM      5  C   UNL     1       7.314   6.603  17.858  0.00  0.00    +0.000 A 
ATOM      6  C   UNL     1       7.989   6.024  18.908  0.00  0.00    +0.000 A 
ATOM      7  N   UNL     1       7.092   5.277  19.627  0.00  0.00    +0.000 N 
ATOM      8  C   UNL     1       5.846   5.333  19.036  0.00  0.00    +0.000 A 
ATOM      9  C   UNL     1       4.642   4.696  19.380  0.00  0.00    +0.000 A 
ATOM     10  H   UNL     1       7.313   4.742  20.452  0.00  0.00    +0.000 HD
ENDROOT
BRANCH   1  14
ATOM     11  C   UNL     1       0.727   2.376  18.849  0.00  0.00    +0.000 C 
ATOM     12  C   UNL     1       2.056   2.878  18.348  0.00  0.00    +0.000 C 
ATOM     13  O   UNL     1       2.742   2.182  17.606  0.00  0.00    +0.000 OA
ATOM     14  N   UNL     1       2.364   4.142  18.826  0.00  0.00    +0.000 N 
ATOM     15  H   UNL     1       1.767   4.515  19.553  0.00  0.00    +0.000 HD
ENDBRANCH   1  14
TORSDOF 1
ENDMDL
MODEL 7
REMARK VINA RESULT:      -6.0      2.674      3.696
REMARK  Name = 
REMARK  2 active torsions:
REMARK  status: ('A' for Active; 'I' for Inactive)
REMARK    1  A    between atoms: C_1  and  C_2
REMARK    2  A    between atoms: N_4  and  C_5
REMARK                            x       y       z     vdW  Elec       q    Type
REMARK                         _______ _______ _______ _____ _____    ______ ____
ROOT
ATOM      1  C   UNL     1       5.555   6.185  17.142  0.00  0.00    +0.000 A 
ATOM      2  C   UNL     1       5.843   5.012  16.444  0.00  0.00    +0.000 A 
ATOM      3  C   UNL     1       4.939   3.942  16.409  0.00  0.00    +0.000 A 
ATOM      4  C   UNL     1       3.712   4.057  17.081  0.00  0.00    +0.000 A 
ATOM      5  C   UNL     1       2.570   3.218  17.199  0.00  0.00    +0.000 A 
ATOM      6  C   UNL     1       1.650   3.874  17.983  0.00  0.00    +0.000 A 
ATOM      7  N   UNL     1       2.200   5.069  18.369  0.00  0.00    +0.000 N 
ATOM      8  C   UNL     1       3.455   5.215  17.815  0.00  0.00    +0.000 A 
ATOM      9  C   UNL     1       4.366   6.283  17.885  0.00  0.00    +0.000 A 
ATOM     10  H   UNL     1       1.746   5.755  18.951  0.00  0.00    +0.000 HD
ENDROOT
BRANCH   1  14
ATOM     11  C   UNL     1       8.233   8.798  17.635  0.00  0.00    +0.000 C 
ATOM     12  C   UNL     1       7.552   7.480  17.892  0.00  0.00    +0.000 C 
ATOM     13  O   UNL     1       8.022   6.686  18.700  0.00  0.00    +0.000 OA
ATOM     14  N   UNL     1       6.409   7.311  17.126  0.00  0.00    +0.000 N 
ATOM     15  H   UNL     1       6.244   7.990  16.393  0.00  0.00    +0.000 HD
ENDBRANCH   1  14
TORSDOF 1
ENDMDL
MODEL 8
REMARK VINA RESULT:      -6.0      1.728      2.142
REMARK  Name = 
REMARK  2 active torsions:
REMARK  status: ('A' for Active; 'I' for Inactive)
REMARK    1  A    between atoms: C_1  and  C_2
REMARK    2  A    between atoms: N_4  and  C_5
REMARK                            x       y       z     vdW  Elec       q    Type
REMARK                         _______ _______ _______ _____ _____    ______ ____
ROOT
ATOM      1  C   UNL     1       4.431   4.316  17.279  0.00  0.00    +0.000 A 
ATOM      2  C   UNL     1       4.994   5.087  18.297  0.00  0.00    +0.000 A 
ATOM      3  C   UNL     1       4.300   5.346  19.487  0.00  0.00    +0.000 A 
ATOM      4  C   UNL     1       3.014   4.809  19.663  0.00  0.00    +0.000 A 
ATOM      5  C   UNL     1       2.080   4.819  20.735  0.00  0.00    +0.000 A 
ATOM      6  C   UNL     1       0.978   4.101  20.333  0.00  0.00    +0.000 A 
ATOM      7  N   UNL     1       1.195   3.677  19.048  0.00  0.00    +0.000 N 
ATOM      8  C   UNL     1       2.443   4.080  18.619  0.00  0.00    +0.000 A 
ATOM      9  C   UNL     1       3.114   3.841  17.409  0.00  0.00    +0.000 A 
ATOM     10  H   UNL     1       0.550   3.127  18.502  0.00  0.00    +0.000 HD
ENDROOT
BRANCH   1  14
ATOM     11  C   UNL     1       6.298   4.150  14.005  0.00  0.00    +0.000 C 
ATOM     12  C   UNL     1       5.578   4.847  15.128  0.00  0.00    +0.000 C 
ATOM     13  O   UNL     1       5.442   6.066  15.115  0.00  0.00    +0.000 OA
ATOM     14  N   UNL     1       5.137   3.969  16.106  0.00  0.00    +0.000 N 
ATOM     15  H   UNL     1       5.467   3.014  16.047  0.00  0.00    +0.000 HD
ENDBRANCH   1  14
TORSDOF 1
ENDMDL
MODEL 9
REMARK VINA RESULT:      -5.9      2.064      2.277
REMARK  Name = 
REMARK  2 active torsions:
REMARK  status: ('A' for Active; 'I' for Inactive)
REMARK    1  A    between atoms: C_1  and  C_2
REMARK    2  A    between atoms: N_4  and  C_5
REMARK                            x       y       z     vdW  Elec       q    Type
REMARK                         _______ _______ _______ _____ _____    ______ ____
ROOT
ATOM      1  C   UNL     1       4.511   5.447  18.233  0.00  0.00    +0.000 A 
ATOM      2  C   UNL     1       3.281   6.048  17.965  0.00  0.00    +0.000 A 
ATOM      3  C   UNL     1       2.084   5.323  18.026  0.00  0.00    +0.000 A 
ATOM      4  C   UNL     1       2.120   3.964  18.376  0.00  0.00    +0.000 A 
ATOM      5  C   UNL     1       1.123   2.973  18.588  0.00  0.00    +0.000 A 
ATOM      6  C   UNL     1       1.764   1.806  18.935  0.00  0.00    +0.000 A 
ATOM      7  N   UNL     1       3.113   2.042  18.916  0.00  0.00    +0.000 N 
ATOM      8  C   UNL     1       3.360   3.361  18.595  0.00  0.00    +0.000 A 
ATOM      9  C   UNL     1       4.570   4.069  18.505  0.00  0.00    +0.000 A 
ATOM     10  H   UNL     1       3.825   1.361  19.130  0.00  0.00    +0.000 HD
ENDROOT
BRANCH   1  14
ATOM     11  C   UNL     1       7.642   7.436  17.543  0.00  0.00    +0.000 C 
ATOM     12  C   UNL     1       6.365   6.733  17.168  0.00  0.00    +0.000 C 
ATOM     13  O   UNL     1       5.989   6.710  16.000  0.00  0.00    +0.000 OA
ATOM     14  N   UNL     1       5.725   6.170  18.261  0.00  0.00    +0.000 N 
ATOM     15  H   UNL     1       6.081   6.413  19.176  0.00  0.00    +0.000 HD
ENDBRANCH   1  14
TORSDOF 1
ENDMDL
