MODEL 1
REMARK VINA RESULT:      -8.0      0.000      0.000
REMARK  Name = 
REMARK  8 active torsions:
REMARK  status: ('A' for Active; 'I' for Inactive)
REMARK    1  A    between atoms: C_1  and  C_2
REMARK    2  A    between atoms: C_2  and  C_3
REMARK    3  A    between atoms: C_8  and  C_9
REMARK    4  A    between atoms: N_11  and  C_12
REMARK    5  A    between atoms: C_12  and  C_13
REMARK    6  A    between atoms: C_16  and  S_17
REMARK    7  A    between atoms: S_17  and  N_18
REMARK    8  A    between atoms: C_23  and  C_24
REMARK                            x       y       z     vdW  Elec       q    Type
REMARK                         _______ _______ _______ _____ _____    ______ ____
ROOT
ATOM      1  C   UNL     1       0.905   9.696  18.840  0.00  0.00    +0.000 C 
ATOM      2  O   UNL     1       1.461   9.942  19.904  0.00  0.00    +0.000 OA
ATOM      3  N   UNL     1       1.498   8.935  17.854  0.00  0.00    +0.000 N 
ATOM      4  H   UNL     1       0.912   8.671  17.071  0.00  0.00    +0.000 HD
ENDROOT
BRANCH   1  10
ATOM      5  C   UNL     1      -4.626  11.564  17.208  0.00  0.00    +0.000 A 
ATOM      6  C   UNL     1      -4.229  10.843  16.070  0.00  0.00    +0.000 A 
ATOM      7  C   UNL     1      -2.979  10.212  15.999  0.00  0.00    +0.000 A 
ATOM      8  C   UNL     1      -2.151  10.344  17.110  0.00  0.00    +0.000 A 
ATOM      9  O   UNL     1      -0.917   9.796  17.249  0.00  0.00    +0.000 OA
ATOM     10  C   UNL     1      -0.428  10.167  18.482  0.00  0.00    +0.000 A 
ATOM     11  C   UNL     1      -1.367  10.964  19.130  0.00  0.00    +0.000 A 
ATOM     12  C   UNL     1      -1.304  11.611  20.466  0.00  0.00    +0.000 C 
ATOM     13  C   UNL     1      -2.484  11.064  18.243  0.00  0.00    +0.000 A 
ATOM     14  C   UNL     1      -3.742  11.693  18.295  0.00  0.00    +0.000 A 
BRANCH   5  16
ATOM     15  C   UNL     1      -6.933  11.463  18.231  0.00  0.00    +0.000 C 
ATOM     16  C   UNL     1      -5.994  12.196  17.287  0.00  0.00    +0.000 C 
ENDBRANCH   5  16
ENDBRANCH   1  10
BRANCH   3  17
ATOM     17  C   UNL     1       2.815   8.351  17.968  0.00  0.00    +0.000 C 
BRANCH  17  18
ATOM     18  C   UNL     1       2.773   6.909  18.437  0.00  0.00    +0.000 A 
ATOM     19  C   UNL     1       3.293   5.867  17.653  0.00  0.00    +0.000 A 
ATOM     20  C   UNL     1       3.275   4.545  18.109  0.00  0.00    +0.000 A 
ATOM     21  C   UNL     1       2.769   4.264  19.377  0.00  0.00    +0.000 A 
ATOM     22  C   UNL     1       2.257   5.281  20.180  0.00  0.00    +0.000 A 
ATOM     23  C   UNL     1       2.269   6.601  19.714  0.00  0.00    +0.000 A 
BRANCH  21  24
ATOM     24  S   UNL     1       2.766   2.593  19.955  0.00  0.00    +0.000 S 
ATOM     25  O   UNL     1       2.898   2.579  21.391  0.00  0.00    +0.000 OA
ATOM     26  O   UNL     1       1.735   1.847  19.261  0.00  0.00    +0.000 OA
BRANCH  24  27
ATOM     27  N   UNL     1       4.229   2.027  19.348  0.00  0.00    +0.000 NA
ATOM     28  H   UNL     1       4.654   2.734  18.749  0.00  0.00    +0.000 HD
ATOM     29  H   UNL     1       4.826   1.708  20.110  0.00  0.00    +0.000 HD
ENDBRANCH  24  27
ENDBRANCH  21  24
ENDBRANCH  17  18
ENDBRANCH   3  17
TORSDOF 6
ENDMDL
MODEL 2
REMARK VINA RESULT:      -8.0      2.350      3.563
REMARK  Name = 
REMARK  8 active torsions:
REMARK  status: ('A' for Active; 'I' for Inactive)
REMARK    1  A    between atoms: C_1  and  C_2
REMARK    2  A    between atoms: C_2  and  C_3
REMARK    3  A    between atoms: C_8  and  C_9
REMARK    4  A    between atoms: N_11  and  C_12
REMARK    5  A    between atoms: C_12  and  C_13
REMARK    6  A    between atoms: C_16  and  S_17
REMARK    7  A    between atoms: S_17  and  N_18
REMARK    8  A    between atoms: C_23  and  C_24
REMARK                            x       y       z     vdW  Elec       q    Type
REMARK                         _______ _______ _______ _____ _____    ______ ____
ROOT
ATOM      1  C   UNL     1       1.535  10.395  18.658  0.00  0.00    +0.000 C 
ATOM      2  O   UNL     1       2.245  11.111  17.962  0.00  0.00    +0.000 OA
ATOM      3  N   UNL     1       1.648   9.020  18.659  0.00  0.00    +0.000 N 
ATOM      4  H   UNL     1       1.117   8.521  19.365  0.00  0.00    +0.000 HD
ENDROOT
BRANCH   1  10
ATOM      5  C   UNL     1      -2.702  12.365  22.519  0.00  0.00    +0.000 A 
ATOM      6  C   UNL     1      -1.956  11.505  23.341  0.00  0.00    +0.000 A 
ATOM      7  C   UNL     1      -0.840  10.808  22.855  0.00  0.00    +0.000 A 
ATOM      8  C   UNL     1      -0.517  11.008  21.515  0.00  0.00    +0.000 A 
ATOM      9  O   UNL     1       0.531  10.446  20.860  0.00  0.00    +0.000 OA
ATOM     10  C   UNL     1       0.498  10.888  19.556  0.00  0.00    +0.000 A 
ATOM     11  C   UNL     1      -0.590  11.740  19.384  0.00  0.00    +0.000 A 
ATOM     12  C   UNL     1      -1.053  12.457  18.169  0.00  0.00    +0.000 C 
ATOM     13  C   UNL     1      -1.234  11.823  20.658  0.00  0.00    +0.000 A 
ATOM     14  C   UNL     1      -2.353  12.512  21.164  0.00  0.00    +0.000 A 
BRANCH   5  16
ATOM     15  C   UNL     1      -4.329  12.645  24.431  0.00  0.00    +0.000 C 
ATOM     16  C   UNL     1      -3.871  13.145  23.071  0.00  0.00    +0.000 C 
ENDBRANCH   5  16
ENDBRANCH   1  10
BRANCH   3  17
ATOM     17  C   UNL     1       2.602   8.288  17.857  0.00  0.00    +0.000 C 
BRANCH  17  18
ATOM     18  C   UNL     1       2.842   6.883  18.376  0.00  0.00    +0.000 A 
ATOM     19  C   UNL     1       2.362   6.472  19.630  0.00  0.00    +0.000 A 
ATOM     20  C   UNL     1       2.565   5.166  20.085  0.00  0.00    +0.000 A 
ATOM     21  C   UNL     1       3.219   4.247  19.266  0.00  0.00    +0.000 A 
ATOM     22  C   UNL     1       3.697   4.626  18.013  0.00  0.00    +0.000 A 
ATOM     23  C   UNL     1       3.499   5.938  17.567  0.00  0.00    +0.000 A 
BRANCH  21  24
ATOM     24  S   UNL     1       3.456   2.592  19.839  0.00  0.00    +0.000 S 
ATOM     25  O   UNL     1       3.082   2.504  21.229  0.00  0.00    +0.000 OA
ATOM     26  O   UNL     1       2.966   1.663  18.841  0.00  0.00    +0.000 OA
BRANCH  24  27
ATOM     27  N   UNL     1       5.133   2.463  19.801  0.00  0.00    +0.000 NA
ATOM     28  H   UNL     1       5.554   3.238  20.313  0.00  0.00    +0.000 HD
ATOM     29  H   UNL     1       5.423   1.541  20.123  0.00  0.00    +0.000 HD
ENDBRANCH  24  27
ENDBRANCH  21  24
ENDBRANCH  17  18
ENDBRANCH   3  17
TORSDOF 6
ENDMDL
MODEL 3
REMARK VINA RESULT:      -8.0      4.028      9.184
REMARK  Name = 
REMARK  8 active torsions:
REMARK  status: ('A' for Active; 'I' for Inactive)
REMARK    1  A    between atoms: C_1  and  C_2
REMARK    2  A    between atoms: C_2  and  C_3
REMARK    3  A    between atoms: C_8  and  C_9
REMARK    4  A    between atoms: N_11  and  C_12
REMARK    5  A    between atoms: C_12  and  C_13
REMARK    6  A    between atoms: C_16  and  S_17
REMARK    7  A    between atoms: S_17  and  N_18
REMARK    8  A    between atoms: C_23  and  C_24
REMARK                            x       y       z     vdW  Elec       q    Type
REMARK                         _______ _______ _______ _____ _____    ______ ____
ROOT
ATOM      1  C   UNL     1       2.115   5.983  20.083  0.00  0.00    +0.000 C 
ATOM      2  O   UNL     1       1.461   5.194  20.755  0.00  0.00    +0.000 OA
ATOM      3  N   UNL     1       2.144   7.336  20.351  0.00  0.00    +0.000 N 
ATOM      4  H   UNL     1       2.818   7.887  19.831  0.00  0.00    +0.000 HD
ENDROOT
BRANCH   1  10
ATOM      5  C   UNL     1       5.548   4.572  15.290  0.00  0.00    +0.000 A 
ATOM      6  C   UNL     1       5.635   5.974  15.292  0.00  0.00    +0.000 A 
ATOM      7  C   UNL     1       4.978   6.751  16.256  0.00  0.00    +0.000 A 
ATOM      8  C   UNL     1       4.230   6.060  17.206  0.00  0.00    +0.000 A 
ATOM      9  O   UNL     1       3.539   6.621  18.232  0.00  0.00    +0.000 OA
ATOM     10  C   UNL     1       2.931   5.605  18.935  0.00  0.00    +0.000 A 
ATOM     11  C   UNL     1       3.241   4.384  18.343  0.00  0.00    +0.000 A 
ATOM     12  C   UNL     1       2.822   3.010  18.722  0.00  0.00    +0.000 C 
ATOM     13  C   UNL     1       4.092   4.684  17.234  0.00  0.00    +0.000 A 
ATOM     14  C   UNL     1       4.757   3.922  16.255  0.00  0.00    +0.000 A 
BRANCH   5  16
ATOM     15  C   UNL     1       5.589   3.662  12.935  0.00  0.00    +0.000 C 
ATOM     16  C   UNL     1       6.302   3.750  14.274  0.00  0.00    +0.000 C 
ENDBRANCH   5  16
ENDBRANCH   1  10
BRANCH   3  17
ATOM     17  C   UNL     1       1.422   7.959  21.437  0.00  0.00    +0.000 C 
BRANCH  17  18
ATOM     18  C   UNL     1       0.658   9.193  20.995  0.00  0.00    +0.000 A 
ATOM     19  C   UNL     1       0.604   9.578  19.645  0.00  0.00    +0.000 A 
ATOM     20  C   UNL     1      -0.128  10.701  19.247  0.00  0.00    +0.000 A 
ATOM     21  C   UNL     1      -0.845  11.426  20.197  0.00  0.00    +0.000 A 
ATOM     22  C   UNL     1      -0.816  11.059  21.541  0.00  0.00    +0.000 A 
ATOM     23  C   UNL     1      -0.074   9.940  21.936  0.00  0.00    +0.000 A 
BRANCH  21  24
ATOM     24  S   UNL     1      -1.782  12.834  19.685  0.00  0.00    +0.000 S 
ATOM     25  O   UNL     1      -3.115  12.751  20.229  0.00  0.00    +0.000 OA
ATOM     26  O   UNL     1      -0.965  14.024  19.804  0.00  0.00    +0.000 OA
BRANCH  24  27
ATOM     27  N   UNL     1      -1.937  12.548  18.034  0.00  0.00    +0.000 NA
ATOM     28  H   UNL     1      -2.534  13.259  17.612  0.00  0.00    +0.000 HD
ATOM     29  H   UNL     1      -1.018  12.463  17.604  0.00  0.00    +0.000 HD
ENDBRANCH  24  27
ENDBRANCH  21  24
ENDBRANCH  17  18
ENDBRANCH   3  17
TORSDOF 6
ENDMDL
MODEL 4
REMARK VINA RESULT:      -8.0      4.120      9.382
REMARK  Name = 
REMARK  8 active torsions:
REMARK  status: ('A' for Active; 'I' for Inactive)
REMARK    1  A    between atoms: C_1  and  C_2
REMARK    2  A    between atoms: C_2  and  C_3
REMARK    3  A    between atoms: C_8  and  C_9
REMARK    4  A    between atoms: N_11  and  C_12
REMARK    5  A    between atoms: C_12  and  C_13
REMARK    6  A    between atoms: C_16  and  S_17
REMARK    7  A    between atoms: S_17  and  N_18
REMARK    8  A    between atoms: C_23  and  C_24
REMARK                            x       y       z     vdW  Elec       q    Type
REMARK                         _______ _______ _______ _____ _____    ______ ____
ROOT
ATOM      1  C   UNL     1       2.302   5.885  20.111  0.00  0.00    +0.000 C 
ATOM      2  O   UNL     1       1.742   5.051  20.813  0.00  0.00    +0.000 OA
ATOM      3  N   UNL     1       2.148   7.242  20.310  0.00  0.00    +0.000 N 
ATOM      4  H   UNL     1       2.755   7.851  19.773  0.00  0.00    +0.000 HD
ENDROOT
BRANCH   1  10
ATOM      5  C   UNL     1       6.088   4.642  15.544  0.00  0.00    +0.000 A 
ATOM      6  C   UNL     1       6.823   5.599  16.262  0.00  0.00    +0.000 A 
ATOM      7  C   UNL     1       6.323   6.184  17.433  0.00  0.00    +0.000 A 
ATOM      8  C   UNL     1       5.057   5.772  17.842  0.00  0.00    +0.000 A 
ATOM      9  O   UNL     1       4.405   6.199  18.954  0.00  0.00    +0.000 OA
ATOM     10  C   UNL     1       3.184   5.563  18.997  0.00  0.00    +0.000 A 
ATOM     11  C   UNL     1       3.062   4.723  17.893  0.00  0.00    +0.000 A 
ATOM     12  C   UNL     1       1.939   3.839  17.490  0.00  0.00    +0.000 C 
ATOM     13  C   UNL     1       4.282   4.853  17.158  0.00  0.00    +0.000 A 
ATOM     14  C   UNL     1       4.801   4.279  15.982  0.00  0.00    +0.000 A 
BRANCH   5  16
ATOM     15  C   UNL     1       5.626   3.756  13.224  0.00  0.00    +0.000 C 
ATOM     16  C   UNL     1       6.662   3.987  14.312  0.00  0.00    +0.000 C 
ENDBRANCH   5  16
ENDBRANCH   1  10
BRANCH   3  17
ATOM     17  C   UNL     1       1.328   7.817  21.352  0.00  0.00    +0.000 C 
BRANCH  17  18
ATOM     18  C   UNL     1       0.642   9.097  20.913  0.00  0.00    +0.000 A 
ATOM     19  C   UNL     1      -0.168   9.834  21.791  0.00  0.00    +0.000 A 
ATOM     20  C   UNL     1      -0.771  11.028  21.382  0.00  0.00    +0.000 A 
ATOM     21  C   UNL     1      -0.533  11.513  20.097  0.00  0.00    +0.000 A 
ATOM     22  C   UNL     1       0.276  10.806  19.209  0.00  0.00    +0.000 A 
ATOM     23  C   UNL     1       0.869   9.607  19.620  0.00  0.00    +0.000 A 
BRANCH  21  24
ATOM     24  S   UNL     1      -1.283  13.032  19.593  0.00  0.00    +0.000 S 
ATOM     25  O   UNL     1      -2.579  13.159  20.212  0.00  0.00    +0.000 OA
ATOM     26  O   UNL     1      -0.294  14.091  19.632  0.00  0.00    +0.000 OA
BRANCH  24  27
ATOM     27  N   UNL     1      -1.573  12.735  17.963  0.00  0.00    +0.000 NA
ATOM     28  H   UNL     1      -1.325  11.773  17.734  0.00  0.00    +0.000 HD
ATOM     29  H   UNL     1      -2.531  12.990  17.724  0.00  0.00    +0.000 HD
ENDBRANCH  24  27
ENDBRANCH  21  24
ENDBRANCH  17  18
ENDBRANCH   3  17
TORSDOF 6
ENDMDL
MODEL 5
REMARK VINA RESULT:      -7.9      0.855      1.449
REMARK  Name = 
REMARK  8 active torsions:
REMARK  status: ('A' for Active; 'I' for Inactive)
REMARK    1  A    between atoms: C_1  and  C_2
REMARK    2  A    between atoms: C_2  and  C_3
REMARK    3  A    between atoms: C_8  and  C_9
REMARK    4  A    between atoms: N_11  and  C_12
REMARK    5  A    between atoms: C_12  and  C_13
REMARK    6  A    between atoms: C_16  and  S_17
REMARK    7  A    between atoms: S_17  and  N_18
REMARK    8  A    between atoms: C_23  and  C_24
REMARK                            x       y       z     vdW  Elec       q    Type
REMARK                         _______ _______ _______ _____ _____    ______ ____
ROOT
ATOM      1  C   UNL     1       0.712   9.887  18.882  0.00  0.00    +0.000 C 
ATOM      2  O   UNL     1       1.284  10.194  19.921  0.00  0.00    +0.000 OA
ATOM      3  N   UNL     1       1.283   9.054  17.942  0.00  0.00    +0.000 N 
ATOM      4  H   UNL     1       0.684   8.747  17.184  0.00  0.00    +0.000 HD
ENDROOT
BRANCH   1  10
ATOM      5  C   UNL     1      -4.809  11.728  17.187  0.00  0.00    +0.000 A 
ATOM      6  C   UNL     1      -4.401  10.999  16.058  0.00  0.00    +0.000 A 
ATOM      7  C   UNL     1      -3.148  10.371  16.002  0.00  0.00    +0.000 A 
ATOM      8  C   UNL     1      -2.330  10.514  17.120  0.00  0.00    +0.000 A 
ATOM      9  O   UNL     1      -1.096   9.970  17.274  0.00  0.00    +0.000 OA
ATOM     10  C   UNL     1      -0.618  10.351  18.508  0.00  0.00    +0.000 A 
ATOM     11  C   UNL     1      -1.565  11.150  19.143  0.00  0.00    +0.000 A 
ATOM     12  C   UNL     1      -1.516  11.807  20.474  0.00  0.00    +0.000 C 
ATOM     13  C   UNL     1      -2.675  11.241  18.245  0.00  0.00    +0.000 A 
ATOM     14  C   UNL     1      -3.935  11.867  18.281  0.00  0.00    +0.000 A 
BRANCH   5  16
ATOM     15  C   UNL     1      -6.820  12.247  18.624  0.00  0.00    +0.000 C 
ATOM     16  C   UNL     1      -6.180  12.356  17.250  0.00  0.00    +0.000 C 
ENDBRANCH   5  16
ENDBRANCH   1  10
BRANCH   3  17
ATOM     17  C   UNL     1       2.594   8.461  18.079  0.00  0.00    +0.000 C 
BRANCH  17  18
ATOM     18  C   UNL     1       2.538   7.046  18.623  0.00  0.00    +0.000 A 
ATOM     19  C   UNL     1       2.182   6.787  19.957  0.00  0.00    +0.000 A 
ATOM     20  C   UNL     1       2.106   5.476  20.438  0.00  0.00    +0.000 A 
ATOM     21  C   UNL     1       2.349   4.411  19.573  0.00  0.00    +0.000 A 
ATOM     22  C   UNL     1       2.694   4.641  18.243  0.00  0.00    +0.000 A 
ATOM     23  C   UNL     1       2.779   5.955  17.768  0.00  0.00    +0.000 A 
BRANCH  21  24
ATOM     24  S   UNL     1       2.233   2.756  20.184  0.00  0.00    +0.000 S 
ATOM     25  O   UNL     1       1.788   1.882  19.127  0.00  0.00    +0.000 OA
ATOM     26  O   UNL     1       3.395   2.464  21.000  0.00  0.00    +0.000 OA
BRANCH  24  27
ATOM     27  N   UNL     1       0.942   2.886  21.254  0.00  0.00    +0.000 NA
ATOM     28  H   UNL     1       0.614   1.957  21.517  0.00  0.00    +0.000 HD
ATOM     29  H   UNL     1       1.196   3.480  22.042  0.00  0.00    +0.000 HD
ENDBRANCH  24  27
ENDBRANCH  21  24
ENDBRANCH  17  18
ENDBRANCH   3  17
TORSDOF 6
ENDMDL
MODEL 6
REMARK VINA RESULT:      -7.8      2.702      3.543
REMARK  Name = 
REMARK  8 active torsions:
REMARK  status: ('A' for Active; 'I' for Inactive)
REMARK    1  A    between atoms: C_1  and  C_2
REMARK    2  A    between atoms: C_2  and  C_3
REMARK    3  A    between atoms: C_8  and  C_9
REMARK    4  A    between atoms: N_11  and  C_12
REMARK    5  A    between atoms: C_12  and  C_13
REMARK    6  A    between atoms: C_16  and  S_17
REMARK    7  A    between atoms: S_17  and  N_18
REMARK    8  A    between atoms: C_23  and  C_24
REMARK                            x       y       z     vdW  Elec       q    Type
REMARK                         _______ _______ _______ _____ _____    ______ ____
ROOT
ATOM      1  C   UNL     1       1.220  10.506  19.185  0.00  0.00    +0.000 C 
ATOM      2  O   UNL     1       1.900  11.267  18.506  0.00  0.00    +0.000 OA
ATOM      3  N   UNL     1       1.337   9.135  19.100  0.00  0.00    +0.000 N 
ATOM      4  H   UNL     1       0.835   8.592  19.794  0.00  0.00    +0.000 HD
ENDROOT
BRANCH   1  10
ATOM      5  C   UNL     1      -3.019  12.403  23.081  0.00  0.00    +0.000 A 
ATOM      6  C   UNL     1      -3.319  13.175  21.946  0.00  0.00    +0.000 A 
ATOM      7  C   UNL     1      -2.574  13.064  20.764  0.00  0.00    +0.000 A 
ATOM      8  C   UNL     1      -1.519  12.155  20.776  0.00  0.00    +0.000 A 
ATOM      9  O   UNL     1      -0.694  11.884  19.732  0.00  0.00    +0.000 OA
ATOM     10  C   UNL     1       0.217  10.940  20.150  0.00  0.00    +0.000 A 
ATOM     11  C   UNL     1      -0.035  10.611  21.479  0.00  0.00    +0.000 A 
ATOM     12  C   UNL     1       0.671   9.658  22.373  0.00  0.00    +0.000 C 
ATOM     13  C   UNL     1      -1.167  11.391  21.873  0.00  0.00    +0.000 A 
ATOM     14  C   UNL     1      -1.925  11.518  23.053  0.00  0.00    +0.000 A 
BRANCH   5  16
ATOM     15  C   UNL     1      -5.307  12.868  24.043  0.00  0.00    +0.000 C 
ATOM     16  C   UNL     1      -3.861  12.500  24.329  0.00  0.00    +0.000 C 
ENDBRANCH   5  16
ENDBRANCH   1  10
BRANCH   3  17
ATOM     17  C   UNL     1       2.261   8.456  18.219  0.00  0.00    +0.000 C 
BRANCH  17  18
ATOM     18  C   UNL     1       2.550   7.035  18.662  0.00  0.00    +0.000 A 
ATOM     19  C   UNL     1       2.152   6.564  19.924  0.00  0.00    +0.000 A 
ATOM     20  C   UNL     1       2.398   5.243  20.309  0.00  0.00    +0.000 A 
ATOM     21  C   UNL     1       3.013   4.370  19.414  0.00  0.00    +0.000 A 
ATOM     22  C   UNL     1       3.409   4.808  18.152  0.00  0.00    +0.000 A 
ATOM     23  C   UNL     1       3.169   6.135  17.775  0.00  0.00    +0.000 A 
BRANCH  21  24
ATOM     24  S   UNL     1       3.305   2.696  19.900  0.00  0.00    +0.000 S 
ATOM     25  O   UNL     1       3.049   2.551  21.312  0.00  0.00    +0.000 OA
ATOM     26  O   UNL     1       2.738   1.802  18.910  0.00  0.00    +0.000 OA
BRANCH  24  27
ATOM     27  N   UNL     1       4.974   2.582  19.718  0.00  0.00    +0.000 NA
ATOM     28  H   UNL     1       5.344   3.457  19.350  0.00  0.00    +0.000 HD
ATOM     29  H   UNL     1       5.404   2.278  20.590  0.00  0.00    +0.000 HD
ENDBRANCH  24  27
ENDBRANCH  21  24
ENDBRANCH  17  18
ENDBRANCH   3  17
TORSDOF 6
ENDMDL
MODEL 7
REMARK VINA RESULT:      -7.7      1.119      1.568
REMARK  Name = 
REMARK  8 active torsions:
REMARK  status: ('A' for Active; 'I' for Inactive)
REMARK    1  A    between atoms: C_1  and  C_2
REMARK    2  A    between atoms: C_2  and  C_3
REMARK    3  A    between atoms: C_8  and  C_9
REMARK    4  A    between atoms: N_11  and  C_12
REMARK    5  A    between atoms: C_12  and  C_13
REMARK    6  A    between atoms: C_16  and  S_17
REMARK    7  A    between atoms: S_17  and  N_18
REMARK    8  A    between atoms: C_23  and  C_24
REMARK                            x       y       z     vdW  Elec       q    Type
REMARK                         _______ _______ _______ _____ _____    ______ ____
ROOT
ATOM      1  C   UNL     1       0.755   9.814  19.148  0.00  0.00    +0.000 C 
ATOM      2  O   UNL     1       1.826  10.247  18.740  0.00  0.00    +0.000 OA
ATOM      3  N   UNL     1       0.674   8.821  20.102  0.00  0.00    +0.000 N 
ATOM      4  H   UNL     1      -0.248   8.625  20.476  0.00  0.00    +0.000 HD
ENDROOT
BRANCH   1  10
ATOM      5  C   UNL     1      -4.645  11.656  17.099  0.00  0.00    +0.000 A 
ATOM      6  C   UNL     1      -4.178  10.899  16.012  0.00  0.00    +0.000 A 
ATOM      7  C   UNL     1      -2.930  10.261  16.042  0.00  0.00    +0.000 A 
ATOM      8  C   UNL     1      -2.176  10.423  17.201  0.00  0.00    +0.000 A 
ATOM      9  O   UNL     1      -0.957   9.873  17.437  0.00  0.00    +0.000 OA
ATOM     10  C   UNL     1      -0.548  10.279  18.688  0.00  0.00    +0.000 A 
ATOM     11  C   UNL     1      -1.523  11.099  19.250  0.00  0.00    +0.000 A 
ATOM     12  C   UNL     1      -1.545  11.786  20.566  0.00  0.00    +0.000 C 
ATOM     13  C   UNL     1      -2.579  11.177  18.288  0.00  0.00    +0.000 A 
ATOM     14  C   UNL     1      -3.834  11.813  18.238  0.00  0.00    +0.000 A 
BRANCH   5  16
ATOM     15  C   UNL     1      -6.933  11.777  18.162  0.00  0.00    +0.000 C 
ATOM     16  C   UNL     1      -6.011  12.295  17.070  0.00  0.00    +0.000 C 
ENDBRANCH   5  16
ENDBRANCH   1  10
BRANCH   3  17
ATOM     17  C   UNL     1       1.823   8.197  20.717  0.00  0.00    +0.000 C 
BRANCH  17  18
ATOM     18  C   UNL     1       2.168   6.861  20.085  0.00  0.00    +0.000 A 
ATOM     19  C   UNL     1       1.743   5.649  20.654  0.00  0.00    +0.000 A 
ATOM     20  C   UNL     1       2.043   4.426  20.046  0.00  0.00    +0.000 A 
ATOM     21  C   UNL     1       2.739   4.411  18.838  0.00  0.00    +0.000 A 
ATOM     22  C   UNL     1       3.162   5.601  18.248  0.00  0.00    +0.000 A 
ATOM     23  C   UNL     1       2.868   6.822  18.865  0.00  0.00    +0.000 A 
BRANCH  21  24
ATOM     24  S   UNL     1       3.098   2.863  18.065  0.00  0.00    +0.000 S 
ATOM     25  O   UNL     1       3.423   1.885  19.073  0.00  0.00    +0.000 OA
ATOM     26  O   UNL     1       2.125   2.611  17.021  0.00  0.00    +0.000 OA
BRANCH  24  27
ATOM     27  N   UNL     1       4.541   3.212  17.274  0.00  0.00    +0.000 NA
ATOM     28  H   UNL     1       5.261   2.548  17.554  0.00  0.00    +0.000 HD
ATOM     29  H   UNL     1       4.387   3.265  16.268  0.00  0.00    +0.000 HD
ENDBRANCH  24  27
ENDBRANCH  21  24
ENDBRANCH  17  18
ENDBRANCH   3  17
TORSDOF 6
ENDMDL
MODEL 8
REMARK VINA RESULT:      -7.7      1.217      1.557
REMARK  Name = 
REMARK  8 active torsions:
REMARK  status: ('A' for Active; 'I' for Inactive)
REMARK    1  A    between atoms: C_1  and  C_2
REMARK    2  A    between atoms: C_2  and  C_3
REMARK    3  A    between atoms: C_8  and  C_9
REMARK    4  A    between atoms: N_11  and  C_12
REMARK    5  A    between atoms: C_12  and  C_13
REMARK    6  A    between atoms: C_16  and  S_17
REMARK    7  A    between atoms: S_17  and  N_18
REMARK    8  A    between atoms: C_23  and  C_24
REMARK                            x       y       z     vdW  Elec       q    Type
REMARK                         _______ _______ _______ _____ _____    ______ ____
ROOT
ATOM      1  C   UNL     1       0.706   9.833  19.054  0.00  0.00    +0.000 C 
ATOM      2  O   UNL     1       1.769  10.253  18.614  0.00  0.00    +0.000 OA
ATOM      3  N   UNL     1       0.641   8.837  20.007  0.00  0.00    +0.000 N 
ATOM      4  H   UNL     1      -0.270   8.652  20.410  0.00  0.00    +0.000 HD
ENDROOT
BRANCH   1  10
ATOM      5  C   UNL     1      -4.732  11.753  17.186  0.00  0.00    +0.000 A 
ATOM      6  C   UNL     1      -4.315  10.986  16.086  0.00  0.00    +0.000 A 
ATOM      7  C   UNL     1      -3.077  10.328  16.075  0.00  0.00    +0.000 A 
ATOM      8  C   UNL     1      -2.281  10.482  17.207  0.00  0.00    +0.000 A 
ATOM      9  O   UNL     1      -1.063   9.914  17.403  0.00  0.00    +0.000 OA
ATOM     10  C   UNL     1      -0.605  10.316  18.638  0.00  0.00    +0.000 A 
ATOM     11  C   UNL     1      -1.547  11.154  19.230  0.00  0.00    +0.000 A 
ATOM     12  C   UNL     1      -1.513  11.844  20.544  0.00  0.00    +0.000 C 
ATOM     13  C   UNL     1      -2.634  11.245  18.305  0.00  0.00    +0.000 A 
ATOM     14  C   UNL     1      -3.880  11.901  18.296  0.00  0.00    +0.000 A 
BRANCH   5  16
ATOM     15  C   UNL     1      -7.035  11.803  18.220  0.00  0.00    +0.000 C 
ATOM     16  C   UNL     1      -6.088  12.414  17.201  0.00  0.00    +0.000 C 
ENDBRANCH   5  16
ENDBRANCH   1  10
BRANCH   3  17
ATOM     17  C   UNL     1       1.802   8.195  20.583  0.00  0.00    +0.000 C 
BRANCH  17  18
ATOM     18  C   UNL     1       2.184   6.922  19.853  0.00  0.00    +0.000 A 
ATOM     19  C   UNL     1       2.889   6.955  18.639  0.00  0.00    +0.000 A 
ATOM     20  C   UNL     1       3.261   5.774  17.991  0.00  0.00    +0.000 A 
ATOM     21  C   UNL     1       2.963   4.545  18.577  0.00  0.00    +0.000 A 
ATOM     22  C   UNL     1       2.273   4.484  19.786  0.00  0.00    +0.000 A 
ATOM     23  C   UNL     1       1.894   5.669  20.426  0.00  0.00    +0.000 A 
BRANCH  21  24
ATOM     24  S   UNL     1       3.452   3.055  17.761  0.00  0.00    +0.000 S 
ATOM     25  O   UNL     1       2.282   2.283  17.424  0.00  0.00    +0.000 OA
ATOM     26  O   UNL     1       4.491   3.356  16.797  0.00  0.00    +0.000 OA
BRANCH  24  27
ATOM     27  N   UNL     1       4.212   2.225  19.011  0.00  0.00    +0.000 NA
ATOM     28  H   UNL     1       4.745   1.442  18.635  0.00  0.00    +0.000 HD
ATOM     29  H   UNL     1       4.759   2.870  19.581  0.00  0.00    +0.000 HD
ENDBRANCH  24  27
ENDBRANCH  21  24
ENDBRANCH  17  18
ENDBRANCH   3  17
TORSDOF 6
ENDMDL
MODEL 9
REMARK VINA RESULT:      -7.7      4.538      9.428
REMARK  Name = 
REMARK  8 active torsions:
REMARK  status: ('A' for Active; 'I' for Inactive)
REMARK    1  A    between atoms: C_1  and  C_2
REMARK    2  A    between atoms: C_2  and  C_3
REMARK    3  A    between atoms: C_8  and  C_9
REMARK    4  A    between atoms: N_11  and  C_12
REMARK    5  A    between atoms: C_12  and  C_13
REMARK    6  A    between atoms: C_16  and  S_17
REMARK    7  A    between atoms: S_17  and  N_18
REMARK    8  A    between atoms: C_23  and  C_24
REMARK                            x       y       z     vdW  Elec       q    Type
REMARK                         _______ _______ _______ _____ _____    ______ ____
ROOT
ATOM      1  C   UNL     1       2.353   5.440  20.250  0.00  0.00    +0.000 C 
ATOM      2  O   UNL     1       2.028   4.527  21.000  0.00  0.00    +0.000 OA
ATOM      3  N   UNL     1       1.864   6.722  20.391  0.00  0.00    +0.000 N 
ATOM      4  H   UNL     1       2.293   7.438  19.814  0.00  0.00    +0.000 HD
ENDROOT
BRANCH   1  10
ATOM      5  C   UNL     1       6.310   4.932  15.686  0.00  0.00    +0.000 A 
ATOM      6  C   UNL     1       6.995   5.800  16.552  0.00  0.00    +0.000 A 
ATOM      7  C   UNL     1       6.441   6.207  17.774  0.00  0.00    +0.000 A 
ATOM      8  C   UNL     1       5.177   5.710  18.081  0.00  0.00    +0.000 A 
ATOM      9  O   UNL     1       4.479   5.964  19.218  0.00  0.00    +0.000 OA
ATOM     10  C   UNL     1       3.278   5.296  19.132  0.00  0.00    +0.000 A 
ATOM     11  C   UNL     1       3.215   4.612  17.921  0.00  0.00    +0.000 A 
ATOM     12  C   UNL     1       2.132   3.762  17.365  0.00  0.00    +0.000 C 
ATOM     13  C   UNL     1       4.452   4.873  17.252  0.00  0.00    +0.000 A 
ATOM     14  C   UNL     1       5.022   4.478  16.028  0.00  0.00    +0.000 A 
BRANCH   5  16
ATOM     15  C   UNL     1       5.944   3.826  13.445  0.00  0.00    +0.000 C 
ATOM     16  C   UNL     1       6.941   4.466  14.397  0.00  0.00    +0.000 C 
ENDBRANCH   5  16
ENDBRANCH   1  10
BRANCH   3  17
ATOM     17  C   UNL     1       0.935   7.123  21.423  0.00  0.00    +0.000 C 
BRANCH  17  18
ATOM     18  C   UNL     1       0.631   8.608  21.388  0.00  0.00    +0.000 A 
ATOM     19  C   UNL     1       0.029   9.261  22.476  0.00  0.00    +0.000 A 
ATOM     20  C   UNL     1      -0.219  10.636  22.442  0.00  0.00    +0.000 A 
ATOM     21  C   UNL     1       0.171  11.377  21.328  0.00  0.00    +0.000 A 
ATOM     22  C   UNL     1       0.779  10.756  20.238  0.00  0.00    +0.000 A 
ATOM     23  C   UNL     1       1.016   9.377  20.274  0.00  0.00    +0.000 A 
BRANCH  21  24
ATOM     24  S   UNL     1      -0.130  13.119  21.299  0.00  0.00    +0.000 S 
ATOM     25  O   UNL     1       1.017  13.816  21.825  0.00  0.00    +0.000 OA
ATOM     26  O   UNL     1      -0.748  13.478  20.038  0.00  0.00    +0.000 OA
BRANCH  24  27
ATOM     27  N   UNL     1      -1.337  13.268  22.461  0.00  0.00    +0.000 NA
ATOM     28  H   UNL     1      -1.469  12.379  22.942  0.00  0.00    +0.000 HD
ATOM     29  H   UNL     1      -1.137  14.054  23.077  0.00  0.00    +0.000 HD
ENDBRANCH  24  27
ENDBRANCH  21  24
ENDBRANCH  17  18
ENDBRANCH   3  17
TORSDOF 6
ENDMDL
