MODEL 1
REMARK VINA RESULT:      -6.5      0.000      0.000
REMARK  Name = 
REMARK  5 active torsions:
REMARK  status: ('A' for Active; 'I' for Inactive)
REMARK    1  A    between atoms: C_2  and  C_16
REMARK    2  A    between atoms: N_3  and  C_4
REMARK    3  A    between atoms: C_4  and  C_5
REMARK    4  A    between atoms: C_5  and  N_6
REMARK    5  A    between atoms: C_5  and  C_12
REMARK                            x       y       z     vdW  Elec       q    Type
REMARK                         _______ _______ _______ _____ _____    ______ ____
ROOT
ATOM      1  C   UNL     1       2.588   6.112  18.272  0.00  0.00    +0.000 C 
ENDROOT
BRANCH   1   4
ATOM      2  O   UNL     1       2.492   8.725  17.277  0.00  0.00    +0.000 OA
ATOM      3  C   UNL     1       2.046   8.503  18.390  0.00  0.00    +0.000 C 
ATOM      4  N   UNL     1       2.071   7.267  18.985  0.00  0.00    +0.000 N 
ATOM      5  H   UNL     1       1.603   7.123  19.870  0.00  0.00    +0.000 HD
BRANCH   3   6
ATOM      6  C   UNL     1       1.440   9.590  19.224  0.00  0.00    +0.000 C 
ATOM      7  C   UNL     1       1.438  10.994  18.667  0.00  0.00    +0.000 C 
ATOM      8  C   UNL     1       0.129  10.248  18.828  0.00  0.00    +0.000 C 
ATOM      9  C   UNL     1      -0.648   9.828  17.617  0.00  0.00    +0.000 C 
ATOM     10  C   UNL     1      -2.092  10.100  18.015  0.00  0.00    +0.000 C 
ATOM     11  O   UNL     1      -2.041  11.057  19.082  0.00  0.00    +0.000 OA
ATOM     12  C   UNL     1      -0.857  10.760  19.832  0.00  0.00    +0.000 C 
ENDBRANCH   3   6
ENDBRANCH   1   4
BRANCH   1  13
ATOM     13  C   UNL     1       3.478   5.114  19.087  0.00  0.00    +0.000 C 
BRANCH  13  14
ATOM     14  N   UNL     1       3.000   3.679  18.975  0.00  0.00    +0.000 NA
ATOM     15  C   UNL     1       1.528   3.503  18.922  0.00  0.00    +0.000 C 
ATOM     16  C   UNL     1       0.810   3.637  20.273  0.00  0.00    +0.000 C 
ATOM     17  O   UNL     1       1.330   2.694  21.216  0.00  0.00    +0.000 OA
ATOM     18  C   UNL     1       2.734   2.900  21.398  0.00  0.00    +0.000 C 
ATOM     19  C   UNL     1       3.496   2.794  20.065  0.00  0.00    +0.000 C 
ENDBRANCH  13  14
BRANCH  13  20
ATOM     20  C   UNL     1       4.949   5.382  18.598  0.00  0.00    +0.000 C 
ATOM     21  F   UNL     1       5.421   4.431  17.759  0.00  0.00    +0.000 F 
ATOM     22  F   UNL     1       5.017   6.562  17.932  0.00  0.00    +0.000 F 
ATOM     23  F   UNL     1       5.834   5.450  19.622  0.00  0.00    +0.000 F 
ENDBRANCH  13  20
ENDBRANCH   1  13
TORSDOF 5
ENDMDL
MODEL 2
REMARK VINA RESULT:      -6.4      3.677      6.264
REMARK  Name = 
REMARK  5 active torsions:
REMARK  status: ('A' for Active; 'I' for Inactive)
REMARK    1  A    between atoms: C_2  and  C_16
REMARK    2  A    between atoms: N_3  and  C_4
REMARK    3  A    between atoms: C_4  and  C_5
REMARK    4  A    between atoms: C_5  and  N_6
REMARK    5  A    between atoms: C_5  and  C_12
REMARK                            x       y       z     vdW  Elec       q    Type
REMARK                         _______ _______ _______ _____ _____    ______ ____
ROOT
ATOM      1  C   UNL     1       4.704   5.522  19.536  0.00  0.00    +0.000 C 
ENDROOT
BRANCH   1   4
ATOM      2  O   UNL     1       5.119   7.130  17.285  0.00  0.00    +0.000 OA
ATOM      3  C   UNL     1       5.834   6.157  17.451  0.00  0.00    +0.000 C 
ATOM      4  N   UNL     1       5.697   5.285  18.503  0.00  0.00    +0.000 N 
ATOM      5  H   UNL     1       6.377   4.549  18.641  0.00  0.00    +0.000 HD
BRANCH   3   6
ATOM      6  C   UNL     1       6.931   5.814  16.490  0.00  0.00    +0.000 C 
ATOM      7  C   UNL     1       7.512   4.421  16.545  0.00  0.00    +0.000 C 
ATOM      8  C   UNL     1       6.698   4.848  15.341  0.00  0.00    +0.000 C 
ATOM      9  C   UNL     1       5.363   4.219  15.078  0.00  0.00    +0.000 C 
ATOM     10  C   UNL     1       5.352   4.038  13.567  0.00  0.00    +0.000 C 
ATOM     11  O   UNL     1       6.724   4.056  13.150  0.00  0.00    +0.000 OA
ATOM     12  C   UNL     1       7.397   4.973  14.023  0.00  0.00    +0.000 C 
ENDBRANCH   3   6
ENDBRANCH   1   4
BRANCH   1  13
ATOM     13  C   UNL     1       3.246   5.031  19.245  0.00  0.00    +0.000 C 
BRANCH  13  14
ATOM     14  N   UNL     1       2.842   3.852  20.108  0.00  0.00    +0.000 NA
ATOM     15  C   UNL     1       3.681   2.639  19.957  0.00  0.00    +0.000 C 
ATOM     16  C   UNL     1       3.401   1.809  18.695  0.00  0.00    +0.000 C 
ATOM     17  O   UNL     1       2.030   1.401  18.654  0.00  0.00    +0.000 OA
ATOM     18  C   UNL     1       1.172   2.546  18.675  0.00  0.00    +0.000 C 
ATOM     19  C   UNL     1       1.430   3.421  19.915  0.00  0.00    +0.000 C 
ENDBRANCH  13  14
BRANCH  13  20
ATOM     20  C   UNL     1       2.346   6.315  19.380  0.00  0.00    +0.000 C 
ATOM     21  F   UNL     1       1.489   6.266  20.426  0.00  0.00    +0.000 F 
ATOM     22  F   UNL     1       3.118   7.416  19.556  0.00  0.00    +0.000 F 
ATOM     23  F   UNL     1       1.583   6.535  18.282  0.00  0.00    +0.000 F 
ENDBRANCH  13  20
ENDBRANCH   1  13
TORSDOF 5
ENDMDL
MODEL 3
REMARK VINA RESULT:      -6.3      2.676      4.151
REMARK  Name = 
REMARK  5 active torsions:
REMARK  status: ('A' for Active; 'I' for Inactive)
REMARK    1  A    between atoms: C_2  and  C_16
REMARK    2  A    between atoms: N_3  and  C_4
REMARK    3  A    between atoms: C_4  and  C_5
REMARK    4  A    between atoms: C_5  and  N_6
REMARK    5  A    between atoms: C_5  and  C_12
REMARK                            x       y       z     vdW  Elec       q    Type
REMARK                         _______ _______ _______ _____ _____    ______ ____
ROOT
ATOM      1  C   UNL     1       4.086   6.158  18.199  0.00  0.00    +0.000 C 
ENDROOT
BRANCH   1   4
ATOM      2  O   UNL     1       1.908   7.386  19.454  0.00  0.00    +0.000 OA
ATOM      3  C   UNL     1       2.424   7.940  18.499  0.00  0.00    +0.000 C 
ATOM      4  N   UNL     1       3.475   7.412  17.792  0.00  0.00    +0.000 N 
ATOM      5  H   UNL     1       3.923   7.959  17.069  0.00  0.00    +0.000 HD
BRANCH   3   6
ATOM      6  C   UNL     1       1.929   9.262  17.995  0.00  0.00    +0.000 C 
ATOM      7  C   UNL     1       0.442   9.435  17.803  0.00  0.00    +0.000 C 
ATOM      8  C   UNL     1       1.152  10.207  18.896  0.00  0.00    +0.000 C 
ATOM      9  C   UNL     1       0.871   9.896  20.336  0.00  0.00    +0.000 C 
ATOM     10  C   UNL     1       0.837  11.270  20.990  0.00  0.00    +0.000 C 
ATOM     11  O   UNL     1       0.579  12.210  19.938  0.00  0.00    +0.000 OA
ATOM     12  C   UNL     1       1.233  11.696  18.771  0.00  0.00    +0.000 C 
ENDBRANCH   3   6
ENDBRANCH   1   4
BRANCH   1  13
ATOM     13  C   UNL     1       4.018   4.972  17.179  0.00  0.00    +0.000 C 
BRANCH  13  14
ATOM     14  N   UNL     1       5.321   4.202  17.090  0.00  0.00    +0.000 NA
ATOM     15  C   UNL     1       6.495   4.870  17.701  0.00  0.00    +0.000 C 
ATOM     16  C   UNL     1       7.107   6.002  16.862  0.00  0.00    +0.000 C 
ATOM     17  O   UNL     1       7.500   5.519  15.574  0.00  0.00    +0.000 OA
ATOM     18  C   UNL     1       6.372   4.970  14.887  0.00  0.00    +0.000 C 
ATOM     19  C   UNL     1       5.712   3.842  15.699  0.00  0.00    +0.000 C 
ENDBRANCH  13  14
BRANCH  13  20
ATOM     20  C   UNL     1       2.758   4.133  17.609  0.00  0.00    +0.000 C 
ATOM     21  F   UNL     1       1.592   4.807  17.480  0.00  0.00    +0.000 F 
ATOM     22  F   UNL     1       2.652   3.016  16.846  0.00  0.00    +0.000 F 
ATOM     23  F   UNL     1       2.815   3.729  18.901  0.00  0.00    +0.000 F 
ENDBRANCH  13  20
ENDBRANCH   1  13
TORSDOF 5
ENDMDL
MODEL 4
REMARK VINA RESULT:      -6.2      4.157      6.212
REMARK  Name = 
REMARK  5 active torsions:
REMARK  status: ('A' for Active; 'I' for Inactive)
REMARK    1  A    between atoms: C_2  and  C_16
REMARK    2  A    between atoms: N_3  and  C_4
REMARK    3  A    between atoms: C_4  and  C_5
REMARK    4  A    between atoms: C_5  and  N_6
REMARK    5  A    between atoms: C_5  and  C_12
REMARK                            x       y       z     vdW  Elec       q    Type
REMARK                         _______ _______ _______ _____ _____    ______ ____
ROOT
ATOM      1  C   UNL     1       3.967   6.002  19.395  0.00  0.00    +0.000 C 
ENDROOT
BRANCH   1   4
ATOM      2  O   UNL     1       4.393   7.115  16.864  0.00  0.00    +0.000 OA
ATOM      3  C   UNL     1       5.225   6.347  17.315  0.00  0.00    +0.000 C 
ATOM      4  N   UNL     1       5.100   5.722  18.531  0.00  0.00    +0.000 N 
ATOM      5  H   UNL     1       5.865   5.169  18.895  0.00  0.00    +0.000 HD
BRANCH   3   6
ATOM      6  C   UNL     1       6.468   6.000  16.555  0.00  0.00    +0.000 C 
ATOM      7  C   UNL     1       7.093   4.647  16.798  0.00  0.00    +0.000 C 
ATOM      8  C   UNL     1       6.452   4.947  15.459  0.00  0.00    +0.000 C 
ATOM      9  C   UNL     1       5.201   4.230  15.050  0.00  0.00    +0.000 C 
ATOM     10  C   UNL     1       5.425   3.947  13.572  0.00  0.00    +0.000 C 
ATOM     11  O   UNL     1       6.843   4.011  13.361  0.00  0.00    +0.000 OA
ATOM     12  C   UNL     1       7.336   5.019  14.253  0.00  0.00    +0.000 C 
ENDBRANCH   3   6
ENDBRANCH   1   4
BRANCH   1  13
ATOM     13  C   UNL     1       2.838   4.918  19.461  0.00  0.00    +0.000 C 
BRANCH  13  14
ATOM     14  N   UNL     1       3.386   3.508  19.551  0.00  0.00    +0.000 NA
ATOM     15  C   UNL     1       3.920   2.952  18.284  0.00  0.00    +0.000 C 
ATOM     16  C   UNL     1       2.854   2.473  17.287  0.00  0.00    +0.000 C 
ATOM     17  O   UNL     1       2.017   1.478  17.883  0.00  0.00    +0.000 OA
ATOM     18  C   UNL     1       1.378   2.004  19.050  0.00  0.00    +0.000 C 
ATOM     19  C   UNL     1       2.407   2.515  20.074  0.00  0.00    +0.000 C 
ENDBRANCH  13  14
BRANCH  13  20
ATOM     20  C   UNL     1       1.907   5.366  20.647  0.00  0.00    +0.000 C 
ATOM     21  F   UNL     1       0.649   4.876  20.560  0.00  0.00    +0.000 F 
ATOM     22  F   UNL     1       2.414   4.939  21.831  0.00  0.00    +0.000 F 
ATOM     23  F   UNL     1       1.779   6.712  20.731  0.00  0.00    +0.000 F 
ENDBRANCH  13  20
ENDBRANCH   1  13
TORSDOF 5
ENDMDL
MODEL 5
REMARK VINA RESULT:      -6.2      3.318      7.104
REMARK  Name = 
REMARK  5 active torsions:
REMARK  status: ('A' for Active; 'I' for Inactive)
REMARK    1  A    between atoms: C_2  and  C_16
REMARK    2  A    between atoms: N_3  and  C_4
REMARK    3  A    between atoms: C_4  and  C_5
REMARK    4  A    between atoms: C_5  and  N_6
REMARK    5  A    between atoms: C_5  and  C_12
REMARK                            x       y       z     vdW  Elec       q    Type
REMARK                         _______ _______ _______ _____ _____    ______ ____
ROOT
ATOM      1  C   UNL     1       1.572   8.775  19.151  0.00  0.00    +0.000 C 
ENDROOT
BRANCH   1   4
ATOM      2  O   UNL     1       3.345   6.910  18.056  0.00  0.00    +0.000 OA
ATOM      3  C   UNL     1       2.851   6.680  19.146  0.00  0.00    +0.000 C 
ATOM      4  N   UNL     1       1.948   7.512  19.760  0.00  0.00    +0.000 N 
ATOM      5  H   UNL     1       1.643   7.317  20.705  0.00  0.00    +0.000 HD
BRANCH   3   6
ATOM      6  C   UNL     1       3.182   5.437  19.913  0.00  0.00    +0.000 C 
ATOM      7  C   UNL     1       2.069   4.755  20.672  0.00  0.00    +0.000 C 
ATOM      8  C   UNL     1       2.677   4.076  19.462  0.00  0.00    +0.000 C 
ATOM      9  C   UNL     1       1.863   3.893  18.217  0.00  0.00    +0.000 C 
ATOM     10  C   UNL     1       2.249   2.498  17.747  0.00  0.00    +0.000 C 
ATOM     11  O   UNL     1       2.776   1.819  18.895  0.00  0.00    +0.000 OA
ATOM     12  C   UNL     1       3.452   2.813  19.675  0.00  0.00    +0.000 C 
ENDBRANCH   3   6
ENDBRANCH   1   4
BRANCH   1  13
ATOM     13  C   UNL     1       0.453   9.604  19.868  0.00  0.00    +0.000 C 
BRANCH  13  14
ATOM     14  N   UNL     1       0.989  10.443  21.012  0.00  0.00    +0.000 NA
ATOM     15  C   UNL     1       1.239   9.708  22.275  0.00  0.00    +0.000 C 
ATOM     16  C   UNL     1      -0.018   9.388  23.099  0.00  0.00    +0.000 C 
ATOM     17  O   UNL     1      -0.726  10.588  23.424  0.00  0.00    +0.000 OA
ATOM     18  C   UNL     1      -1.100  11.280  22.229  0.00  0.00    +0.000 C 
ATOM     19  C   UNL     1       0.127  11.606  21.359  0.00  0.00    +0.000 C 
ENDBRANCH  13  14
BRANCH  13  20
ATOM     20  C   UNL     1      -0.269  10.400  18.718  0.00  0.00    +0.000 C 
ATOM     21  F   UNL     1       0.306  11.594  18.446  0.00  0.00    +0.000 F 
ATOM     22  F   UNL     1      -0.252   9.684  17.566  0.00  0.00    +0.000 F 
ATOM     23  F   UNL     1      -1.566  10.666  19.004  0.00  0.00    +0.000 F 
ENDBRANCH  13  20
ENDBRANCH   1  13
TORSDOF 5
ENDMDL
MODEL 6
REMARK VINA RESULT:      -6.2      2.686      3.442
REMARK  Name = 
REMARK  5 active torsions:
REMARK  status: ('A' for Active; 'I' for Inactive)
REMARK    1  A    between atoms: C_2  and  C_16
REMARK    2  A    between atoms: N_3  and  C_4
REMARK    3  A    between atoms: C_4  and  C_5
REMARK    4  A    between atoms: C_5  and  N_6
REMARK    5  A    between atoms: C_5  and  C_12
REMARK                            x       y       z     vdW  Elec       q    Type
REMARK                         _______ _______ _______ _____ _____    ______ ____
ROOT
ATOM      1  C   UNL     1       2.103   5.986  20.206  0.00  0.00    +0.000 C 
ENDROOT
BRANCH   1   4
ATOM      2  O   UNL     1       0.885   8.299  21.202  0.00  0.00    +0.000 OA
ATOM      3  C   UNL     1       1.524   8.371  20.167  0.00  0.00    +0.000 C 
ATOM      4  N   UNL     1       2.135   7.293  19.575  0.00  0.00    +0.000 N 
ATOM      5  H   UNL     1       2.729   7.430  18.768  0.00  0.00    +0.000 HD
BRANCH   3   6
ATOM      6  C   UNL     1       1.682   9.665  19.429  0.00  0.00    +0.000 C 
ATOM      7  C   UNL     1       1.450   9.663  17.937  0.00  0.00    +0.000 C 
ATOM      8  C   UNL     1       0.480  10.390  18.845  0.00  0.00    +0.000 C 
ATOM      9  C   UNL     1      -0.921   9.882  19.005  0.00  0.00    +0.000 C 
ATOM     10  C   UNL     1      -1.756  11.154  19.023  0.00  0.00    +0.000 C 
ATOM     11  O   UNL     1      -0.957  12.167  18.396  0.00  0.00    +0.000 OA
ATOM     12  C   UNL     1       0.403  11.882  18.747  0.00  0.00    +0.000 C 
ENDBRANCH   3   6
ENDBRANCH   1   4
BRANCH   1  13
ATOM     13  C   UNL     1       2.376   4.747  19.288  0.00  0.00    +0.000 C 
BRANCH  13  14
ATOM     14  N   UNL     1       3.810   4.262  19.369  0.00  0.00    +0.000 NA
ATOM     15  C   UNL     1       4.843   5.323  19.290  0.00  0.00    +0.000 C 
ATOM     16  C   UNL     1       5.108   5.867  17.878  0.00  0.00    +0.000 C 
ATOM     17  O   UNL     1       5.497   4.810  16.996  0.00  0.00    +0.000 OA
ATOM     18  C   UNL     1       4.475   3.811  16.940  0.00  0.00    +0.000 C 
ATOM     19  C   UNL     1       4.161   3.248  18.337  0.00  0.00    +0.000 C 
ENDBRANCH  13  14
BRANCH  13  20
ATOM     20  C   UNL     1       1.276   3.693  19.683  0.00  0.00    +0.000 C 
ATOM     21  F   UNL     1       1.740   2.703  20.479  0.00  0.00    +0.000 F 
ATOM     22  F   UNL     1       0.264   4.297  20.356  0.00  0.00    +0.000 F 
ATOM     23  F   UNL     1       0.729   3.081  18.605  0.00  0.00    +0.000 F 
ENDBRANCH  13  20
ENDBRANCH   1  13
TORSDOF 5
ENDMDL
MODEL 7
REMARK VINA RESULT:      -6.1      4.782      6.484
REMARK  Name = 
REMARK  5 active torsions:
REMARK  status: ('A' for Active; 'I' for Inactive)
REMARK    1  A    between atoms: C_2  and  C_16
REMARK    2  A    between atoms: N_3  and  C_4
REMARK    3  A    between atoms: C_4  and  C_5
REMARK    4  A    between atoms: C_5  and  N_6
REMARK    5  A    between atoms: C_5  and  C_12
REMARK                            x       y       z     vdW  Elec       q    Type
REMARK                         _______ _______ _______ _____ _____    ______ ____
ROOT
ATOM      1  C   UNL     1       5.232   3.740  16.434  0.00  0.00    +0.000 C 
ENDROOT
BRANCH   1   4
ATOM      2  O   UNL     1       2.595   2.809  16.464  0.00  0.00    +0.000 OA
ATOM      3  C   UNL     1       2.932   3.643  17.287  0.00  0.00    +0.000 C 
ATOM      4  N   UNL     1       4.191   4.189  17.341  0.00  0.00    +0.000 N 
ATOM      5  H   UNL     1       4.441   4.806  18.102  0.00  0.00    +0.000 HD
BRANCH   3   6
ATOM      6  C   UNL     1       1.976   4.165  18.314  0.00  0.00    +0.000 C 
ATOM      7  C   UNL     1       0.752   3.338  18.629  0.00  0.00    +0.000 C 
ATOM      8  C   UNL     1       1.838   3.499  19.673  0.00  0.00    +0.000 C 
ATOM      9  C   UNL     1       2.670   2.319  20.078  0.00  0.00    +0.000 C 
ATOM     10  C   UNL     1       2.810   2.488  21.584  0.00  0.00    +0.000 C 
ATOM     11  O   UNL     1       1.729   3.337  21.995  0.00  0.00    +0.000 OA
ATOM     12  C   UNL     1       1.512   4.260  20.920  0.00  0.00    +0.000 C 
ENDBRANCH   3   6
ENDBRANCH   1   4
BRANCH   1  13
ATOM     13  C   UNL     1       6.005   4.845  15.637  0.00  0.00    +0.000 C 
BRANCH  13  14
ATOM     14  N   UNL     1       7.361   5.160  16.238  0.00  0.00    +0.000 NA
ATOM     15  C   UNL     1       7.649   4.499  17.533  0.00  0.00    +0.000 C 
ATOM     16  C   UNL     1       6.963   5.133  18.752  0.00  0.00    +0.000 C 
ATOM     17  O   UNL     1       7.326   6.512  18.874  0.00  0.00    +0.000 OA
ATOM     18  C   UNL     1       6.957   7.227  17.691  0.00  0.00    +0.000 C 
ATOM     19  C   UNL     1       7.606   6.615  16.437  0.00  0.00    +0.000 C 
ENDBRANCH  13  14
BRANCH  13  20
ATOM     20  C   UNL     1       6.019   4.342  14.146  0.00  0.00    +0.000 C 
ATOM     21  F   UNL     1       6.881   5.022  13.356  0.00  0.00    +0.000 F 
ATOM     22  F   UNL     1       6.383   3.036  14.093  0.00  0.00    +0.000 F 
ATOM     23  F   UNL     1       4.807   4.443  13.550  0.00  0.00    +0.000 F 
ENDBRANCH  13  20
ENDBRANCH   1  13
TORSDOF 5
ENDMDL
MODEL 8
REMARK VINA RESULT:      -6.1      2.599      3.684
REMARK  Name = 
REMARK  5 active torsions:
REMARK  status: ('A' for Active; 'I' for Inactive)
REMARK    1  A    between atoms: C_2  and  C_16
REMARK    2  A    between atoms: N_3  and  C_4
REMARK    3  A    between atoms: C_4  and  C_5
REMARK    4  A    between atoms: C_5  and  N_6
REMARK    5  A    between atoms: C_5  and  C_12
REMARK                            x       y       z     vdW  Elec       q    Type
REMARK                         _______ _______ _______ _____ _____    ______ ____
ROOT
ATOM      1  C   UNL     1       2.643   6.339  19.173  0.00  0.00    +0.000 C 
ENDROOT
BRANCH   1   4
ATOM      2  O   UNL     1       1.059   7.996  20.775  0.00  0.00    +0.000 OA
ATOM      3  C   UNL     1       1.619   8.478  19.805  0.00  0.00    +0.000 C 
ATOM      4  N   UNL     1       2.393   7.750  18.937  0.00  0.00    +0.000 N 
ATOM      5  H   UNL     1       2.909   8.220  18.205  0.00  0.00    +0.000 HD
BRANCH   3   6
ATOM      6  C   UNL     1       1.489   9.931  19.464  0.00  0.00    +0.000 C 
ATOM      7  C   UNL     1       1.794  10.356  18.047  0.00  0.00    +0.000 C 
ATOM      8  C   UNL     1       0.372  10.432  18.564  0.00  0.00    +0.000 C 
ATOM      9  C   UNL     1      -0.678   9.521  18.003  0.00  0.00    +0.000 C 
ATOM     10  C   UNL     1      -1.901  10.420  17.894  0.00  0.00    +0.000 C 
ATOM     11  O   UNL     1      -1.409  11.767  17.876  0.00  0.00    +0.000 OA
ATOM     12  C   UNL     1      -0.252  11.783  18.722  0.00  0.00    +0.000 C 
ENDBRANCH   3   6
ENDBRANCH   1   4
BRANCH   1  13
ATOM     13  C   UNL     1       2.923   5.447  17.916  0.00  0.00    +0.000 C 
BRANCH  13  14
ATOM     14  N   UNL     1       4.334   4.894  17.894  0.00  0.00    +0.000 NA
ATOM     15  C   UNL     1       5.391   5.832  18.342  0.00  0.00    +0.000 C 
ATOM     16  C   UNL     1       5.793   6.897  17.310  0.00  0.00    +0.000 C 
ATOM     17  O   UNL     1       6.240   6.281  16.099  0.00  0.00    +0.000 OA
ATOM     18  C   UNL     1       5.208   5.453  15.555  0.00  0.00    +0.000 C 
ATOM     19  C   UNL     1       4.757   4.380  16.562  0.00  0.00    +0.000 C 
ENDBRANCH  13  14
BRANCH  13  20
ATOM     20  C   UNL     1       1.770   4.376  17.907  0.00  0.00    +0.000 C 
ATOM     21  F   UNL     1       1.161   4.230  19.107  0.00  0.00    +0.000 F 
ATOM     22  F   UNL     1       0.807   4.727  17.018  0.00  0.00    +0.000 F 
ATOM     23  F   UNL     1       2.206   3.143  17.557  0.00  0.00    +0.000 F 
ENDBRANCH  13  20
ENDBRANCH   1  13
TORSDOF 5
ENDMDL
MODEL 9
REMARK VINA RESULT:      -6.0      2.587      3.877
REMARK  Name = 
REMARK  5 active torsions:
REMARK  status: ('A' for Active; 'I' for Inactive)
REMARK    1  A    between atoms: C_2  and  C_16
REMARK    2  A    between atoms: N_3  and  C_4
REMARK    3  A    between atoms: C_4  and  C_5
REMARK    4  A    between atoms: C_5  and  N_6
REMARK    5  A    between atoms: C_5  and  C_12
REMARK                            x       y       z     vdW  Elec       q    Type
REMARK                         _______ _______ _______ _____ _____    ______ ____
ROOT
ATOM      1  C   UNL     1       3.069   6.214  18.647  0.00  0.00    +0.000 C 
ENDROOT
BRANCH   1   4
ATOM      2  O   UNL     1       1.844   8.110  20.299  0.00  0.00    +0.000 OA
ATOM      3  C   UNL     1       1.951   8.350  19.109  0.00  0.00    +0.000 C 
ATOM      4  N   UNL     1       2.506   7.478  18.206  0.00  0.00    +0.000 N 
ATOM      5  H   UNL     1       2.654   7.769  17.249  0.00  0.00    +0.000 HD
BRANCH   3   6
ATOM      6  C   UNL     1       1.457   9.635  18.520  0.00  0.00    +0.000 C 
ATOM      7  C   UNL     1       0.093   9.640  17.871  0.00  0.00    +0.000 C 
ATOM      8  C   UNL     1       0.314  10.407  19.158  0.00  0.00    +0.000 C 
ATOM      9  C   UNL     1      -0.353   9.956  20.423  0.00  0.00    +0.000 C 
ATOM     10  C   UNL     1      -0.780  11.261  21.079  0.00  0.00    +0.000 C 
ATOM     11  O   UNL     1      -0.828  12.240  20.031  0.00  0.00    +0.000 OA
ATOM     12  C   UNL     1       0.221  11.900  19.116  0.00  0.00    +0.000 C 
ENDBRANCH   3   6
ENDBRANCH   1   4
BRANCH   1  13
ATOM     13  C   UNL     1       3.375   5.149  17.540  0.00  0.00    +0.000 C 
BRANCH  13  14
ATOM     14  N   UNL     1       4.794   4.619  17.615  0.00  0.00    +0.000 NA
ATOM     15  C   UNL     1       5.790   5.554  18.192  0.00  0.00    +0.000 C 
ATOM     16  C   UNL     1       6.258   6.669  17.245  0.00  0.00    +0.000 C 
ATOM     17  O   UNL     1       6.818   6.114  16.050  0.00  0.00    +0.000 OA
ATOM     18  C   UNL     1       5.852   5.295  15.386  0.00  0.00    +0.000 C 
ATOM     19  C   UNL     1       5.338   4.172  16.304  0.00  0.00    +0.000 C 
ENDBRANCH  13  14
BRANCH  13  20
ATOM     20  C   UNL     1       2.237   4.072  17.680  0.00  0.00    +0.000 C 
ATOM     21  F   UNL     1       2.064   3.632  18.948  0.00  0.00    +0.000 F 
ATOM     22  F   UNL     1       1.048   4.587  17.278  0.00  0.00    +0.000 F 
ATOM     23  F   UNL     1       2.467   2.968  16.930  0.00  0.00    +0.000 F 
ENDBRANCH  13  20
ENDBRANCH   1  13
TORSDOF 5
ENDMDL
