MODEL 1
REMARK VINA RESULT:      -6.9      0.000      0.000
REMARK  Name = 
REMARK  13 active torsions:
REMARK  status: ('A' for Active; 'I' for Inactive)
REMARK    1  A    between atoms: C_1  and  C_2
REMARK    2  A    between atoms: C_2  and  O_3
REMARK    3  A    between atoms: O_3  and  C_4
REMARK    4  A    between atoms: C_7  and  C_8
REMARK    5  A    between atoms: C_8  and  O_10
REMARK    6  A    between atoms: O_10  and  C_11
REMARK    7  A    between atoms: C_11  and  C_12
REMARK    8  A    between atoms: N_14  and  C_15
REMARK    9  A    between atoms: C_18  and  S_19
REMARK   10  A    between atoms: S_19  and  C_20
REMARK   11  A    between atoms: C_26  and  O_27
REMARK   12  A    between atoms: O_27  and  C_28
REMARK   13  A    between atoms: C_28  and  C_29
REMARK                            x       y       z     vdW  Elec       q    Type
REMARK                         _______ _______ _______ _____ _____    ______ ____
ROOT
ATOM      1  O   UNL     1       2.900   2.601  20.551  0.00  0.00    +0.000 OA
ENDROOT
BRANCH   1   2
ATOM      2  C   UNL     1       4.226   2.454  20.333  0.00  0.00    +0.000 C 
ATOM      3  O   UNL     1       4.995   1.854  21.071  0.00  0.00    +0.000 OA
BRANCH   2   7
ATOM      4  C   UNL     1       5.287   4.419  16.647  0.00  0.00    +0.000 A 
ATOM      5  C   UNL     1       4.080   3.719  16.805  0.00  0.00    +0.000 A 
ATOM      6  C   UNL     1       3.759   3.085  18.004  0.00  0.00    +0.000 A 
ATOM      7  C   UNL     1       4.646   3.129  19.077  0.00  0.00    +0.000 A 
ATOM      8  C   UNL     1       5.878   3.776  18.917  0.00  0.00    +0.000 A 
ATOM      9  C   UNL     1       6.220   4.394  17.699  0.00  0.00    +0.000 A 
BRANCH   4  10
ATOM     10  O   UNL     1       5.575   5.113  15.495  0.00  0.00    +0.000 OA
BRANCH  10  12
ATOM     11  C   UNL     1       7.345   5.262  13.853  0.00  0.00    +0.000 C 
ATOM     12  C   UNL     1       6.294   4.378  14.497  0.00  0.00    +0.000 C 
ENDBRANCH  10  12
ENDBRANCH   4  10
BRANCH   9  13
ATOM     13  O   UNL     1       7.476   4.949  17.723  0.00  0.00    +0.000 OA
BRANCH  13  14
ATOM     14  C   UNL     1       7.652   6.160  18.459  0.00  0.00    +0.000 C 
ATOM     15  C   UNL     1       7.395   7.333  17.525  0.00  0.00    +0.000 C 
ENDBRANCH  13  14
ENDBRANCH   9  13
ENDBRANCH   2   7
ENDBRANCH   1   2
BRANCH   1  16
ATOM     16  C   UNL     1       2.570   3.643  21.468  0.00  0.00    +0.000 C 
BRANCH  16  17
ATOM     17  C   UNL     1       1.784   4.783  20.815  0.00  0.00    +0.000 C 
ATOM     18  O   UNL     1       0.617   4.604  20.475  0.00  0.00    +0.000 OA
ATOM     19  N   UNL     1       2.513   5.951  20.648  0.00  0.00    +0.000 N 
ATOM     20  H   UNL     1       3.523   5.870  20.774  0.00  0.00    +0.000 HD
BRANCH  19  21
ATOM     21  C   UNL     1       2.025   7.176  20.135  0.00  0.00    +0.000 A 
ATOM     22  C   UNL     1       2.291   7.623  18.841  0.00  0.00    +0.000 A 
ATOM     23  C   UNL     1       1.820   8.867  18.400  0.00  0.00    +0.000 A 
ATOM     24  C   UNL     1       1.058   9.676  19.243  0.00  0.00    +0.000 A 
ATOM     25  C   UNL     1       0.769   9.225  20.533  0.00  0.00    +0.000 A 
ATOM     26  C   UNL     1       1.239   7.976  20.972  0.00  0.00    +0.000 A 
BRANCH  24  27
ATOM     27  S   UNL     1       0.567  11.290  18.670  0.00  0.00    +0.000 S 
BRANCH  27  28
ATOM     28  C   UNL     1       0.225  12.094  20.247  0.00  0.00    +0.000 C 
ATOM     29  F   UNL     1       0.767  13.338  20.281  0.00  0.00    +0.000 F 
ATOM     30  F   UNL     1      -1.117  12.260  20.395  0.00  0.00    +0.000 F 
ENDBRANCH  27  28
ENDBRANCH  24  27
ENDBRANCH  19  21
ENDBRANCH  16  17
ENDBRANCH   1  16
TORSDOF 11
ENDMDL
MODEL 2
REMARK VINA RESULT:      -6.7      1.545      2.795
REMARK  Name = 
REMARK  13 active torsions:
REMARK  status: ('A' for Active; 'I' for Inactive)
REMARK    1  A    between atoms: C_1  and  C_2
REMARK    2  A    between atoms: C_2  and  O_3
REMARK    3  A    between atoms: O_3  and  C_4
REMARK    4  A    between atoms: C_7  and  C_8
REMARK    5  A    between atoms: C_8  and  O_10
REMARK    6  A    between atoms: O_10  and  C_11
REMARK    7  A    between atoms: C_11  and  C_12
REMARK    8  A    between atoms: N_14  and  C_15
REMARK    9  A    between atoms: C_18  and  S_19
REMARK   10  A    between atoms: S_19  and  C_20
REMARK   11  A    between atoms: C_26  and  O_27
REMARK   12  A    between atoms: O_27  and  C_28
REMARK   13  A    between atoms: C_28  and  C_29
REMARK                            x       y       z     vdW  Elec       q    Type
REMARK                         _______ _______ _______ _____ _____    ______ ____
ROOT
ATOM      1  O   UNL     1       3.335   3.028  18.755  0.00  0.00    +0.000 OA
ENDROOT
BRANCH   1   2
ATOM      2  C   UNL     1       4.640   2.990  19.105  0.00  0.00    +0.000 C 
ATOM      3  O   UNL     1       5.153   2.131  19.808  0.00  0.00    +0.000 OA
BRANCH   2   7
ATOM      4  C   UNL     1       6.897   6.334  17.587  0.00  0.00    +0.000 A 
ATOM      5  C   UNL     1       6.821   6.038  18.958  0.00  0.00    +0.000 A 
ATOM      6  C   UNL     1       6.081   4.955  19.428  0.00  0.00    +0.000 A 
ATOM      7  C   UNL     1       5.386   4.142  18.535  0.00  0.00    +0.000 A 
ATOM      8  C   UNL     1       5.406   4.456  17.171  0.00  0.00    +0.000 A 
ATOM      9  C   UNL     1       6.130   5.566  16.692  0.00  0.00    +0.000 A 
BRANCH   4  10
ATOM     10  O   UNL     1       7.689   7.351  17.109  0.00  0.00    +0.000 OA
BRANCH  10  12
ATOM     11  C   UNL     1       8.143   9.659  17.673  0.00  0.00    +0.000 C 
ATOM     12  C   UNL     1       8.256   8.210  18.106  0.00  0.00    +0.000 C 
ENDBRANCH  10  12
ENDBRANCH   4  10
BRANCH   9  13
ATOM     13  O   UNL     1       6.007   5.730  15.334  0.00  0.00    +0.000 OA
BRANCH  13  14
ATOM     14  C   UNL     1       6.893   4.990  14.493  0.00  0.00    +0.000 C 
ATOM     15  C   UNL     1       6.098   3.893  13.803  0.00  0.00    +0.000 C 
ENDBRANCH  13  14
ENDBRANCH   9  13
ENDBRANCH   2   7
ENDBRANCH   1   2
BRANCH   1  16
ATOM     16  C   UNL     1       2.525   3.840  19.603  0.00  0.00    +0.000 C 
BRANCH  16  17
ATOM     17  C   UNL     1       2.162   5.185  18.968  0.00  0.00    +0.000 C 
ATOM     18  O   UNL     1       1.820   5.232  17.789  0.00  0.00    +0.000 OA
ATOM     19  N   UNL     1       2.284   6.268  19.826  0.00  0.00    +0.000 N 
ATOM     20  H   UNL     1       2.789   6.095  20.697  0.00  0.00    +0.000 HD
BRANCH  19  21
ATOM     21  C   UNL     1       1.955   7.612  19.530  0.00  0.00    +0.000 A 
ATOM     22  C   UNL     1       2.272   8.227  18.318  0.00  0.00    +0.000 A 
ATOM     23  C   UNL     1       1.962   9.575  18.095  0.00  0.00    +0.000 A 
ATOM     24  C   UNL     1       1.313  10.325  19.075  0.00  0.00    +0.000 A 
ATOM     25  C   UNL     1       0.973   9.710  20.282  0.00  0.00    +0.000 A 
ATOM     26  C   UNL     1       1.281   8.357  20.503  0.00  0.00    +0.000 A 
BRANCH  24  27
ATOM     27  S   UNL     1       1.031  12.060  18.783  0.00  0.00    +0.000 S 
BRANCH  27  28
ATOM     28  C   UNL     1      -0.745  12.043  18.472  0.00  0.00    +0.000 C 
ATOM     29  F   UNL     1      -1.092  13.033  17.610  0.00  0.00    +0.000 F 
ATOM     30  F   UNL     1      -1.093  10.875  17.870  0.00  0.00    +0.000 F 
ENDBRANCH  27  28
ENDBRANCH  24  27
ENDBRANCH  19  21
ENDBRANCH  16  17
ENDBRANCH   1  16
TORSDOF 11
ENDMDL
MODEL 3
REMARK VINA RESULT:      -6.5      3.338      5.090
REMARK  Name = 
REMARK  13 active torsions:
REMARK  status: ('A' for Active; 'I' for Inactive)
REMARK    1  A    between atoms: C_1  and  C_2
REMARK    2  A    between atoms: C_2  and  O_3
REMARK    3  A    between atoms: O_3  and  C_4
REMARK    4  A    between atoms: C_7  and  C_8
REMARK    5  A    between atoms: C_8  and  O_10
REMARK    6  A    between atoms: O_10  and  C_11
REMARK    7  A    between atoms: C_11  and  C_12
REMARK    8  A    between atoms: N_14  and  C_15
REMARK    9  A    between atoms: C_18  and  S_19
REMARK   10  A    between atoms: S_19  and  C_20
REMARK   11  A    between atoms: C_26  and  O_27
REMARK   12  A    between atoms: O_27  and  C_28
REMARK   13  A    between atoms: C_28  and  C_29
REMARK                            x       y       z     vdW  Elec       q    Type
REMARK                         _______ _______ _______ _____ _____    ______ ____
ROOT
ATOM      1  O   UNL     1       2.640   8.604  18.185  0.00  0.00    +0.000 OA
ENDROOT
BRANCH   1   2
ATOM      2  C   UNL     1       2.628   7.393  18.785  0.00  0.00    +0.000 C 
ATOM      3  O   UNL     1       2.079   7.143  19.849  0.00  0.00    +0.000 OA
BRANCH   2   7
ATOM      4  C   UNL     1       4.934   4.597  16.454  0.00  0.00    +0.000 A 
ATOM      5  C   UNL     1       5.046   5.986  16.287  0.00  0.00    +0.000 A 
ATOM      6  C   UNL     1       4.287   6.873  17.048  0.00  0.00    +0.000 A 
ATOM      7  C   UNL     1       3.384   6.390  17.992  0.00  0.00    +0.000 A 
ATOM      8  C   UNL     1       3.221   5.006  18.132  0.00  0.00    +0.000 A 
ATOM      9  C   UNL     1       3.965   4.104  17.347  0.00  0.00    +0.000 A 
BRANCH   4  10
ATOM     10  O   UNL     1       5.737   3.718  15.764  0.00  0.00    +0.000 OA
BRANCH  10  12
ATOM     11  C   UNL     1       6.033   3.748  13.364  0.00  0.00    +0.000 C 
ATOM     12  C   UNL     1       6.505   4.292  14.700  0.00  0.00    +0.000 C 
ENDBRANCH  10  12
ENDBRANCH   4  10
BRANCH   9  13
ATOM     13  O   UNL     1       3.647   2.793  17.604  0.00  0.00    +0.000 OA
BRANCH  13  14
ATOM     14  C   UNL     1       3.032   2.493  18.857  0.00  0.00    +0.000 C 
ATOM     15  C   UNL     1       1.621   1.989  18.592  0.00  0.00    +0.000 C 
ENDBRANCH  13  14
ENDBRANCH   9  13
ENDBRANCH   2   7
ENDBRANCH   1   2
BRANCH   1  16
ATOM     16  C   UNL     1       1.345   9.156  17.955  0.00  0.00    +0.000 C 
BRANCH  16  17
ATOM     17  C   UNL     1       0.995  10.282  18.931  0.00  0.00    +0.000 C 
ATOM     18  O   UNL     1       1.670  11.309  18.946  0.00  0.00    +0.000 OA
ATOM     19  N   UNL     1      -0.087  10.004  19.753  0.00  0.00    +0.000 N 
ATOM     20  H   UNL     1      -0.396   9.031  19.773  0.00  0.00    +0.000 HD
BRANCH  19  21
ATOM     21  C   UNL     1      -0.667  10.883  20.699  0.00  0.00    +0.000 A 
ATOM     22  C   UNL     1      -0.507  10.736  22.077  0.00  0.00    +0.000 A 
ATOM     23  C   UNL     1      -1.142  11.609  22.969  0.00  0.00    +0.000 A 
ATOM     24  C   UNL     1      -1.933  12.657  22.497  0.00  0.00    +0.000 A 
ATOM     25  C   UNL     1      -2.079  12.823  21.117  0.00  0.00    +0.000 A 
ATOM     26  C   UNL     1      -1.440  11.948  20.223  0.00  0.00    +0.000 A 
BRANCH  24  27
ATOM     27  S   UNL     1      -2.798  13.678  23.672  0.00  0.00    +0.000 S 
BRANCH  27  28
ATOM     28  C   UNL     1      -4.351  12.770  23.797  0.00  0.00    +0.000 C 
ATOM     29  F   UNL     1      -4.288  11.841  24.784  0.00  0.00    +0.000 F 
ATOM     30  F   UNL     1      -5.353  13.623  24.141  0.00  0.00    +0.000 F 
ENDBRANCH  27  28
ENDBRANCH  24  27
ENDBRANCH  19  21
ENDBRANCH  16  17
ENDBRANCH   1  16
TORSDOF 11
ENDMDL
MODEL 4
REMARK VINA RESULT:      -6.5      1.565      2.910
REMARK  Name = 
REMARK  13 active torsions:
REMARK  status: ('A' for Active; 'I' for Inactive)
REMARK    1  A    between atoms: C_1  and  C_2
REMARK    2  A    between atoms: C_2  and  O_3
REMARK    3  A    between atoms: O_3  and  C_4
REMARK    4  A    between atoms: C_7  and  C_8
REMARK    5  A    between atoms: C_8  and  O_10
REMARK    6  A    between atoms: O_10  and  C_11
REMARK    7  A    between atoms: C_11  and  C_12
REMARK    8  A    between atoms: N_14  and  C_15
REMARK    9  A    between atoms: C_18  and  S_19
REMARK   10  A    between atoms: S_19  and  C_20
REMARK   11  A    between atoms: C_26  and  O_27
REMARK   12  A    between atoms: O_27  and  C_28
REMARK   13  A    between atoms: C_28  and  C_29
REMARK                            x       y       z     vdW  Elec       q    Type
REMARK                         _______ _______ _______ _____ _____    ______ ____
ROOT
ATOM      1  O   UNL     1       3.912   2.744  18.120  0.00  0.00    +0.000 OA
ENDROOT
BRANCH   1   2
ATOM      2  C   UNL     1       4.842   3.184  18.997  0.00  0.00    +0.000 C 
ATOM      3  O   UNL     1       5.058   2.691  20.096  0.00  0.00    +0.000 OA
BRANCH   2   7
ATOM      4  C   UNL     1       7.079   6.576  17.562  0.00  0.00    +0.000 A 
ATOM      5  C   UNL     1       7.264   6.043  18.848  0.00  0.00    +0.000 A 
ATOM      6  C   UNL     1       6.525   4.949  19.294  0.00  0.00    +0.000 A 
ATOM      7  C   UNL     1       5.572   4.363  18.465  0.00  0.00    +0.000 A 
ATOM      8  C   UNL     1       5.336   4.917  17.201  0.00  0.00    +0.000 A 
ATOM      9  C   UNL     1       6.059   6.040  16.754  0.00  0.00    +0.000 A 
BRANCH   4  10
ATOM     10  O   UNL     1       7.859   7.604  17.085  0.00  0.00    +0.000 OA
BRANCH  10  12
ATOM     11  C   UNL     1       8.800   9.361  18.455  0.00  0.00    +0.000 C 
ATOM     12  C   UNL     1       7.598   8.891  17.659  0.00  0.00    +0.000 C 
ENDBRANCH  10  12
ENDBRANCH   4  10
BRANCH   9  13
ATOM     13  O   UNL     1       5.670   6.456  15.504  0.00  0.00    +0.000 OA
BRANCH  13  14
ATOM     14  C   UNL     1       5.747   5.512  14.437  0.00  0.00    +0.000 C 
ATOM     15  C   UNL     1       7.164   4.962  14.381  0.00  0.00    +0.000 C 
ENDBRANCH  13  14
ENDBRANCH   9  13
ENDBRANCH   2   7
ENDBRANCH   1   2
BRANCH   1  16
ATOM     16  C   UNL     1       2.569   2.850  18.588  0.00  0.00    +0.000 C 
BRANCH  16  17
ATOM     17  C   UNL     1       1.964   4.237  18.352  0.00  0.00    +0.000 C 
ATOM     18  O   UNL     1       1.065   4.378  17.526  0.00  0.00    +0.000 OA
ATOM     19  N   UNL     1       2.536   5.242  19.117  0.00  0.00    +0.000 N 
ATOM     20  H   UNL     1       3.413   5.006  19.584  0.00  0.00    +0.000 HD
BRANCH  19  21
ATOM     21  C   UNL     1       2.134   6.599  19.152  0.00  0.00    +0.000 A 
ATOM     22  C   UNL     1       2.155   7.431  18.032  0.00  0.00    +0.000 A 
ATOM     23  C   UNL     1       1.789   8.779  18.134  0.00  0.00    +0.000 A 
ATOM     24  C   UNL     1       1.377   9.313  19.355  0.00  0.00    +0.000 A 
ATOM     25  C   UNL     1       1.333   8.479  20.475  0.00  0.00    +0.000 A 
ATOM     26  C   UNL     1       1.697   7.127  20.371  0.00  0.00    +0.000 A 
BRANCH  24  27
ATOM     27  S   UNL     1       1.018  11.055  19.454  0.00  0.00    +0.000 S 
BRANCH  27  28
ATOM     28  C   UNL     1      -0.783  11.004  19.505  0.00  0.00    +0.000 C 
ATOM     29  F   UNL     1      -1.308  12.218  19.202  0.00  0.00    +0.000 F 
ATOM     30  F   UNL     1      -1.244  10.143  18.559  0.00  0.00    +0.000 F 
ENDBRANCH  27  28
ENDBRANCH  24  27
ENDBRANCH  19  21
ENDBRANCH  16  17
ENDBRANCH   1  16
TORSDOF 11
ENDMDL
MODEL 5
REMARK VINA RESULT:      -6.4      3.910      5.451
REMARK  Name = 
REMARK  13 active torsions:
REMARK  status: ('A' for Active; 'I' for Inactive)
REMARK    1  A    between atoms: C_1  and  C_2
REMARK    2  A    between atoms: C_2  and  O_3
REMARK    3  A    between atoms: O_3  and  C_4
REMARK    4  A    between atoms: C_7  and  C_8
REMARK    5  A    between atoms: C_8  and  O_10
REMARK    6  A    between atoms: O_10  and  C_11
REMARK    7  A    between atoms: C_11  and  C_12
REMARK    8  A    between atoms: N_14  and  C_15
REMARK    9  A    between atoms: C_18  and  S_19
REMARK   10  A    between atoms: S_19  and  C_20
REMARK   11  A    between atoms: C_26  and  O_27
REMARK   12  A    between atoms: O_27  and  C_28
REMARK   13  A    between atoms: C_28  and  C_29
REMARK                            x       y       z     vdW  Elec       q    Type
REMARK                         _______ _______ _______ _____ _____    ______ ____
ROOT
ATOM      1  O   UNL     1       1.690   8.346  17.723  0.00  0.00    +0.000 OA
ENDROOT
BRANCH   1   2
ATOM      2  C   UNL     1       2.353   7.537  18.579  0.00  0.00    +0.000 C 
ATOM      3  O   UNL     1       2.221   7.544  19.795  0.00  0.00    +0.000 OA
BRANCH   2   7
ATOM      4  C   UNL     1       5.171   5.032  16.492  0.00  0.00    +0.000 A 
ATOM      5  C   UNL     1       5.296   6.430  16.533  0.00  0.00    +0.000 A 
ATOM      6  C   UNL     1       4.369   7.222  17.209  0.00  0.00    +0.000 A 
ATOM      7  C   UNL     1       3.285   6.633  17.856  0.00  0.00    +0.000 A 
ATOM      8  C   UNL     1       3.117   5.245  17.778  0.00  0.00    +0.000 A 
ATOM      9  C   UNL     1       4.034   4.441  17.073  0.00  0.00    +0.000 A 
BRANCH   4  10
ATOM     10  O   UNL     1       6.124   4.238  15.896  0.00  0.00    +0.000 OA
BRANCH  10  12
ATOM     11  C   UNL     1       7.098   4.820  13.760  0.00  0.00    +0.000 C 
ATOM     12  C   UNL     1       5.989   4.075  14.479  0.00  0.00    +0.000 C 
ENDBRANCH  10  12
ENDBRANCH   4  10
BRANCH   9  13
ATOM     13  O   UNL     1       3.688   3.112  17.083  0.00  0.00    +0.000 OA
BRANCH  13  14
ATOM     14  C   UNL     1       2.878   2.646  18.161  0.00  0.00    +0.000 C 
ATOM     15  C   UNL     1       3.523   1.397  18.743  0.00  0.00    +0.000 C 
ENDBRANCH  13  14
ENDBRANCH   9  13
ENDBRANCH   2   7
ENDBRANCH   1   2
BRANCH   1  16
ATOM     16  C   UNL     1       1.770   9.733  18.047  0.00  0.00    +0.000 C 
BRANCH  16  17
ATOM     17  C   UNL     1       0.424  10.324  18.473  0.00  0.00    +0.000 C 
ATOM     18  O   UNL     1       0.329  10.913  19.547  0.00  0.00    +0.000 OA
ATOM     19  N   UNL     1      -0.603  10.105  17.568  0.00  0.00    +0.000 N 
ATOM     20  H   UNL     1      -0.419   9.414  16.839  0.00  0.00    +0.000 HD
BRANCH  19  21
ATOM     21  C   UNL     1      -1.928  10.591  17.672  0.00  0.00    +0.000 A 
ATOM     22  C   UNL     1      -2.932  10.279  16.754  0.00  0.00    +0.000 A 
ATOM     23  C   UNL     1      -4.215  10.825  16.881  0.00  0.00    +0.000 A 
ATOM     24  C   UNL     1      -4.522  11.679  17.940  0.00  0.00    +0.000 A 
ATOM     25  C   UNL     1      -3.528  11.978  18.875  0.00  0.00    +0.000 A 
ATOM     26  C   UNL     1      -2.242  11.428  18.749  0.00  0.00    +0.000 A 
BRANCH  24  27
ATOM     27  S   UNL     1      -6.138  12.426  18.001  0.00  0.00    +0.000 S 
BRANCH  27  28
ATOM     28  C   UNL     1      -6.999  11.233  19.043  0.00  0.00    +0.000 C 
ATOM     29  F   UNL     1      -7.058  10.020  18.438  0.00  0.00    +0.000 F 
ATOM     30  F   UNL     1      -6.304  11.049  20.198  0.00  0.00    +0.000 F 
ENDBRANCH  27  28
ENDBRANCH  24  27
ENDBRANCH  19  21
ENDBRANCH  16  17
ENDBRANCH   1  16
TORSDOF 11
ENDMDL
MODEL 6
REMARK VINA RESULT:      -6.4      4.895      7.308
REMARK  Name = 
REMARK  13 active torsions:
REMARK  status: ('A' for Active; 'I' for Inactive)
REMARK    1  A    between atoms: C_1  and  C_2
REMARK    2  A    between atoms: C_2  and  O_3
REMARK    3  A    between atoms: O_3  and  C_4
REMARK    4  A    between atoms: C_7  and  C_8
REMARK    5  A    between atoms: C_8  and  O_10
REMARK    6  A    between atoms: O_10  and  C_11
REMARK    7  A    between atoms: C_11  and  C_12
REMARK    8  A    between atoms: N_14  and  C_15
REMARK    9  A    between atoms: C_18  and  S_19
REMARK   10  A    between atoms: S_19  and  C_20
REMARK   11  A    between atoms: C_26  and  O_27
REMARK   12  A    between atoms: O_27  and  C_28
REMARK   13  A    between atoms: C_28  and  C_29
REMARK                            x       y       z     vdW  Elec       q    Type
REMARK                         _______ _______ _______ _____ _____    ______ ____
ROOT
ATOM      1  O   UNL     1       8.298   6.562  18.615  0.00  0.00    +0.000 OA
ENDROOT
BRANCH   1   2
ATOM      2  C   UNL     1       7.606   5.742  19.437  0.00  0.00    +0.000 C 
ATOM      3  O   UNL     1       7.946   5.440  20.573  0.00  0.00    +0.000 OA
BRANCH   2   7
ATOM      4  C   UNL     1       4.120   4.157  17.463  0.00  0.00    +0.000 A 
ATOM      5  C   UNL     1       5.416   3.986  16.951  0.00  0.00    +0.000 A 
ATOM      6  C   UNL     1       6.529   4.512  17.603  0.00  0.00    +0.000 A 
ATOM      7  C   UNL     1       6.373   5.234  18.784  0.00  0.00    +0.000 A 
ATOM      8  C   UNL     1       5.082   5.460  19.277  0.00  0.00    +0.000 A 
ATOM      9  C   UNL     1       3.950   4.955  18.609  0.00  0.00    +0.000 A 
BRANCH   4  10
ATOM     10  O   UNL     1       3.025   3.573  16.869  0.00  0.00    +0.000 OA
BRANCH  10  12
ATOM     11  C   UNL     1       3.455   1.586  18.179  0.00  0.00    +0.000 C 
ATOM     12  C   UNL     1       2.402   2.525  17.622  0.00  0.00    +0.000 C 
ENDBRANCH  10  12
ENDBRANCH   4  10
BRANCH   9  13
ATOM     13  O   UNL     1       2.773   5.302  19.225  0.00  0.00    +0.000 OA
BRANCH  13  14
ATOM     14  C   UNL     1       2.560   4.836  20.558  0.00  0.00    +0.000 C 
ATOM     15  C   UNL     1       1.209   4.138  20.613  0.00  0.00    +0.000 C 
ENDBRANCH  13  14
ENDBRANCH   9  13
ENDBRANCH   2   7
ENDBRANCH   1   2
BRANCH   1  16
ATOM     16  C   UNL     1       7.485   7.474  17.878  0.00  0.00    +0.000 C 
BRANCH  16  17
ATOM     17  C   UNL     1       7.963   8.924  17.994  0.00  0.00    +0.000 C 
ATOM     18  O   UNL     1       7.507   9.779  17.239  0.00  0.00    +0.000 OA
ATOM     19  N   UNL     1       8.923   9.128  18.974  0.00  0.00    +0.000 N 
ATOM     20  H   UNL     1       9.356   8.287  19.359  0.00  0.00    +0.000 HD
BRANCH  19  21
ATOM     21  C   UNL     1       9.492  10.370  19.343  0.00  0.00    +0.000 A 
ATOM     22  C   UNL     1       9.365  10.920  20.619  0.00  0.00    +0.000 A 
ATOM     23  C   UNL     1       9.910  12.175  20.916  0.00  0.00    +0.000 A 
ATOM     24  C   UNL     1      10.609  12.894  19.946  0.00  0.00    +0.000 A 
ATOM     25  C   UNL     1      10.758  12.339  18.673  0.00  0.00    +0.000 A 
ATOM     26  C   UNL     1      10.214  11.079  18.376  0.00  0.00    +0.000 A 
BRANCH  24  27
ATOM     27  S   UNL     1      11.197  14.528  20.344  0.00  0.00    +0.000 S 
BRANCH  27  28
ATOM     28  C   UNL     1      10.031  15.523  19.395  0.00  0.00    +0.000 C 
ATOM     29  F   UNL     1      10.396  15.577  18.089  0.00  0.00    +0.000 F 
ATOM     30  F   UNL     1       8.803  14.940  19.423  0.00  0.00    +0.000 F 
ENDBRANCH  27  28
ENDBRANCH  24  27
ENDBRANCH  19  21
ENDBRANCH  16  17
ENDBRANCH   1  16
TORSDOF 11
ENDMDL
MODEL 7
REMARK VINA RESULT:      -6.3      4.027      6.324
REMARK  Name = 
REMARK  13 active torsions:
REMARK  status: ('A' for Active; 'I' for Inactive)
REMARK    1  A    between atoms: C_1  and  C_2
REMARK    2  A    between atoms: C_2  and  O_3
REMARK    3  A    between atoms: O_3  and  C_4
REMARK    4  A    between atoms: C_7  and  C_8
REMARK    5  A    between atoms: C_8  and  O_10
REMARK    6  A    between atoms: O_10  and  C_11
REMARK    7  A    between atoms: C_11  and  C_12
REMARK    8  A    between atoms: N_14  and  C_15
REMARK    9  A    between atoms: C_18  and  S_19
REMARK   10  A    between atoms: S_19  and  C_20
REMARK   11  A    between atoms: C_26  and  O_27
REMARK   12  A    between atoms: O_27  and  C_28
REMARK   13  A    between atoms: C_28  and  C_29
REMARK                            x       y       z     vdW  Elec       q    Type
REMARK                         _______ _______ _______ _____ _____    ______ ____
ROOT
ATOM      1  O   UNL     1       1.239   8.616  21.329  0.00  0.00    +0.000 OA
ENDROOT
BRANCH   1   2
ATOM      2  C   UNL     1       1.444   8.688  19.995  0.00  0.00    +0.000 C 
ATOM      3  O   UNL     1       1.085   9.614  19.279  0.00  0.00    +0.000 OA
BRANCH   2   7
ATOM      4  C   UNL     1       3.599   5.298  18.436  0.00  0.00    +0.000 A 
ATOM      5  C   UNL     1       3.490   6.507  17.731  0.00  0.00    +0.000 A 
ATOM      6  C   UNL     1       2.783   7.590  18.251  0.00  0.00    +0.000 A 
ATOM      7  C   UNL     1       2.157   7.486  19.491  0.00  0.00    +0.000 A 
ATOM      8  C   UNL     1       2.210   6.269  20.181  0.00  0.00    +0.000 A 
ATOM      9  C   UNL     1       2.899   5.162  19.649  0.00  0.00    +0.000 A 
BRANCH   4  10
ATOM     10  O   UNL     1       4.361   4.253  17.966  0.00  0.00    +0.000 OA
BRANCH  10  12
ATOM     11  C   UNL     1       3.546   1.981  17.825  0.00  0.00    +0.000 C 
ATOM     12  C   UNL     1       3.674   3.320  17.124  0.00  0.00    +0.000 C 
ENDBRANCH  10  12
ENDBRANCH   4  10
BRANCH   9  13
ATOM     13  O   UNL     1       2.816   4.051  20.452  0.00  0.00    +0.000 OA
BRANCH  13  14
ATOM     14  C   UNL     1       1.556   3.386  20.536  0.00  0.00    +0.000 C 
ATOM     15  C   UNL     1       1.527   2.570  21.820  0.00  0.00    +0.000 C 
ENDBRANCH  13  14
ENDBRANCH   9  13
ENDBRANCH   2   7
ENDBRANCH   1   2
BRANCH   1  16
ATOM     16  C   UNL     1      -0.128   8.736  21.718  0.00  0.00    +0.000 C 
BRANCH  16  17
ATOM     17  C   UNL     1      -0.382   9.934  22.636  0.00  0.00    +0.000 C 
ATOM     18  O   UNL     1       0.075   9.937  23.777  0.00  0.00    +0.000 OA
ATOM     19  N   UNL     1      -1.157  10.932  22.065  0.00  0.00    +0.000 N 
ATOM     20  H   UNL     1      -1.642  10.684  21.202  0.00  0.00    +0.000 HD
BRANCH  19  21
ATOM     21  C   UNL     1      -1.493  12.173  22.657  0.00  0.00    +0.000 A 
ATOM     22  C   UNL     1      -2.682  12.391  23.354  0.00  0.00    +0.000 A 
ATOM     23  C   UNL     1      -2.984  13.653  23.880  0.00  0.00    +0.000 A 
ATOM     24  C   UNL     1      -2.091  14.715  23.735  0.00  0.00    +0.000 A 
ATOM     25  C   UNL     1      -0.889  14.498  23.058  0.00  0.00    +0.000 A 
ATOM     26  C   UNL     1      -0.586  13.231  22.533  0.00  0.00    +0.000 A 
BRANCH  24  27
ATOM     27  S   UNL     1      -2.565  16.324  24.335  0.00  0.00    +0.000 S 
BRANCH  27  28
ATOM     28  C   UNL     1      -1.626  16.378  25.873  0.00  0.00    +0.000 C 
ATOM     29  F   UNL     1      -1.709  15.193  26.530  0.00  0.00    +0.000 F 
ATOM     30  F   UNL     1      -0.308  16.568  25.597  0.00  0.00    +0.000 F 
ENDBRANCH  27  28
ENDBRANCH  24  27
ENDBRANCH  19  21
ENDBRANCH  16  17
ENDBRANCH   1  16
TORSDOF 11
ENDMDL
MODEL 8
REMARK VINA RESULT:      -6.3      3.287      5.116
REMARK  Name = 
REMARK  13 active torsions:
REMARK  status: ('A' for Active; 'I' for Inactive)
REMARK    1  A    between atoms: C_1  and  C_2
REMARK    2  A    between atoms: C_2  and  O_3
REMARK    3  A    between atoms: O_3  and  C_4
REMARK    4  A    between atoms: C_7  and  C_8
REMARK    5  A    between atoms: C_8  and  O_10
REMARK    6  A    between atoms: O_10  and  C_11
REMARK    7  A    between atoms: C_11  and  C_12
REMARK    8  A    between atoms: N_14  and  C_15
REMARK    9  A    between atoms: C_18  and  S_19
REMARK   10  A    between atoms: S_19  and  C_20
REMARK   11  A    between atoms: C_26  and  O_27
REMARK   12  A    between atoms: O_27  and  C_28
REMARK   13  A    between atoms: C_28  and  C_29
REMARK                            x       y       z     vdW  Elec       q    Type
REMARK                         _______ _______ _______ _____ _____    ______ ____
ROOT
ATOM      1  O   UNL     1       1.610   7.246  20.225  0.00  0.00    +0.000 OA
ENDROOT
BRANCH   1   2
ATOM      2  C   UNL     1       2.123   7.697  19.059  0.00  0.00    +0.000 C 
ATOM      3  O   UNL     1       2.029   8.846  18.650  0.00  0.00    +0.000 OA
BRANCH   2   7
ATOM      4  C   UNL     1       4.267   4.623  16.932  0.00  0.00    +0.000 A 
ATOM      5  C   UNL     1       4.796   5.908  17.131  0.00  0.00    +0.000 A 
ATOM      6  C   UNL     1       4.083   6.889  17.817  0.00  0.00    +0.000 A 
ATOM      7  C   UNL     1       2.812   6.612  18.316  0.00  0.00    +0.000 A 
ATOM      8  C   UNL     1       2.248   5.352  18.078  0.00  0.00    +0.000 A 
ATOM      9  C   UNL     1       2.952   4.365  17.361  0.00  0.00    +0.000 A 
BRANCH   4  10
ATOM     10  O   UNL     1       4.995   3.626  16.327  0.00  0.00    +0.000 OA
BRANCH  10  12
ATOM     11  C   UNL     1       6.115   4.010  14.218  0.00  0.00    +0.000 C 
ATOM     12  C   UNL     1       6.230   4.041  15.730  0.00  0.00    +0.000 C 
ENDBRANCH  10  12
ENDBRANCH   4  10
BRANCH   9  13
ATOM     13  O   UNL     1       2.227   3.209  17.204  0.00  0.00    +0.000 OA
BRANCH  13  14
ATOM     14  C   UNL     1       2.421   2.169  18.163  0.00  0.00    +0.000 C 
ATOM     15  C   UNL     1       1.212   2.133  19.086  0.00  0.00    +0.000 C 
ENDBRANCH  13  14
ENDBRANCH   9  13
ENDBRANCH   2   7
ENDBRANCH   1   2
BRANCH   1  16
ATOM     16  C   UNL     1       1.613   8.209  21.278  0.00  0.00    +0.000 C 
BRANCH  16  17
ATOM     17  C   UNL     1       0.250   8.877  21.477  0.00  0.00    +0.000 C 
ATOM     18  O   UNL     1      -0.750   8.183  21.650  0.00  0.00    +0.000 OA
ATOM     19  N   UNL     1       0.283  10.262  21.419  0.00  0.00    +0.000 N 
ATOM     20  H   UNL     1       1.141  10.674  21.049  0.00  0.00    +0.000 HD
BRANCH  19  21
ATOM     21  C   UNL     1      -0.810  11.135  21.632  0.00  0.00    +0.000 A 
ATOM     22  C   UNL     1      -1.372  11.918  20.623  0.00  0.00    +0.000 A 
ATOM     23  C   UNL     1      -2.424  12.799  20.900  0.00  0.00    +0.000 A 
ATOM     24  C   UNL     1      -2.947  12.898  22.190  0.00  0.00    +0.000 A 
ATOM     25  C   UNL     1      -2.404  12.100  23.201  0.00  0.00    +0.000 A 
ATOM     26  C   UNL     1      -1.350  11.215  22.921  0.00  0.00    +0.000 A 
BRANCH  24  27
ATOM     27  S   UNL     1      -4.217  14.104  22.513  0.00  0.00    +0.000 S 
BRANCH  27  28
ATOM     28  C   UNL     1      -5.649  13.246  21.832  0.00  0.00    +0.000 C 
ATOM     29  F   UNL     1      -5.310  11.999  21.417  0.00  0.00    +0.000 F 
ATOM     30  F   UNL     1      -6.587  13.082  22.802  0.00  0.00    +0.000 F 
ENDBRANCH  27  28
ENDBRANCH  24  27
ENDBRANCH  19  21
ENDBRANCH  16  17
ENDBRANCH   1  16
TORSDOF 11
ENDMDL
MODEL 9
REMARK VINA RESULT:      -6.2      1.336      1.964
REMARK  Name = 
REMARK  13 active torsions:
REMARK  status: ('A' for Active; 'I' for Inactive)
REMARK    1  A    between atoms: C_1  and  C_2
REMARK    2  A    between atoms: C_2  and  O_3
REMARK    3  A    between atoms: O_3  and  C_4
REMARK    4  A    between atoms: C_7  and  C_8
REMARK    5  A    between atoms: C_8  and  O_10
REMARK    6  A    between atoms: O_10  and  C_11
REMARK    7  A    between atoms: C_11  and  C_12
REMARK    8  A    between atoms: N_14  and  C_15
REMARK    9  A    between atoms: C_18  and  S_19
REMARK   10  A    between atoms: S_19  and  C_20
REMARK   11  A    between atoms: C_26  and  O_27
REMARK   12  A    between atoms: O_27  and  C_28
REMARK   13  A    between atoms: C_28  and  C_29
REMARK                            x       y       z     vdW  Elec       q    Type
REMARK                         _______ _______ _______ _____ _____    ______ ____
ROOT
ATOM      1  O   UNL     1       2.832   4.406  20.938  0.00  0.00    +0.000 OA
ENDROOT
BRANCH   1   2
ATOM      2  C   UNL     1       2.908   3.363  20.081  0.00  0.00    +0.000 C 
ATOM      3  O   UNL     1       2.319   2.300  20.218  0.00  0.00    +0.000 OA
BRANCH   2   7
ATOM      4  C   UNL     1       5.406   4.263  16.687  0.00  0.00    +0.000 A 
ATOM      5  C   UNL     1       4.069   3.854  16.549  0.00  0.00    +0.000 A 
ATOM      6  C   UNL     1       3.281   3.563  17.660  0.00  0.00    +0.000 A 
ATOM      7  C   UNL     1       3.814   3.664  18.943  0.00  0.00    +0.000 A 
ATOM      8  C   UNL     1       5.161   4.016  19.095  0.00  0.00    +0.000 A 
ATOM      9  C   UNL     1       5.971   4.285  17.975  0.00  0.00    +0.000 A 
BRANCH   4  10
ATOM     10  O   UNL     1       6.166   4.629  15.600  0.00  0.00    +0.000 OA
BRANCH  10  12
ATOM     11  C   UNL     1       6.499   3.812  13.349  0.00  0.00    +0.000 C 
ATOM     12  C   UNL     1       5.536   4.461  14.324  0.00  0.00    +0.000 C 
ENDBRANCH  10  12
ENDBRANCH   4  10
BRANCH   9  13
ATOM     13  O   UNL     1       7.267   4.585  18.319  0.00  0.00    +0.000 OA
BRANCH  13  14
ATOM     14  C   UNL     1       7.491   5.758  19.101  0.00  0.00    +0.000 C 
ATOM     15  C   UNL     1       7.702   6.933  18.158  0.00  0.00    +0.000 C 
ENDBRANCH  13  14
ENDBRANCH   9  13
ENDBRANCH   2   7
ENDBRANCH   1   2
BRANCH   1  16
ATOM     16  C   UNL     1       1.670   5.217  20.773  0.00  0.00    +0.000 C 
BRANCH  16  17
ATOM     17  C   UNL     1       1.988   6.604  20.211  0.00  0.00    +0.000 C 
ATOM     18  O   UNL     1       2.923   6.745  19.426  0.00  0.00    +0.000 OA
ATOM     19  N   UNL     1       1.161   7.611  20.684  0.00  0.00    +0.000 N 
ATOM     20  H   UNL     1       0.583   7.374  21.492  0.00  0.00    +0.000 HD
BRANCH  19  21
ATOM     21  C   UNL     1       1.184   8.970  20.287  0.00  0.00    +0.000 A 
ATOM     22  C   UNL     1       0.962  10.028  21.169  0.00  0.00    +0.000 A 
ATOM     23  C   UNL     1       0.952  11.352  20.713  0.00  0.00    +0.000 A 
ATOM     24  C   UNL     1       1.182  11.641  19.368  0.00  0.00    +0.000 A 
ATOM     25  C   UNL     1       1.427  10.588  18.483  0.00  0.00    +0.000 A 
ATOM     26  C   UNL     1       1.440   9.261  18.943  0.00  0.00    +0.000 A 
BRANCH  24  27
ATOM     27  S   UNL     1       1.060  13.331  18.819  0.00  0.00    +0.000 S 
BRANCH  27  28
ATOM     28  C   UNL     1      -0.732  13.531  18.805  0.00  0.00    +0.000 C 
ATOM     29  F   UNL     1      -1.343  12.366  18.472  0.00  0.00    +0.000 F 
ATOM     30  F   UNL     1      -1.166  13.844  20.055  0.00  0.00    +0.000 F 
ENDBRANCH  27  28
ENDBRANCH  24  27
ENDBRANCH  19  21
ENDBRANCH  16  17
ENDBRANCH   1  16
TORSDOF 11
ENDMDL
