MODEL 1
REMARK VINA RESULT:      -8.9      0.000      0.000
REMARK  Name = 
REMARK  5 active torsions:
REMARK  status: ('A' for Active; 'I' for Inactive)
REMARK    1  A    between atoms: C_1  and  N_2
REMARK    2  A    between atoms: C_5  and  O_6
REMARK    3  A    between atoms: C_5  and  C_7
REMARK    4  A    between atoms: C_8  and  C_9
REMARK    5  A    between atoms: C_13  and  C_14
REMARK                            x       y       z     vdW  Elec       q    Type
REMARK                         _______ _______ _______ _____ _____    ______ ____
ROOT
ATOM      1  C   UNL     1       2.812   6.406  18.075  0.00  0.00    +0.000 A 
ATOM      2  C   UNL     1       2.255   5.293  18.684  0.00  0.00    +0.000 A 
ATOM      3  C   UNL     1       2.788   4.024  18.428  0.00  0.00    +0.000 A 
ATOM      4  C   UNL     1       3.910   3.849  17.571  0.00  0.00    +0.000 A 
ATOM      5  C   UNL     1       4.500   4.950  16.966  0.00  0.00    +0.000 A 
ATOM      6  C   UNL     1       3.911   6.221  17.228  0.00  0.00    +0.000 A 
ENDROOT
BRANCH   5   7
ATOM      7  C   UNL     1       5.611   4.902  16.002  0.00  0.00    +0.000 A 
ATOM      8  C   UNL     1       6.897   5.131  16.478  0.00  0.00    +0.000 A 
ATOM      9  N   UNL     1       7.480   5.808  15.453  0.00  0.00    +0.000 N 
ATOM     10  C   UNL     1       7.132   5.112  14.340  0.00  0.00    +0.000 A 
ATOM     11  C   UNL     1       7.745   4.975  13.123  0.00  0.00    +0.000 A 
ATOM     12  N   UNL     1       7.217   4.086  12.277  0.00  0.00    +0.000 NA
ATOM     13  C   UNL     1       6.077   3.466  12.632  0.00  0.00    +0.000 A 
ATOM     14  N   UNL     1       5.730   2.466  11.739  0.00  0.00    +0.000 N 
ATOM     15  N   UNL     1       5.306   3.702  13.721  0.00  0.00    +0.000 NA
ATOM     16  C   UNL     1       5.911   4.497  14.644  0.00  0.00    +0.000 A 
ATOM     17  H   UNL     1       7.833   6.757  15.471  0.00  0.00    +0.000 HD
ATOM     18  H   UNL     1       6.332   2.570  10.929  0.00  0.00    +0.000 HD
ATOM     19  H   UNL     1       4.737   2.463  11.573  0.00  0.00    +0.000 HD
ENDBRANCH   5   7
BRANCH   1  21
ATOM     20  C   UNL     1       1.788   8.806  18.512  0.00  0.00    +0.000 C 
ATOM     21  C   UNL     1       2.349   7.759  18.343  0.00  0.00    +0.000 C 
BRANCH  20  26
ATOM     22  C   UNL     1       1.886  13.293  20.070  0.00  0.00    +0.000 C 
ATOM     23  N   UNL     1       1.341  11.999  19.748  0.00  0.00    +0.000 N 
ATOM     24  C   UNL     1       0.077  11.521  20.246  0.00  0.00    +0.000 C 
ATOM     25  C   UNL     1       0.140  10.030  19.957  0.00  0.00    +0.000 C 
ATOM     26  C   UNL     1       0.883   9.963  18.613  0.00  0.00    +0.000 C 
ATOM     27  C   UNL     1       1.740  11.260  18.637  0.00  0.00    +0.000 C 
ATOM     28  O   UNL     1       2.611  11.583  17.843  0.00  0.00    +0.000 OA
BRANCH  26  29
ATOM     29  O   UNL     1      -0.090   9.939  17.573  0.00  0.00    +0.000 OA
ATOM     30  H   UNL     1      -0.879   9.495  17.923  0.00  0.00    +0.000 HD
ENDBRANCH  26  29
ENDBRANCH  20  26
ENDBRANCH   1  21
TORSDOF 4
ENDMDL
MODEL 2
REMARK VINA RESULT:      -8.6      1.012      1.354
REMARK  Name = 
REMARK  5 active torsions:
REMARK  status: ('A' for Active; 'I' for Inactive)
REMARK    1  A    between atoms: C_1  and  N_2
REMARK    2  A    between atoms: C_5  and  O_6
REMARK    3  A    between atoms: C_5  and  C_7
REMARK    4  A    between atoms: C_8  and  C_9
REMARK    5  A    between atoms: C_13  and  C_14
REMARK                            x       y       z     vdW  Elec       q    Type
REMARK                         _______ _______ _______ _____ _____    ______ ____
ROOT
ATOM      1  C   UNL     1       2.753   6.297  18.215  0.00  0.00    +0.000 A 
ATOM      2  C   UNL     1       2.194   5.156  18.767  0.00  0.00    +0.000 A 
ATOM      3  C   UNL     1       2.733   3.902  18.458  0.00  0.00    +0.000 A 
ATOM      4  C   UNL     1       3.863   3.770  17.603  0.00  0.00    +0.000 A 
ATOM      5  C   UNL     1       4.454   4.899  17.054  0.00  0.00    +0.000 A 
ATOM      6  C   UNL     1       3.859   6.155  17.369  0.00  0.00    +0.000 A 
ENDROOT
BRANCH   5   7
ATOM      7  C   UNL     1       5.573   4.898  16.098  0.00  0.00    +0.000 A 
ATOM      8  C   UNL     1       6.848   5.163  16.587  0.00  0.00    +0.000 A 
ATOM      9  N   UNL     1       7.415   5.871  15.575  0.00  0.00    +0.000 N 
ATOM     10  C   UNL     1       7.099   5.177  14.451  0.00  0.00    +0.000 A 
ATOM     11  C   UNL     1       7.725   5.074  13.237  0.00  0.00    +0.000 A 
ATOM     12  N   UNL     1       7.232   4.179  12.377  0.00  0.00    +0.000 NA
ATOM     13  C   UNL     1       6.110   3.519  12.715  0.00  0.00    +0.000 A 
ATOM     14  N   UNL     1       5.802   2.518  11.809  0.00  0.00    +0.000 N 
ATOM     15  N   UNL     1       5.324   3.716  13.802  0.00  0.00    +0.000 NA
ATOM     16  C   UNL     1       5.896   4.519  14.738  0.00  0.00    +0.000 A 
ATOM     17  H   UNL     1       7.738   6.830  15.607  0.00  0.00    +0.000 HD
ATOM     18  H   UNL     1       6.406   2.652  11.005  0.00  0.00    +0.000 HD
ATOM     19  H   UNL     1       4.811   2.485  11.634  0.00  0.00    +0.000 HD
ENDBRANCH   5   7
BRANCH   1  21
ATOM     20  C   UNL     1       1.802   8.731  18.636  0.00  0.00    +0.000 C 
ATOM     21  C   UNL     1       2.283   7.635  18.541  0.00  0.00    +0.000 C 
BRANCH  20  26
ATOM     22  C   UNL     1      -1.240  11.460  21.059  0.00  0.00    +0.000 C 
ATOM     23  N   UNL     1      -0.570  10.887  19.918  0.00  0.00    +0.000 N 
ATOM     24  C   UNL     1      -1.075  10.970  18.573  0.00  0.00    +0.000 C 
ATOM     25  C   UNL     1      -0.257   9.923  17.836  0.00  0.00    +0.000 C 
ATOM     26  C   UNL     1       1.128  10.032  18.494  0.00  0.00    +0.000 C 
ATOM     27  C   UNL     1       0.786  10.568  19.913  0.00  0.00    +0.000 C 
ATOM     28  O   UNL     1       1.548  10.686  20.861  0.00  0.00    +0.000 OA
BRANCH  26  29
ATOM     29  O   UNL     1       1.915  10.930  17.718  0.00  0.00    +0.000 OA
ATOM     30  H   UNL     1       2.780  11.009  18.153  0.00  0.00    +0.000 HD
ENDBRANCH  26  29
ENDBRANCH  20  26
ENDBRANCH   1  21
TORSDOF 4
ENDMDL
MODEL 3
REMARK VINA RESULT:      -8.5      2.717      3.906
REMARK  Name = 
REMARK  5 active torsions:
REMARK  status: ('A' for Active; 'I' for Inactive)
REMARK    1  A    between atoms: C_1  and  N_2
REMARK    2  A    between atoms: C_5  and  O_6
REMARK    3  A    between atoms: C_5  and  C_7
REMARK    4  A    between atoms: C_8  and  C_9
REMARK    5  A    between atoms: C_13  and  C_14
REMARK                            x       y       z     vdW  Elec       q    Type
REMARK                         _______ _______ _______ _____ _____    ______ ____
ROOT
ATOM      1  C   UNL     1       1.589   5.603  20.342  0.00  0.00    +0.000 A 
ATOM      2  C   UNL     1       0.997   4.417  20.744  0.00  0.00    +0.000 A 
ATOM      3  C   UNL     1       1.447   3.203  20.211  0.00  0.00    +0.000 A 
ATOM      4  C   UNL     1       2.520   3.154  19.278  0.00  0.00    +0.000 A 
ATOM      5  C   UNL     1       3.144   4.327  18.876  0.00  0.00    +0.000 A 
ATOM      6  C   UNL     1       2.639   5.543  19.418  0.00  0.00    +0.000 A 
ENDROOT
BRANCH   5   7
ATOM      7  C   UNL     1       4.209   4.424  17.865  0.00  0.00    +0.000 A 
ATOM      8  C   UNL     1       4.052   3.710  16.682  0.00  0.00    +0.000 A 
ATOM      9  N   UNL     1       5.322   3.318  16.398  0.00  0.00    +0.000 N 
ATOM     10  C   UNL     1       6.075   4.432  16.586  0.00  0.00    +0.000 A 
ATOM     11  C   UNL     1       7.266   4.830  16.037  0.00  0.00    +0.000 A 
ATOM     12  N   UNL     1       7.679   6.068  16.322  0.00  0.00    +0.000 NA
ATOM     13  C   UNL     1       6.959   6.795  17.195  0.00  0.00    +0.000 A 
ATOM     14  N   UNL     1       7.409   8.103  17.277  0.00  0.00    +0.000 N 
ATOM     15  N   UNL     1       5.894   6.396  17.932  0.00  0.00    +0.000 NA
ATOM     16  C   UNL     1       5.392   5.195  17.541  0.00  0.00    +0.000 A 
ATOM     17  H   UNL     1       5.671   2.368  16.349  0.00  0.00    +0.000 HD
ATOM     18  H   UNL     1       8.296   8.141  16.787  0.00  0.00    +0.000 HD
ATOM     19  H   UNL     1       7.399   8.426  18.230  0.00  0.00    +0.000 HD
ENDBRANCH   5   7
BRANCH   1  21
ATOM     20  C   UNL     1       1.090   8.010  21.323  0.00  0.00    +0.000 C 
ATOM     21  C   UNL     1       1.213   6.894  20.899  0.00  0.00    +0.000 C 
BRANCH  20  26
ATOM     22  C   UNL     1      -1.740  11.641  22.495  0.00  0.00    +0.000 C 
ATOM     23  N   UNL     1      -0.566  10.961  22.011  0.00  0.00    +0.000 N 
ATOM     24  C   UNL     1       0.464  11.602  21.235  0.00  0.00    +0.000 C 
ATOM     25  C   UNL     1       1.240  10.427  20.663  0.00  0.00    +0.000 C 
ATOM     26  C   UNL     1       1.210   9.396  21.803  0.00  0.00    +0.000 C 
ATOM     27  C   UNL     1      -0.094   9.771  22.562  0.00  0.00    +0.000 C 
ATOM     28  O   UNL     1      -0.626   9.147  23.467  0.00  0.00    +0.000 OA
BRANCH  26  29
ATOM     29  O   UNL     1       2.392   9.565  22.580  0.00  0.00    +0.000 OA
ATOM     30  H   UNL     1       2.180  10.178  23.302  0.00  0.00    +0.000 HD
ENDBRANCH  26  29
ENDBRANCH  20  26
ENDBRANCH   1  21
TORSDOF 4
ENDMDL
MODEL 4
REMARK VINA RESULT:      -8.4      7.318     10.164
REMARK  Name = 
REMARK  5 active torsions:
REMARK  status: ('A' for Active; 'I' for Inactive)
REMARK    1  A    between atoms: C_1  and  N_2
REMARK    2  A    between atoms: C_5  and  O_6
REMARK    3  A    between atoms: C_5  and  C_7
REMARK    4  A    between atoms: C_8  and  C_9
REMARK    5  A    between atoms: C_13  and  C_14
REMARK                            x       y       z     vdW  Elec       q    Type
REMARK                         _______ _______ _______ _____ _____    ______ ____
ROOT
ATOM      1  C   UNL     1       8.952  10.078  18.893  0.00  0.00    +0.000 A 
ATOM      2  C   UNL     1       9.026  10.037  20.276  0.00  0.00    +0.000 A 
ATOM      3  C   UNL     1       9.543  11.134  20.975  0.00  0.00    +0.000 A 
ATOM      4  C   UNL     1       9.976  12.309  20.298  0.00  0.00    +0.000 A 
ATOM      5  C   UNL     1       9.892  12.383  18.914  0.00  0.00    +0.000 A 
ATOM      6  C   UNL     1       9.388  11.235  18.237  0.00  0.00    +0.000 A 
ENDROOT
BRANCH   5   7
ATOM      7  C   UNL     1      10.374  13.502  18.089  0.00  0.00    +0.000 A 
ATOM      8  C   UNL     1      10.930  13.206  16.849  0.00  0.00    +0.000 A 
ATOM      9  N   UNL     1      11.922  14.128  16.738  0.00  0.00    +0.000 N 
ATOM     10  C   UNL     1      11.347  15.298  17.116  0.00  0.00    +0.000 A 
ATOM     11  C   UNL     1      11.625  16.599  16.787  0.00  0.00    +0.000 A 
ATOM     12  N   UNL     1      10.767  17.528  17.217  0.00  0.00    +0.000 NA
ATOM     13  C   UNL     1       9.757  17.142  18.017  0.00  0.00    +0.000 A 
ATOM     14  N   UNL     1       8.862  18.171  18.257  0.00  0.00    +0.000 N 
ATOM     15  N   UNL     1       9.540  15.915  18.551  0.00  0.00    +0.000 NA
ATOM     16  C   UNL     1      10.323  14.947  18.005  0.00  0.00    +0.000 A 
ATOM     17  H   UNL     1      12.917  13.950  16.677  0.00  0.00    +0.000 HD
ATOM     18  H   UNL     1       9.293  19.023  17.914  0.00  0.00    +0.000 HD
ATOM     19  H   UNL     1       8.561  18.167  19.218  0.00  0.00    +0.000 HD
ENDBRANCH   5   7
BRANCH   1  21
ATOM     20  C   UNL     1       7.869   8.018  17.633  0.00  0.00    +0.000 C 
ATOM     21  C   UNL     1       8.371   9.000  18.108  0.00  0.00    +0.000 C 
BRANCH  20  26
ATOM     22  C   UNL     1       4.036   5.459  18.782  0.00  0.00    +0.000 C 
ATOM     23  N   UNL     1       5.391   5.732  18.377  0.00  0.00    +0.000 N 
ATOM     24  C   UNL     1       6.445   4.751  18.406  0.00  0.00    +0.000 C 
ATOM     25  C   UNL     1       7.701   5.596  18.272  0.00  0.00    +0.000 C 
ATOM     26  C   UNL     1       7.271   6.713  17.306  0.00  0.00    +0.000 C 
ATOM     27  C   UNL     1       5.738   6.798  17.550  0.00  0.00    +0.000 C 
ATOM     28  O   UNL     1       4.967   7.640  17.113  0.00  0.00    +0.000 OA
BRANCH  26  29
ATOM     29  O   UNL     1       7.619   6.311  15.984  0.00  0.00    +0.000 OA
ATOM     30  H   UNL     1       7.460   5.355  15.920  0.00  0.00    +0.000 HD
ENDBRANCH  26  29
ENDBRANCH  20  26
ENDBRANCH   1  21
TORSDOF 4
ENDMDL
MODEL 5
REMARK VINA RESULT:      -8.4      4.275      9.191
REMARK  Name = 
REMARK  5 active torsions:
REMARK  status: ('A' for Active; 'I' for Inactive)
REMARK    1  A    between atoms: C_1  and  N_2
REMARK    2  A    between atoms: C_5  and  O_6
REMARK    3  A    between atoms: C_5  and  C_7
REMARK    4  A    between atoms: C_8  and  C_9
REMARK    5  A    between atoms: C_13  and  C_14
REMARK                            x       y       z     vdW  Elec       q    Type
REMARK                         _______ _______ _______ _____ _____    ______ ____
ROOT
ATOM      1  C   UNL     1       1.388   8.621  19.841  0.00  0.00    +0.000 A 
ATOM      2  C   UNL     1       1.568   8.817  21.200  0.00  0.00    +0.000 A 
ATOM      3  C   UNL     1       0.705   9.671  21.897  0.00  0.00    +0.000 A 
ATOM      4  C   UNL     1      -0.374  10.331  21.244  0.00  0.00    +0.000 A 
ATOM      5  C   UNL     1      -0.588  10.134  19.886  0.00  0.00    +0.000 A 
ATOM      6  C   UNL     1       0.329   9.281  19.207  0.00  0.00    +0.000 A 
ENDROOT
BRANCH   5   7
ATOM      7  C   UNL     1      -1.614  10.811  19.077  0.00  0.00    +0.000 A 
ATOM      8  C   UNL     1      -1.975  12.106  19.432  0.00  0.00    +0.000 A 
ATOM      9  N   UNL     1      -3.307  12.130  19.162  0.00  0.00    +0.000 N 
ATOM     10  C   UNL     1      -3.419  11.559  17.936  0.00  0.00    +0.000 A 
ATOM     11  C   UNL     1      -4.350  11.709  16.942  0.00  0.00    +0.000 A 
ATOM     12  N   UNL     1      -4.093  11.107  15.778  0.00  0.00    +0.000 NA
ATOM     13  C   UNL     1      -3.003  10.323  15.691  0.00  0.00    +0.000 A 
ATOM     14  N   UNL     1      -2.774   9.893  14.395  0.00  0.00    +0.000 N 
ATOM     15  N   UNL     1      -2.156   9.963  16.686  0.00  0.00    +0.000 NA
ATOM     16  C   UNL     1      -2.333  10.681  17.826  0.00  0.00    +0.000 A 
ATOM     17  H   UNL     1      -4.062  12.265  19.824  0.00  0.00    +0.000 HD
ATOM     18  H   UNL     1      -3.600  10.129  13.855  0.00  0.00    +0.000 HD
ATOM     19  H   UNL     1      -2.482   8.930  14.383  0.00  0.00    +0.000 HD
ENDBRANCH   5   7
BRANCH   1  21
ATOM     20  C   UNL     1       2.825   6.806  18.557  0.00  0.00    +0.000 C 
ATOM     21  C   UNL     1       2.209   7.702  19.067  0.00  0.00    +0.000 C 
BRANCH  20  26
ATOM     22  C   UNL     1       2.189   2.115  18.949  0.00  0.00    +0.000 C 
ATOM     23  N   UNL     1       2.896   3.365  18.829  0.00  0.00    +0.000 N 
ATOM     24  C   UNL     1       4.301   3.517  19.105  0.00  0.00    +0.000 C 
ATOM     25  C   UNL     1       4.466   5.023  19.213  0.00  0.00    +0.000 C 
ATOM     26  C   UNL     1       3.495   5.561  18.149  0.00  0.00    +0.000 C 
ATOM     27  C   UNL     1       2.430   4.432  18.064  0.00  0.00    +0.000 C 
ATOM     28  O   UNL     1       1.372   4.460  17.453  0.00  0.00    +0.000 OA
BRANCH  26  29
ATOM     29  O   UNL     1       4.226   5.750  16.941  0.00  0.00    +0.000 OA
ATOM     30  H   UNL     1       4.795   4.972  16.821  0.00  0.00    +0.000 HD
ENDBRANCH  26  29
ENDBRANCH  20  26
ENDBRANCH   1  21
TORSDOF 4
ENDMDL
MODEL 6
REMARK VINA RESULT:      -8.1      2.838      9.080
REMARK  Name = 
REMARK  5 active torsions:
REMARK  status: ('A' for Active; 'I' for Inactive)
REMARK    1  A    between atoms: C_1  and  N_2
REMARK    2  A    between atoms: C_5  and  O_6
REMARK    3  A    between atoms: C_5  and  C_7
REMARK    4  A    between atoms: C_8  and  C_9
REMARK    5  A    between atoms: C_13  and  C_14
REMARK                            x       y       z     vdW  Elec       q    Type
REMARK                         _______ _______ _______ _____ _____    ______ ____
ROOT
ATOM      1  C   UNL     1       3.459   5.832  18.160  0.00  0.00    +0.000 A 
ATOM      2  C   UNL     1       3.236   4.991  19.238  0.00  0.00    +0.000 A 
ATOM      3  C   UNL     1       2.457   5.435  20.313  0.00  0.00    +0.000 A 
ATOM      4  C   UNL     1       1.865   6.729  20.316  0.00  0.00    +0.000 A 
ATOM      5  C   UNL     1       2.057   7.583  19.239  0.00  0.00    +0.000 A 
ATOM      6  C   UNL     1       2.879   7.105  18.178  0.00  0.00    +0.000 A 
ENDROOT
BRANCH   5   7
ATOM      7  C   UNL     1       1.568   8.968  19.150  0.00  0.00    +0.000 A 
ATOM      8  C   UNL     1       1.321   9.492  17.886  0.00  0.00    +0.000 A 
ATOM      9  N   UNL     1       1.699  10.791  18.021  0.00  0.00    +0.000 N 
ATOM     10  C   UNL     1       1.143  11.190  19.193  0.00  0.00    +0.000 A 
ATOM     11  C   UNL     1       0.748  12.422  19.642  0.00  0.00    +0.000 A 
ATOM     12  N   UNL     1       0.089  12.461  20.803  0.00  0.00    +0.000 NA
ATOM     13  C   UNL     1      -0.053  11.316  21.494  0.00  0.00    +0.000 A 
ATOM     14  N   UNL     1      -0.884  11.470  22.591  0.00  0.00    +0.000 N 
ATOM     15  N   UNL     1       0.488  10.104  21.218  0.00  0.00    +0.000 NA
ATOM     16  C   UNL     1       1.034  10.032  19.975  0.00  0.00    +0.000 A 
ATOM     17  H   UNL     1       2.450  11.262  17.531  0.00  0.00    +0.000 HD
ATOM     18  H   UNL     1      -1.037  12.466  22.708  0.00  0.00    +0.000 HD
ATOM     19  H   UNL     1      -0.526  10.968  23.386  0.00  0.00    +0.000 HD
ENDBRANCH   5   7
BRANCH   1  21
ATOM     20  C   UNL     1       4.875   4.913  16.121  0.00  0.00    +0.000 C 
ATOM     21  C   UNL     1       4.207   5.414  16.984  0.00  0.00    +0.000 C 
BRANCH  20  26
ATOM     22  C   UNL     1       8.222   5.616  12.825  0.00  0.00    +0.000 C 
ATOM     23  N   UNL     1       7.143   4.961  13.518  0.00  0.00    +0.000 N 
ATOM     24  C   UNL     1       6.355   3.900  12.946  0.00  0.00    +0.000 C 
ATOM     25  C   UNL     1       5.155   3.828  13.875  0.00  0.00    +0.000 C 
ATOM     26  C   UNL     1       5.762   4.117  15.258  0.00  0.00    +0.000 C 
ATOM     27  C   UNL     1       7.009   4.976  14.905  0.00  0.00    +0.000 C 
ATOM     28  O   UNL     1       7.741   5.569  15.684  0.00  0.00    +0.000 OA
BRANCH  26  29
ATOM     29  O   UNL     1       6.081   2.870  15.869  0.00  0.00    +0.000 OA
ATOM     30  H   UNL     1       6.679   3.054  16.610  0.00  0.00    +0.000 HD
ENDBRANCH  26  29
ENDBRANCH  20  26
ENDBRANCH   1  21
TORSDOF 4
ENDMDL
MODEL 7
REMARK VINA RESULT:      -8.1      4.761     10.502
REMARK  Name = 
REMARK  5 active torsions:
REMARK  status: ('A' for Active; 'I' for Inactive)
REMARK    1  A    between atoms: C_1  and  N_2
REMARK    2  A    between atoms: C_5  and  O_6
REMARK    3  A    between atoms: C_5  and  C_7
REMARK    4  A    between atoms: C_8  and  C_9
REMARK    5  A    between atoms: C_13  and  C_14
REMARK                            x       y       z     vdW  Elec       q    Type
REMARK                         _______ _______ _______ _____ _____    ______ ____
ROOT
ATOM      1  C   UNL     1       1.581   7.871  19.993  0.00  0.00    +0.000 A 
ATOM      2  C   UNL     1       1.896   8.294  18.711  0.00  0.00    +0.000 A 
ATOM      3  C   UNL     1       1.635   9.616  18.334  0.00  0.00    +0.000 A 
ATOM      4  C   UNL     1       1.071  10.551  19.247  0.00  0.00    +0.000 A 
ATOM      5  C   UNL     1       0.766  10.158  20.542  0.00  0.00    +0.000 A 
ATOM      6  C   UNL     1       1.020   8.797  20.879  0.00  0.00    +0.000 A 
ENDROOT
BRANCH   5   7
ATOM      7  C   UNL     1       0.112  10.999  21.558  0.00  0.00    +0.000 A 
ATOM      8  C   UNL     1      -0.389  10.377  22.696  0.00  0.00    +0.000 A 
ATOM      9  N   UNL     1      -1.516  11.090  22.956  0.00  0.00    +0.000 N 
ATOM     10  C   UNL     1      -1.136  12.388  22.836  0.00  0.00    +0.000 A 
ATOM     11  C   UNL     1      -1.618  13.536  23.407  0.00  0.00    +0.000 A 
ATOM     12  N   UNL     1      -0.920  14.655  23.197  0.00  0.00    +0.000 NA
ATOM     13  C   UNL     1       0.138  14.602  22.369  0.00  0.00    +0.000 A 
ATOM     14  N   UNL     1       0.857  15.786  22.366  0.00  0.00    +0.000 N 
ATOM     15  N   UNL     1       0.548  13.556  21.609  0.00  0.00    +0.000 NA
ATOM     16  C   UNL     1      -0.069  12.388  21.928  0.00  0.00    +0.000 A 
ATOM     17  H   UNL     1      -2.470  10.750  22.949  0.00  0.00    +0.000 HD
ATOM     18  H   UNL     1       0.295  16.473  22.857  0.00  0.00    +0.000 HD
ATOM     19  H   UNL     1       1.154  16.022  21.434  0.00  0.00    +0.000 HD
ENDBRANCH   5   7
BRANCH   1  21
ATOM     20  C   UNL     1       2.054   5.363  20.693  0.00  0.00    +0.000 C 
ATOM     21  C   UNL     1       1.881   6.530  20.471  0.00  0.00    +0.000 C 
BRANCH  20  26
ATOM     22  C   UNL     1       3.483   1.785  17.914  0.00  0.00    +0.000 C 
ATOM     23  N   UNL     1       2.713   2.477  18.916  0.00  0.00    +0.000 N 
ATOM     24  C   UNL     1       1.459   1.993  19.433  0.00  0.00    +0.000 C 
ATOM     25  C   UNL     1       0.885   3.214  20.131  0.00  0.00    +0.000 C 
ATOM     26  C   UNL     1       2.127   3.894  20.731  0.00  0.00    +0.000 C 
ATOM     27  C   UNL     1       3.260   3.430  19.773  0.00  0.00    +0.000 C 
ATOM     28  O   UNL     1       4.416   3.824  19.753  0.00  0.00    +0.000 OA
BRANCH  26  29
ATOM     29  O   UNL     1       2.282   3.426  22.068  0.00  0.00    +0.000 OA
ATOM     30  H   UNL     1       1.609   2.742  22.217  0.00  0.00    +0.000 HD
ENDBRANCH  26  29
ENDBRANCH  20  26
ENDBRANCH   1  21
TORSDOF 4
ENDMDL
MODEL 8
REMARK VINA RESULT:      -8.0      4.058     10.237
REMARK  Name = 
REMARK  5 active torsions:
REMARK  status: ('A' for Active; 'I' for Inactive)
REMARK    1  A    between atoms: C_1  and  N_2
REMARK    2  A    between atoms: C_5  and  O_6
REMARK    3  A    between atoms: C_5  and  C_7
REMARK    4  A    between atoms: C_8  and  C_9
REMARK    5  A    between atoms: C_13  and  C_14
REMARK                            x       y       z     vdW  Elec       q    Type
REMARK                         _______ _______ _______ _____ _____    ______ ____
ROOT
ATOM      1  C   UNL     1       1.183   9.934  18.242  0.00  0.00    +0.000 A 
ATOM      2  C   UNL     1       1.862  11.029  18.752  0.00  0.00    +0.000 A 
ATOM      3  C   UNL     1       1.180  12.235  18.951  0.00  0.00    +0.000 A 
ATOM      4  C   UNL     1      -0.208  12.360  18.662  0.00  0.00    +0.000 A 
ATOM      5  C   UNL     1      -0.915  11.271  18.170  0.00  0.00    +0.000 A 
ATOM      6  C   UNL     1      -0.180  10.070  17.954  0.00  0.00    +0.000 A 
ENDROOT
BRANCH   5   7
ATOM      7  C   UNL     1      -2.328  11.286  17.760  0.00  0.00    +0.000 A 
ATOM      8  C   UNL     1      -2.689  10.552  16.635  0.00  0.00    +0.000 A 
ATOM      9  N   UNL     1      -3.649  11.327  16.066  0.00  0.00    +0.000 N 
ATOM     10  C   UNL     1      -4.454  11.689  17.098  0.00  0.00    +0.000 A 
ATOM     11  C   UNL     1      -5.780  12.030  17.143  0.00  0.00    +0.000 A 
ATOM     12  N   UNL     1      -6.322  12.193  18.353  0.00  0.00    +0.000 NA
ATOM     13  C   UNL     1      -5.518  12.112  19.428  0.00  0.00    +0.000 A 
ATOM     14  N   UNL     1      -6.232  12.144  20.614  0.00  0.00    +0.000 N 
ATOM     15  N   UNL     1      -4.168  11.986  19.451  0.00  0.00    +0.000 NA
ATOM     16  C   UNL     1      -3.639  11.680  18.236  0.00  0.00    +0.000 A 
ATOM     17  H   UNL     1      -3.614  11.774  15.158  0.00  0.00    +0.000 HD
ATOM     18  H   UNL     1      -7.183  12.408  20.380  0.00  0.00    +0.000 HD
ATOM     19  H   UNL     1      -5.759  12.706  21.302  0.00  0.00    +0.000 HD
ENDBRANCH   5   7
BRANCH   1  21
ATOM     20  C   UNL     1       2.327   7.550  18.121  0.00  0.00    +0.000 C 
ATOM     21  C   UNL     1       1.813   8.634  18.068  0.00  0.00    +0.000 C 
BRANCH  20  26
ATOM     22  C   UNL     1       5.175   4.330  16.101  0.00  0.00    +0.000 C 
ATOM     23  N   UNL     1       4.142   4.854  16.958  0.00  0.00    +0.000 N 
ATOM     24  C   UNL     1       3.142   4.035  17.592  0.00  0.00    +0.000 C 
ATOM     25  C   UNL     1       2.104   5.051  18.039  0.00  0.00    +0.000 C 
ATOM     26  C   UNL     1       2.954   6.262  18.458  0.00  0.00    +0.000 C 
ATOM     27  C   UNL     1       4.232   6.093  17.588  0.00  0.00    +0.000 C 
ATOM     28  O   UNL     1       5.149   6.891  17.461  0.00  0.00    +0.000 OA
BRANCH  26  29
ATOM     29  O   UNL     1       3.199   6.166  19.858  0.00  0.00    +0.000 OA
ATOM     30  H   UNL     1       2.353   5.957  20.287  0.00  0.00    +0.000 HD
ENDBRANCH  26  29
ENDBRANCH  20  26
ENDBRANCH   1  21
TORSDOF 4
ENDMDL
MODEL 9
REMARK VINA RESULT:      -8.0      3.620      9.053
REMARK  Name = 
REMARK  5 active torsions:
REMARK  status: ('A' for Active; 'I' for Inactive)
REMARK    1  A    between atoms: C_1  and  N_2
REMARK    2  A    between atoms: C_5  and  O_6
REMARK    3  A    between atoms: C_5  and  C_7
REMARK    4  A    between atoms: C_8  and  C_9
REMARK    5  A    between atoms: C_13  and  C_14
REMARK                            x       y       z     vdW  Elec       q    Type
REMARK                         _______ _______ _______ _____ _____    ______ ____
ROOT
ATOM      1  C   UNL     1       1.386   8.636  19.887  0.00  0.00    +0.000 A 
ATOM      2  C   UNL     1       1.532   8.837  21.250  0.00  0.00    +0.000 A 
ATOM      3  C   UNL     1       0.648   9.687  21.924  0.00  0.00    +0.000 A 
ATOM      4  C   UNL     1      -0.419  10.338  21.244  0.00  0.00    +0.000 A 
ATOM      5  C   UNL     1      -0.600  10.137  19.882  0.00  0.00    +0.000 A 
ATOM      6  C   UNL     1       0.338   9.288  19.227  0.00  0.00    +0.000 A 
ENDROOT
BRANCH   5   7
ATOM      7  C   UNL     1      -1.610  10.805  19.047  0.00  0.00    +0.000 A 
ATOM      8  C   UNL     1      -1.971  12.108  19.376  0.00  0.00    +0.000 A 
ATOM      9  N   UNL     1      -3.299  12.133  19.085  0.00  0.00    +0.000 N 
ATOM     10  C   UNL     1      -3.395  11.543  17.867  0.00  0.00    +0.000 A 
ATOM     11  C   UNL     1      -4.309  11.681  16.856  0.00  0.00    +0.000 A 
ATOM     12  N   UNL     1      -4.037  11.060  15.705  0.00  0.00    +0.000 NA
ATOM     13  C   UNL     1      -2.950  10.271  15.647  0.00  0.00    +0.000 A 
ATOM     14  N   UNL     1      -2.703   9.819  14.362  0.00  0.00    +0.000 N 
ATOM     15  N   UNL     1      -2.119   9.922  16.661  0.00  0.00    +0.000 NA
ATOM     16  C   UNL     1      -2.310  10.659  17.787  0.00  0.00    +0.000 A 
ATOM     17  H   UNL     1      -4.063  12.280  19.733  0.00  0.00    +0.000 HD
ATOM     18  H   UNL     1      -3.519  10.051  13.806  0.00  0.00    +0.000 HD
ATOM     19  H   UNL     1      -2.415   8.855  14.370  0.00  0.00    +0.000 HD
ENDBRANCH   5   7
BRANCH   1  21
ATOM     20  C   UNL     1       2.952   6.871  18.688  0.00  0.00    +0.000 C 
ATOM     21  C   UNL     1       2.231   7.720  19.136  0.00  0.00    +0.000 C 
BRANCH  20  26
ATOM     22  C   UNL     1       5.647   5.289  15.110  0.00  0.00    +0.000 C 
ATOM     23  N   UNL     1       4.818   5.236  16.288  0.00  0.00    +0.000 N 
ATOM     24  C   UNL     1       4.196   4.030  16.770  0.00  0.00    +0.000 C 
ATOM     25  C   UNL     1       3.161   4.551  17.754  0.00  0.00    +0.000 C 
ATOM     26  C   UNL     1       3.866   5.754  18.402  0.00  0.00    +0.000 C 
ATOM     27  C   UNL     1       4.860   6.200  17.292  0.00  0.00    +0.000 C 
ATOM     28  O   UNL     1       5.548   7.210  17.281  0.00  0.00    +0.000 OA
BRANCH  26  29
ATOM     29  O   UNL     1       4.505   5.301  19.592  0.00  0.00    +0.000 OA
ATOM     30  H   UNL     1       5.331   5.803  19.688  0.00  0.00    +0.000 HD
ENDBRANCH  26  29
ENDBRANCH  20  26
ENDBRANCH   1  21
TORSDOF 4
ENDMDL
