MODEL 1
REMARK VINA RESULT:      -7.3      0.000      0.000
REMARK  Name = 
REMARK  6 active torsions:
REMARK  status: ('A' for Active; 'I' for Inactive)
REMARK    1  A    between atoms: C_1  and  N_2
REMARK    2  A    between atoms: N_2  and  C_15
REMARK    3  A    between atoms: C_3  and  C_5
REMARK    4  A    between atoms: C_5  and  C_6
REMARK    5  A    between atoms: C_11  and  N_12
REMARK    6  A    between atoms: C_20  and  N_21
REMARK                            x       y       z     vdW  Elec       q    Type
REMARK                         _______ _______ _______ _____ _____    ______ ____
ROOT
ATOM      1  C   UNL     1       2.308  10.233  17.921  0.00  0.00    +0.000 C 
ATOM      2  N   UNL     1       1.890   9.023  18.624  0.00  0.00    +0.000 N 
ATOM      3  C   UNL     1       2.579   7.838  18.325  0.00  0.00    +0.000 C 
ATOM      4  O   UNL     1       3.352   7.762  17.368  0.00  0.00    +0.000 OA
ENDROOT
BRANCH   2   5
ATOM      5  C   UNL     1       0.787   9.155  19.629  0.00  0.00    +0.000 C 
ATOM      6  C   UNL     1       1.350   8.825  21.031  0.00  0.00    +0.000 C 
ATOM      7  C   UNL     1       0.332   9.014  22.147  0.00  0.00    +0.000 C 
ATOM      8  C   UNL     1      -0.217  10.427  22.125  0.00  0.00    +0.000 C 
ATOM      9  C   UNL     1      -0.913  10.711  20.801  0.00  0.00    +0.000 C 
ATOM     10  C   UNL     1       0.028  10.542  19.589  0.00  0.00    +0.000 C 
BRANCH  10  11
ATOM     11  N   UNL     1      -0.608  10.838  18.277  0.00  0.00    +0.000 NA
ATOM     12  C   UNL     1      -1.476  12.023  18.278  0.00  0.00    +0.000 C 
ATOM     13  C   UNL     1      -2.893  11.504  18.449  0.00  0.00    +0.000 C 
ATOM     14  C   UNL     1      -2.874  10.151  17.766  0.00  0.00    +0.000 C 
ATOM     15  C   UNL     1      -1.398   9.774  17.646  0.00  0.00    +0.000 C 
ENDBRANCH  10  11
ENDBRANCH   2   5
BRANCH   3  16
ATOM     16  C   UNL     1       2.264   6.612  19.167  0.00  0.00    +0.000 C 
BRANCH  16  17
ATOM     17  C   UNL     1       2.682   5.269  18.589  0.00  0.00    +0.000 A 
ATOM     18  C   UNL     1       1.731   4.543  17.848  0.00  0.00    +0.000 A 
ATOM     19  C   UNL     1       1.950   3.207  17.524  0.00  0.00    +0.000 A 
ATOM     20  C   UNL     1       3.124   2.586  17.926  0.00  0.00    +0.000 A 
ATOM     21  C   UNL     1       4.108   3.319  18.592  0.00  0.00    +0.000 A 
ATOM     22  C   UNL     1       3.929   4.679  18.911  0.00  0.00    +0.000 A 
BRANCH  22  23
ATOM     23  N   UNL     1       4.883   5.435  19.634  0.00  0.00    +0.000 NA
ATOM     24  C   UNL     1       5.976   5.493  19.200  0.00  0.00    +0.000 C 
ATOM     25  S   UNL     1       7.479   5.574  18.684  0.00  0.00    +0.000 S 
ENDBRANCH  22  23
ENDBRANCH  16  17
ENDBRANCH   3  16
TORSDOF 5
ENDMDL
MODEL 2
REMARK VINA RESULT:      -7.3      2.579      3.881
REMARK  Name = 
REMARK  6 active torsions:
REMARK  status: ('A' for Active; 'I' for Inactive)
REMARK    1  A    between atoms: C_1  and  N_2
REMARK    2  A    between atoms: N_2  and  C_15
REMARK    3  A    between atoms: C_3  and  C_5
REMARK    4  A    between atoms: C_5  and  C_6
REMARK    5  A    between atoms: C_11  and  N_12
REMARK    6  A    between atoms: C_20  and  N_21
REMARK                            x       y       z     vdW  Elec       q    Type
REMARK                         _______ _______ _______ _____ _____    ______ ____
ROOT
ATOM      1  C   UNL     1       0.570   9.440  21.197  0.00  0.00    +0.000 C 
ATOM      2  N   UNL     1       0.936   9.205  19.803  0.00  0.00    +0.000 N 
ATOM      3  C   UNL     1       1.780   8.116  19.537  0.00  0.00    +0.000 C 
ATOM      4  O   UNL     1       2.363   7.513  20.441  0.00  0.00    +0.000 OA
ENDROOT
BRANCH   2   5
ATOM      5  C   UNL     1       0.352  10.120  18.772  0.00  0.00    +0.000 C 
ATOM      6  C   UNL     1      -1.103   9.681  18.482  0.00  0.00    +0.000 C 
ATOM      7  C   UNL     1      -1.827  10.600  17.508  0.00  0.00    +0.000 C 
ATOM      8  C   UNL     1      -1.804  12.027  18.018  0.00  0.00    +0.000 C 
ATOM      9  C   UNL     1      -0.373  12.525  18.158  0.00  0.00    +0.000 C 
ATOM     10  C   UNL     1       0.463  11.658  19.123  0.00  0.00    +0.000 C 
BRANCH  10  11
ATOM     11  N   UNL     1       1.862  12.128  19.310  0.00  0.00    +0.000 NA
ATOM     12  C   UNL     1       2.050  13.033  20.452  0.00  0.00    +0.000 C 
ATOM     13  C   UNL     1       2.027  14.440  19.879  0.00  0.00    +0.000 C 
ATOM     14  C   UNL     1       2.611  14.281  18.489  0.00  0.00    +0.000 C 
ATOM     15  C   UNL     1       2.517  12.788  18.174  0.00  0.00    +0.000 C 
ENDBRANCH  10  11
ENDBRANCH   2   5
BRANCH   3  16
ATOM     16  C   UNL     1       2.033   7.763  18.081  0.00  0.00    +0.000 C 
BRANCH  16  17
ATOM     17  C   UNL     1       3.113   6.727  17.814  0.00  0.00    +0.000 A 
ATOM     18  C   UNL     1       4.364   7.179  17.354  0.00  0.00    +0.000 A 
ATOM     19  C   UNL     1       5.299   6.286  16.837  0.00  0.00    +0.000 A 
ATOM     20  C   UNL     1       4.998   4.932  16.785  0.00  0.00    +0.000 A 
ATOM     21  C   UNL     1       3.793   4.463  17.310  0.00  0.00    +0.000 A 
ATOM     22  C   UNL     1       2.838   5.338  17.864  0.00  0.00    +0.000 A 
BRANCH  22  23
ATOM     23  N   UNL     1       1.584   4.901  18.355  0.00  0.00    +0.000 NA
ATOM     24  C   UNL     1       1.575   4.269  19.348  0.00  0.00    +0.000 C 
ATOM     25  S   UNL     1       1.506   3.377  20.663  0.00  0.00    +0.000 S 
ENDBRANCH  22  23
ENDBRANCH  16  17
ENDBRANCH   3  16
TORSDOF 5
ENDMDL
MODEL 3
REMARK VINA RESULT:      -7.2      5.154      7.560
REMARK  Name = 
REMARK  6 active torsions:
REMARK  status: ('A' for Active; 'I' for Inactive)
REMARK    1  A    between atoms: C_1  and  N_2
REMARK    2  A    between atoms: N_2  and  C_15
REMARK    3  A    between atoms: C_3  and  C_5
REMARK    4  A    between atoms: C_5  and  C_6
REMARK    5  A    between atoms: C_11  and  N_12
REMARK    6  A    between atoms: C_20  and  N_21
REMARK                            x       y       z     vdW  Elec       q    Type
REMARK                         _______ _______ _______ _____ _____    ______ ____
ROOT
ATOM      1  C   UNL     1       1.307  12.597  20.060  0.00  0.00    +0.000 C 
ATOM      2  N   UNL     1       0.163  11.742  19.759  0.00  0.00    +0.000 N 
ATOM      3  C   UNL     1      -0.419  11.874  18.489  0.00  0.00    +0.000 C 
ATOM      4  O   UNL     1      -0.129  12.807  17.737  0.00  0.00    +0.000 OA
ENDROOT
BRANCH   2   5
ATOM      5  C   UNL     1      -0.270  10.772  20.814  0.00  0.00    +0.000 C 
ATOM      6  C   UNL     1       0.828   9.696  20.983  0.00  0.00    +0.000 C 
ATOM      7  C   UNL     1       0.531   8.703  22.097  0.00  0.00    +0.000 C 
ATOM      8  C   UNL     1       0.311   9.433  23.407  0.00  0.00    +0.000 C 
ATOM      9  C   UNL     1      -0.871  10.386  23.299  0.00  0.00    +0.000 C 
ATOM     10  C   UNL     1      -0.683  11.439  22.187  0.00  0.00    +0.000 C 
BRANCH  10  11
ATOM     11  N   UNL     1      -1.806  12.407  22.067  0.00  0.00    +0.000 NA
ATOM     12  C   UNL     1      -1.439  13.800  22.355  0.00  0.00    +0.000 C 
ATOM     13  C   UNL     1      -1.844  14.050  23.798  0.00  0.00    +0.000 C 
ATOM     14  C   UNL     1      -3.058  13.165  23.998  0.00  0.00    +0.000 C 
ATOM     15  C   UNL     1      -3.017  12.150  22.857  0.00  0.00    +0.000 C 
ENDBRANCH  10  11
ENDBRANCH   2   5
BRANCH   3  16
ATOM     16  C   UNL     1      -1.502  10.879  18.106  0.00  0.00    +0.000 C 
BRANCH  16  17
ATOM     17  C   UNL     1      -2.892  11.447  17.870  0.00  0.00    +0.000 A 
ATOM     18  C   UNL     1      -3.617  11.905  18.986  0.00  0.00    +0.000 A 
ATOM     19  C   UNL     1      -4.977  12.183  18.887  0.00  0.00    +0.000 A 
ATOM     20  C   UNL     1      -5.625  12.017  17.670  0.00  0.00    +0.000 A 
ATOM     21  C   UNL     1      -4.899  11.640  16.539  0.00  0.00    +0.000 A 
ATOM     22  C   UNL     1      -3.516  11.378  16.601  0.00  0.00    +0.000 A 
BRANCH  22  23
ATOM     23  N   UNL     1      -2.763  10.941  15.485  0.00  0.00    +0.000 NA
ATOM     24  C   UNL     1      -3.348  10.457  14.585  0.00  0.00    +0.000 C 
ATOM     25  S   UNL     1      -4.081   9.758  13.359  0.00  0.00    +0.000 S 
ENDBRANCH  22  23
ENDBRANCH  16  17
ENDBRANCH   3  16
TORSDOF 5
ENDMDL
MODEL 4
REMARK VINA RESULT:      -7.1      2.105      3.314
REMARK  Name = 
REMARK  6 active torsions:
REMARK  status: ('A' for Active; 'I' for Inactive)
REMARK    1  A    between atoms: C_1  and  N_2
REMARK    2  A    between atoms: N_2  and  C_15
REMARK    3  A    between atoms: C_3  and  C_5
REMARK    4  A    between atoms: C_5  and  C_6
REMARK    5  A    between atoms: C_11  and  N_12
REMARK    6  A    between atoms: C_20  and  N_21
REMARK                            x       y       z     vdW  Elec       q    Type
REMARK                         _______ _______ _______ _____ _____    ______ ____
ROOT
ATOM      1  C   UNL     1       0.404   9.363  21.186  0.00  0.00    +0.000 C 
ATOM      2  N   UNL     1       0.864   9.200  19.810  0.00  0.00    +0.000 N 
ATOM      3  C   UNL     1       1.773   8.161  19.557  0.00  0.00    +0.000 C 
ATOM      4  O   UNL     1       2.328   7.549  20.472  0.00  0.00    +0.000 OA
ENDROOT
BRANCH   2   5
ATOM      5  C   UNL     1       0.301  10.128  18.778  0.00  0.00    +0.000 C 
ATOM      6  C   UNL     1      -1.152   9.701  18.464  0.00  0.00    +0.000 C 
ATOM      7  C   UNL     1      -1.855  10.633  17.488  0.00  0.00    +0.000 C 
ATOM      8  C   UNL     1      -1.831  12.056  18.010  0.00  0.00    +0.000 C 
ATOM      9  C   UNL     1      -0.399  12.543  18.177  0.00  0.00    +0.000 C 
ATOM     10  C   UNL     1       0.417  11.662  19.146  0.00  0.00    +0.000 C 
BRANCH  10  11
ATOM     11  N   UNL     1       1.816  12.121  19.357  0.00  0.00    +0.000 NA
ATOM     12  C   UNL     1       1.983  13.063  20.472  0.00  0.00    +0.000 C 
ATOM     13  C   UNL     1       1.995  14.449  19.851  0.00  0.00    +0.000 C 
ATOM     14  C   UNL     1       2.617  14.235  18.485  0.00  0.00    +0.000 C 
ATOM     15  C   UNL     1       2.513  12.734  18.219  0.00  0.00    +0.000 C 
ENDBRANCH  10  11
ENDBRANCH   2   5
BRANCH   3  16
ATOM     16  C   UNL     1       2.130   7.877  18.108  0.00  0.00    +0.000 C 
BRANCH  16  17
ATOM     17  C   UNL     1       2.530   6.448  17.776  0.00  0.00    +0.000 A 
ATOM     18  C   UNL     1       1.582   5.429  17.989  0.00  0.00    +0.000 A 
ATOM     19  C   UNL     1       1.959   4.090  17.966  0.00  0.00    +0.000 A 
ATOM     20  C   UNL     1       3.283   3.753  17.721  0.00  0.00    +0.000 A 
ATOM     21  C   UNL     1       4.215   4.751  17.430  0.00  0.00    +0.000 A 
ATOM     22  C   UNL     1       3.859   6.114  17.419  0.00  0.00    +0.000 A 
BRANCH  22  23
ATOM     23  N   UNL     1       4.791   7.153  17.182  0.00  0.00    +0.000 NA
ATOM     24  C   UNL     1       5.926   6.930  17.403  0.00  0.00    +0.000 C 
ATOM     25  S   UNL     1       7.467   6.700  17.722  0.00  0.00    +0.000 S 
ENDBRANCH  22  23
ENDBRANCH  16  17
ENDBRANCH   3  16
TORSDOF 5
ENDMDL
MODEL 5
REMARK VINA RESULT:      -6.9      3.113      7.624
REMARK  Name = 
REMARK  6 active torsions:
REMARK  status: ('A' for Active; 'I' for Inactive)
REMARK    1  A    between atoms: C_1  and  N_2
REMARK    2  A    between atoms: N_2  and  C_15
REMARK    3  A    between atoms: C_3  and  C_5
REMARK    4  A    between atoms: C_5  and  C_6
REMARK    5  A    between atoms: C_11  and  N_12
REMARK    6  A    between atoms: C_20  and  N_21
REMARK                            x       y       z     vdW  Elec       q    Type
REMARK                         _______ _______ _______ _____ _____    ______ ____
ROOT
ATOM      1  C   UNL     1       3.584   3.142  18.112  0.00  0.00    +0.000 C 
ATOM      2  N   UNL     1       3.667   4.592  17.956  0.00  0.00    +0.000 N 
ATOM      3  C   UNL     1       2.458   5.291  17.819  0.00  0.00    +0.000 C 
ATOM      4  O   UNL     1       1.390   4.707  17.624  0.00  0.00    +0.000 OA
ENDROOT
BRANCH   2   5
ATOM      5  C   UNL     1       5.028   5.214  17.990  0.00  0.00    +0.000 C 
ATOM      6  C   UNL     1       5.636   5.006  19.397  0.00  0.00    +0.000 C 
ATOM      7  C   UNL     1       7.061   5.524  19.520  0.00  0.00    +0.000 C 
ATOM      8  C   UNL     1       7.946   4.882  18.470  0.00  0.00    +0.000 C 
ATOM      9  C   UNL     1       7.444   5.212  17.071  0.00  0.00    +0.000 C 
ATOM     10  C   UNL     1       5.996   4.736  16.834  0.00  0.00    +0.000 C 
BRANCH  10  11
ATOM     11  N   UNL     1       5.478   5.016  15.468  0.00  0.00    +0.000 NA
ATOM     12  C   UNL     1       5.105   3.817  14.705  0.00  0.00    +0.000 C 
ATOM     13  C   UNL     1       6.292   3.506  13.808  0.00  0.00    +0.000 C 
ATOM     14  C   UNL     1       6.890   4.866  13.506  0.00  0.00    +0.000 C 
ATOM     15  C   UNL     1       6.322   5.808  14.566  0.00  0.00    +0.000 C 
ENDBRANCH  10  11
ENDBRANCH   2   5
BRANCH   3  16
ATOM     16  C   UNL     1       2.520   6.809  17.822  0.00  0.00    +0.000 C 
BRANCH  16  17
ATOM     17  C   UNL     1       2.074   7.503  19.098  0.00  0.00    +0.000 A 
ATOM     18  C   UNL     1       1.864   6.712  20.243  0.00  0.00    +0.000 A 
ATOM     19  C   UNL     1       1.205   7.227  21.355  0.00  0.00    +0.000 A 
ATOM     20  C   UNL     1       0.759   8.542  21.340  0.00  0.00    +0.000 A 
ATOM     21  C   UNL     1       1.031   9.359  20.242  0.00  0.00    +0.000 A 
ATOM     22  C   UNL     1       1.719   8.874  19.112  0.00  0.00    +0.000 A 
BRANCH  22  23
ATOM     23  N   UNL     1       1.962   9.661  17.961  0.00  0.00    +0.000 NA
ATOM     24  C   UNL     1       2.080  10.824  18.107  0.00  0.00    +0.000 C 
ATOM     25  S   UNL     1       2.207  12.403  18.240  0.00  0.00    +0.000 S 
ENDBRANCH  22  23
ENDBRANCH  16  17
ENDBRANCH   3  16
TORSDOF 5
ENDMDL
MODEL 6
REMARK VINA RESULT:      -6.8      3.131      7.681
REMARK  Name = 
REMARK  6 active torsions:
REMARK  status: ('A' for Active; 'I' for Inactive)
REMARK    1  A    between atoms: C_1  and  N_2
REMARK    2  A    between atoms: N_2  and  C_15
REMARK    3  A    between atoms: C_3  and  C_5
REMARK    4  A    between atoms: C_5  and  C_6
REMARK    5  A    between atoms: C_11  and  N_12
REMARK    6  A    between atoms: C_20  and  N_21
REMARK                            x       y       z     vdW  Elec       q    Type
REMARK                         _______ _______ _______ _____ _____    ______ ____
ROOT
ATOM      1  C   UNL     1       2.274   6.919  20.958  0.00  0.00    +0.000 C 
ATOM      2  N   UNL     1       2.009   7.492  19.641  0.00  0.00    +0.000 N 
ATOM      3  C   UNL     1       1.316   8.711  19.601  0.00  0.00    +0.000 C 
ATOM      4  O   UNL     1       0.765   9.177  20.601  0.00  0.00    +0.000 OA
ENDROOT
BRANCH   2   5
ATOM      5  C   UNL     1       2.530   6.752  18.448  0.00  0.00    +0.000 C 
ATOM      6  C   UNL     1       3.834   7.433  17.970  0.00  0.00    +0.000 C 
ATOM      7  C   UNL     1       4.501   6.707  16.811  0.00  0.00    +0.000 C 
ATOM      8  C   UNL     1       4.773   5.262  17.181  0.00  0.00    +0.000 C 
ATOM      9  C   UNL     1       3.474   4.538  17.505  0.00  0.00    +0.000 C 
ATOM     10  C   UNL     1       2.703   5.195  18.668  0.00  0.00    +0.000 C 
BRANCH  10  11
ATOM     11  N   UNL     1       1.440   4.499  19.034  0.00  0.00    +0.000 NA
ATOM     12  C   UNL     1       1.389   4.028  20.424  0.00  0.00    +0.000 C 
ATOM     13  C   UNL     1       1.772   2.558  20.382  0.00  0.00    +0.000 C 
ATOM     14  C   UNL     1       1.261   2.084  19.036  0.00  0.00    +0.000 C 
ATOM     15  C   UNL     1       1.031   3.352  18.215  0.00  0.00    +0.000 C 
ENDBRANCH  10  11
ENDBRANCH   2   5
BRANCH   3  16
ATOM     16  C   UNL     1       1.180   9.397  18.252  0.00  0.00    +0.000 C 
BRANCH  16  17
ATOM     17  C   UNL     1       0.580  10.794  18.260  0.00  0.00    +0.000 A 
ATOM     18  C   UNL     1       1.395  11.862  18.681  0.00  0.00    +0.000 A 
ATOM     19  C   UNL     1       0.845  13.107  18.970  0.00  0.00    +0.000 A 
ATOM     20  C   UNL     1      -0.522  13.303  18.830  0.00  0.00    +0.000 A 
ATOM     21  C   UNL     1      -1.328  12.275  18.338  0.00  0.00    +0.000 A 
ATOM     22  C   UNL     1      -0.797  11.011  18.011  0.00  0.00    +0.000 A 
BRANCH  22  23
ATOM     23  N   UNL     1      -1.595   9.932  17.562  0.00  0.00    +0.000 NA
ATOM     24  C   UNL     1      -2.222  10.087  16.577  0.00  0.00    +0.000 C 
ATOM     25  S   UNL     1      -3.121  10.254  15.276  0.00  0.00    +0.000 S 
ENDBRANCH  22  23
ENDBRANCH  16  17
ENDBRANCH   3  16
TORSDOF 5
ENDMDL
MODEL 7
REMARK VINA RESULT:      -6.8      2.429      3.688
REMARK  Name = 
REMARK  6 active torsions:
REMARK  status: ('A' for Active; 'I' for Inactive)
REMARK    1  A    between atoms: C_1  and  N_2
REMARK    2  A    between atoms: N_2  and  C_15
REMARK    3  A    between atoms: C_3  and  C_5
REMARK    4  A    between atoms: C_5  and  C_6
REMARK    5  A    between atoms: C_11  and  N_12
REMARK    6  A    between atoms: C_20  and  N_21
REMARK                            x       y       z     vdW  Elec       q    Type
REMARK                         _______ _______ _______ _____ _____    ______ ____
ROOT
ATOM      1  C   UNL     1      -0.198  10.203  21.848  0.00  0.00    +0.000 C 
ATOM      2  N   UNL     1       0.469   9.739  20.635  0.00  0.00    +0.000 N 
ATOM      3  C   UNL     1       1.383   8.682  20.772  0.00  0.00    +0.000 C 
ATOM      4  O   UNL     1       1.772   8.301  21.878  0.00  0.00    +0.000 OA
ENDROOT
BRANCH   2   5
ATOM      5  C   UNL     1       0.099  10.402  19.346  0.00  0.00    +0.000 C 
ATOM      6  C   UNL     1      -1.315   9.931  18.931  0.00  0.00    +0.000 C 
ATOM      7  C   UNL     1      -1.833  10.613  17.673  0.00  0.00    +0.000 C 
ATOM      8  C   UNL     1      -1.815  12.119  17.847  0.00  0.00    +0.000 C 
ATOM      9  C   UNL     1      -0.398  12.613  18.101  0.00  0.00    +0.000 C 
ATOM     10  C   UNL     1       0.234  11.978  19.357  0.00  0.00    +0.000 C 
BRANCH  10  11
ATOM     11  N   UNL     1       1.610  12.457  19.656  0.00  0.00    +0.000 NA
ATOM     12  C   UNL     1       1.694  13.394  20.784  0.00  0.00    +0.000 C 
ATOM     13  C   UNL     1       1.724  14.784  20.172  0.00  0.00    +0.000 C 
ATOM     14  C   UNL     1       2.431  14.587  18.846  0.00  0.00    +0.000 C 
ATOM     15  C   UNL     1       2.366  13.086  18.567  0.00  0.00    +0.000 C 
ENDBRANCH  10  11
ENDBRANCH   2   5
BRANCH   3  16
ATOM     16  C   UNL     1       1.958   8.083  19.499  0.00  0.00    +0.000 C 
BRANCH  16  17
ATOM     17  C   UNL     1       2.293   6.601  19.540  0.00  0.00    +0.000 A 
ATOM     18  C   UNL     1       1.646   5.803  20.503  0.00  0.00    +0.000 A 
ATOM     19  C   UNL     1       2.092   4.513  20.776  0.00  0.00    +0.000 A 
ATOM     20  C   UNL     1       3.182   4.003  20.084  0.00  0.00    +0.000 A 
ATOM     21  C   UNL     1       3.781   4.755  19.073  0.00  0.00    +0.000 A 
ATOM     22  C   UNL     1       3.335   6.053  18.754  0.00  0.00    +0.000 A 
BRANCH  22  23
ATOM     23  N   UNL     1       3.956   6.863  17.772  0.00  0.00    +0.000 NA
ATOM     24  C   UNL     1       4.591   6.324  16.940  0.00  0.00    +0.000 C 
ATOM     25  S   UNL     1       5.494   5.653  15.815  0.00  0.00    +0.000 S 
ENDBRANCH  22  23
ENDBRANCH  16  17
ENDBRANCH   3  16
TORSDOF 5
ENDMDL
MODEL 8
REMARK VINA RESULT:      -6.7      3.243      7.675
REMARK  Name = 
REMARK  6 active torsions:
REMARK  status: ('A' for Active; 'I' for Inactive)
REMARK    1  A    between atoms: C_1  and  N_2
REMARK    2  A    between atoms: N_2  and  C_15
REMARK    3  A    between atoms: C_3  and  C_5
REMARK    4  A    between atoms: C_5  and  C_6
REMARK    5  A    between atoms: C_11  and  N_12
REMARK    6  A    between atoms: C_20  and  N_21
REMARK                            x       y       z     vdW  Elec       q    Type
REMARK                         _______ _______ _______ _____ _____    ______ ____
ROOT
ATOM      1  C   UNL     1       3.393   3.234  17.715  0.00  0.00    +0.000 C 
ATOM      2  N   UNL     1       3.594   4.540  18.337  0.00  0.00    +0.000 N 
ATOM      3  C   UNL     1       2.512   5.085  19.045  0.00  0.00    +0.000 C 
ATOM      4  O   UNL     1       1.381   4.600  18.974  0.00  0.00    +0.000 OA
ENDROOT
BRANCH   2   5
ATOM      5  C   UNL     1       4.944   5.171  18.198  0.00  0.00    +0.000 C 
ATOM      6  C   UNL     1       5.675   5.089  19.558  0.00  0.00    +0.000 C 
ATOM      7  C   UNL     1       7.099   5.623  19.510  0.00  0.00    +0.000 C 
ATOM      8  C   UNL     1       7.897   4.898  18.444  0.00  0.00    +0.000 C 
ATOM      9  C   UNL     1       7.271   5.103  17.072  0.00  0.00    +0.000 C 
ATOM     10  C   UNL     1       5.814   4.601  17.005  0.00  0.00    +0.000 C 
BRANCH  10  11
ATOM     11  N   UNL     1       5.174   4.758  15.672  0.00  0.00    +0.000 NA
ATOM     12  C   UNL     1       5.146   3.530  14.865  0.00  0.00    +0.000 C 
ATOM     13  C   UNL     1       6.329   3.625  13.917  0.00  0.00    +0.000 C 
ATOM     14  C   UNL     1       6.476   5.111  13.660  0.00  0.00    +0.000 C 
ATOM     15  C   UNL     1       5.700   5.800  14.781  0.00  0.00    +0.000 C 
ENDBRANCH  10  11
ENDBRANCH   2   5
BRANCH   3  16
ATOM     16  C   UNL     1       2.759   6.362  19.831  0.00  0.00    +0.000 C 
BRANCH  16  17
ATOM     17  C   UNL     1       2.133   7.631  19.277  0.00  0.00    +0.000 A 
ATOM     18  C   UNL     1       2.495   8.035  17.979  0.00  0.00    +0.000 A 
ATOM     19  C   UNL     1       2.178   9.308  17.514  0.00  0.00    +0.000 A 
ATOM     20  C   UNL     1       1.485  10.186  18.336  0.00  0.00    +0.000 A 
ATOM     21  C   UNL     1       1.051   9.768  19.595  0.00  0.00    +0.000 A 
ATOM     22  C   UNL     1       1.333   8.477  20.083  0.00  0.00    +0.000 A 
BRANCH  22  23
ATOM     23  N   UNL     1       0.955   8.041  21.377  0.00  0.00    +0.000 NA
ATOM     24  C   UNL     1       0.384   8.806  22.066  0.00  0.00    +0.000 C 
ATOM     25  S   UNL     1      -0.353   9.809  23.056  0.00  0.00    +0.000 S 
ENDBRANCH  22  23
ENDBRANCH  16  17
ENDBRANCH   3  16
TORSDOF 5
ENDMDL
MODEL 9
REMARK VINA RESULT:      -6.7      6.386      8.921
REMARK  Name = 
REMARK  6 active torsions:
REMARK  status: ('A' for Active; 'I' for Inactive)
REMARK    1  A    between atoms: C_1  and  N_2
REMARK    2  A    between atoms: N_2  and  C_15
REMARK    3  A    between atoms: C_3  and  C_5
REMARK    4  A    between atoms: C_5  and  C_6
REMARK    5  A    between atoms: C_11  and  N_12
REMARK    6  A    between atoms: C_20  and  N_21
REMARK                            x       y       z     vdW  Elec       q    Type
REMARK                         _______ _______ _______ _____ _____    ______ ____
ROOT
ATOM      1  C   UNL     1      -7.659  11.038  21.105  0.00  0.00    +0.000 C 
ATOM      2  N   UNL     1      -6.647  11.888  20.482  0.00  0.00    +0.000 N 
ATOM      3  C   UNL     1      -5.997  11.382  19.347  0.00  0.00    +0.000 C 
ATOM      4  O   UNL     1      -6.108  10.202  19.008  0.00  0.00    +0.000 OA
ENDROOT
BRANCH   2   5
ATOM      5  C   UNL     1      -6.415  13.239  21.084  0.00  0.00    +0.000 C 
ATOM      6  C   UNL     1      -7.578  14.173  20.675  0.00  0.00    +0.000 C 
ATOM      7  C   UNL     1      -7.490  15.555  21.307  0.00  0.00    +0.000 C 
ATOM      8  C   UNL     1      -7.420  15.440  22.817  0.00  0.00    +0.000 C 
ATOM      9  C   UNL     1      -6.188  14.651  23.238  0.00  0.00    +0.000 C 
ATOM     10  C   UNL     1      -6.166  13.226  22.646  0.00  0.00    +0.000 C 
BRANCH  10  11
ATOM     11  N   UNL     1      -4.991  12.413  23.057  0.00  0.00    +0.000 NA
ATOM     12  C   UNL     1      -4.679  12.479  24.491  0.00  0.00    +0.000 C 
ATOM     13  C   UNL     1      -3.571  13.509  24.631  0.00  0.00    +0.000 C 
ATOM     14  C   UNL     1      -2.791  13.388  23.337  0.00  0.00    +0.000 C 
ATOM     15  C   UNL     1      -3.718  12.655  22.368  0.00  0.00    +0.000 C 
ENDBRANCH  10  11
ENDBRANCH   2   5
BRANCH   3  16
ATOM     16  C   UNL     1      -5.065  12.319  18.596  0.00  0.00    +0.000 C 
BRANCH  16  17
ATOM     17  C   UNL     1      -4.068  11.668  17.651  0.00  0.00    +0.000 A 
ATOM     18  C   UNL     1      -4.518  11.291  16.371  0.00  0.00    +0.000 A 
ATOM     19  C   UNL     1      -3.750  10.459  15.563  0.00  0.00    +0.000 A 
ATOM     20  C   UNL     1      -2.520  10.003  16.018  0.00  0.00    +0.000 A 
ATOM     21  C   UNL     1      -2.029  10.434  17.252  0.00  0.00    +0.000 A 
ATOM     22  C   UNL     1      -2.771  11.298  18.081  0.00  0.00    +0.000 A 
BRANCH  22  23
ATOM     23  N   UNL     1      -2.326  11.709  19.361  0.00  0.00    +0.000 NA
ATOM     24  C   UNL     1      -1.374  12.400  19.413  0.00  0.00    +0.000 C 
ATOM     25  S   UNL     1      -0.069  13.300  19.547  0.00  0.00    +0.000 S 
ENDBRANCH  22  23
ENDBRANCH  16  17
ENDBRANCH   3  16
TORSDOF 5
ENDMDL
