MODEL 1
REMARK VINA RESULT:      -6.8      0.000      0.000
REMARK  Name = 
REMARK  3 active torsions:
REMARK  status: ('A' for Active; 'I' for Inactive)
REMARK    1  A    between atoms: C_1  and  C_2
REMARK    2  A    between atoms: C_6  and  C_7
REMARK    3  A    between atoms: C_16  and  O_17
REMARK                            x       y       z     vdW  Elec       q    Type
REMARK                         _______ _______ _______ _____ _____    ______ ____
ROOT
ATOM      1  C   UNL     1       5.683   4.067  16.063  0.00  0.00    +0.000 C 
ATOM      2  O   UNL     1       6.576   4.059  16.906  0.00  0.00    +0.000 OA
ATOM      3  N   UNL     1       4.333   4.014  16.332  0.00  0.00    +0.000 N 
ATOM      4  C   UNL     1       3.873   3.957  17.623  0.00  0.00    +0.000 A 
ATOM      5  N   UNL     1       4.532   4.108  18.744  0.00  0.00    +0.000 NA
ATOM      6  C   UNL     1       3.683   3.881  19.810  0.00  0.00    +0.000 A 
ATOM      7  C   UNL     1       2.393   3.573  19.453  0.00  0.00    +0.000 A 
ATOM      8 BR   UNL     1       1.034   3.149  20.660  0.00  0.00    +0.000 Br
ATOM      9  S   UNL     1       2.203   3.615  17.764  0.00  0.00    +0.000 S 
ATOM     10  H   UNL     1       3.639   3.893  15.614  0.00  0.00    +0.000 HD
ENDROOT
BRANCH   1  16
ATOM     11  C   UNL     1       8.647   6.020  12.493  0.00  0.00    +0.000 C 
ATOM     12  C   UNL     1       7.567   5.056  12.896  0.00  0.00    +0.000 A 
ATOM     13  C   UNL     1       6.957   4.235  11.942  0.00  0.00    +0.000 A 
ATOM     14  C   UNL     1       5.939   3.356  12.314  0.00  0.00    +0.000 A 
ATOM     15  C   UNL     1       5.512   3.287  13.644  0.00  0.00    +0.000 A 
ATOM     16  C   UNL     1       6.112   4.091  14.626  0.00  0.00    +0.000 A 
ATOM     17  C   UNL     1       7.144   4.971  14.232  0.00  0.00    +0.000 A 
BRANCH  17  18
ATOM     18  O   UNL     1       7.796   5.793  15.122  0.00  0.00    +0.000 OA
ATOM     19  H   UNL     1       7.526   6.722  14.936  0.00  0.00    +0.000 HD
ENDBRANCH  17  18
ENDBRANCH   1  16
TORSDOF 2
ENDMDL
MODEL 2
REMARK VINA RESULT:      -6.6      1.024      1.024
REMARK  Name = 
REMARK  3 active torsions:
REMARK  status: ('A' for Active; 'I' for Inactive)
REMARK    1  A    between atoms: C_1  and  C_2
REMARK    2  A    between atoms: C_6  and  C_7
REMARK    3  A    between atoms: C_16  and  O_17
REMARK                            x       y       z     vdW  Elec       q    Type
REMARK                         _______ _______ _______ _____ _____    ______ ____
ROOT
ATOM      1  C   UNL     1       5.016   4.802  16.046  0.00  0.00    +0.000 C 
ATOM      2  O   UNL     1       5.118   5.939  16.501  0.00  0.00    +0.000 OA
ATOM      3  N   UNL     1       4.369   3.753  16.662  0.00  0.00    +0.000 N 
ATOM      4  C   UNL     1       3.756   3.919  17.877  0.00  0.00    +0.000 A 
ATOM      5  N   UNL     1       3.525   5.021  18.545  0.00  0.00    +0.000 NA
ATOM      6  C   UNL     1       2.960   4.708  19.766  0.00  0.00    +0.000 A 
ATOM      7  C   UNL     1       2.771   3.364  19.978  0.00  0.00    +0.000 A 
ATOM      8 BR   UNL     1       2.094   2.627  21.552  0.00  0.00    +0.000 Br
ATOM      9  S   UNL     1       3.252   2.463  18.619  0.00  0.00    +0.000 S 
ATOM     10  H   UNL     1       4.417   2.808  16.320  0.00  0.00    +0.000 HD
ENDROOT
BRANCH   1  16
ATOM     11  C   UNL     1       8.930   5.624  12.988  0.00  0.00    +0.000 C 
ATOM     12  C   UNL     1       7.614   4.949  13.255  0.00  0.00    +0.000 A 
ATOM     13  C   UNL     1       7.027   4.130  12.287  0.00  0.00    +0.000 A 
ATOM     14  C   UNL     1       5.795   3.522  12.528  0.00  0.00    +0.000 A 
ATOM     15  C   UNL     1       5.127   3.727  13.740  0.00  0.00    +0.000 A 
ATOM     16  C   UNL     1       5.695   4.536  14.736  0.00  0.00    +0.000 A 
ATOM     17  C   UNL     1       6.946   5.140  14.476  0.00  0.00    +0.000 A 
BRANCH  17  18
ATOM     18  O   UNL     1       7.584   5.944  15.391  0.00  0.00    +0.000 OA
ATOM     19  H   UNL     1       7.355   5.624  16.294  0.00  0.00    +0.000 HD
ENDBRANCH  17  18
ENDBRANCH   1  16
TORSDOF 2
ENDMDL
MODEL 3
REMARK VINA RESULT:      -6.4      1.902      1.916
REMARK  Name = 
REMARK  3 active torsions:
REMARK  status: ('A' for Active; 'I' for Inactive)
REMARK    1  A    between atoms: C_1  and  C_2
REMARK    2  A    between atoms: C_6  and  C_7
REMARK    3  A    between atoms: C_16  and  O_17
REMARK                            x       y       z     vdW  Elec       q    Type
REMARK                         _______ _______ _______ _____ _____    ______ ____
ROOT
ATOM      1  C   UNL     1       5.124   4.411  15.985  0.00  0.00    +0.000 C 
ATOM      2  O   UNL     1       4.984   3.361  16.609  0.00  0.00    +0.000 OA
ATOM      3  N   UNL     1       4.699   5.651  16.407  0.00  0.00    +0.000 N 
ATOM      4  C   UNL     1       4.070   5.807  17.616  0.00  0.00    +0.000 A 
ATOM      5  N   UNL     1       3.922   4.945  18.589  0.00  0.00    +0.000 NA
ATOM      6  C   UNL     1       3.144   5.505  19.584  0.00  0.00    +0.000 A 
ATOM      7  C   UNL     1       2.734   6.791  19.330  0.00  0.00    +0.000 A 
ATOM      8 BR   UNL     1       1.622   7.787  20.447  0.00  0.00    +0.000 Br
ATOM      9  S   UNL     1       3.366   7.348  17.852  0.00  0.00    +0.000 S 
ATOM     10  H   UNL     1       4.716   6.463  15.813  0.00  0.00    +0.000 HD
ENDROOT
BRANCH   1  16
ATOM     11  C   UNL     1       8.810   5.842  12.869  0.00  0.00    +0.000 C 
ATOM     12  C   UNL     1       7.578   5.022  13.128  0.00  0.00    +0.000 A 
ATOM     13  C   UNL     1       7.033   4.223  12.118  0.00  0.00    +0.000 A 
ATOM     14  C   UNL     1       5.876   3.479  12.353  0.00  0.00    +0.000 A 
ATOM     15  C   UNL     1       5.243   3.527  13.599  0.00  0.00    +0.000 A 
ATOM     16  C   UNL     1       5.771   4.312  14.635  0.00  0.00    +0.000 A 
ATOM     17  C   UNL     1       6.946   5.054  14.381  0.00  0.00    +0.000 A 
BRANCH  17  18
ATOM     18  O   UNL     1       7.541   5.847  15.335  0.00  0.00    +0.000 OA
ATOM     19  H   UNL     1       6.843   6.404  15.750  0.00  0.00    +0.000 HD
ENDBRANCH  17  18
ENDBRANCH   1  16
TORSDOF 2
ENDMDL
MODEL 4
REMARK VINA RESULT:      -6.4      4.905      6.225
REMARK  Name = 
REMARK  3 active torsions:
REMARK  status: ('A' for Active; 'I' for Inactive)
REMARK    1  A    between atoms: C_1  and  C_2
REMARK    2  A    between atoms: C_6  and  C_7
REMARK    3  A    between atoms: C_16  and  O_17
REMARK                            x       y       z     vdW  Elec       q    Type
REMARK                         _______ _______ _______ _____ _____    ______ ____
ROOT
ATOM      1  C   UNL     1       2.685   7.768  18.078  0.00  0.00    +0.000 C 
ATOM      2  O   UNL     1       2.507   8.677  17.269  0.00  0.00    +0.000 OA
ATOM      3  N   UNL     1       2.130   7.702  19.336  0.00  0.00    +0.000 N 
ATOM      4  C   UNL     1       1.290   8.687  19.789  0.00  0.00    +0.000 A 
ATOM      5  N   UNL     1       0.757   9.687  19.133  0.00  0.00    +0.000 NA
ATOM      6  C   UNL     1       0.045  10.483  20.010  0.00  0.00    +0.000 A 
ATOM      7  C   UNL     1       0.056  10.047  21.312  0.00  0.00    +0.000 A 
ATOM      8 BR   UNL     1      -0.754  10.942  22.734  0.00  0.00    +0.000 Br
ATOM      9  S   UNL     1       0.920   8.589  21.456  0.00  0.00    +0.000 S 
ATOM     10  H   UNL     1       2.400   7.010  20.015  0.00  0.00    +0.000 HD
ENDROOT
BRANCH   1  16
ATOM     11  C   UNL     1       3.611   2.839  17.643  0.00  0.00    +0.000 C 
ATOM     12  C   UNL     1       4.058   4.262  17.461  0.00  0.00    +0.000 A 
ATOM     13  C   UNL     1       5.330   4.547  16.957  0.00  0.00    +0.000 A 
ATOM     14  C   UNL     1       5.752   5.868  16.809  0.00  0.00    +0.000 A 
ATOM     15  C   UNL     1       4.910   6.926  17.167  0.00  0.00    +0.000 A 
ATOM     16  C   UNL     1       3.623   6.673  17.665  0.00  0.00    +0.000 A 
ATOM     17  C   UNL     1       3.211   5.328  17.804  0.00  0.00    +0.000 A 
BRANCH  17  18
ATOM     18  O   UNL     1       1.967   4.980  18.278  0.00  0.00    +0.000 OA
ATOM     19  H   UNL     1       1.411   4.712  17.511  0.00  0.00    +0.000 HD
ENDBRANCH  17  18
ENDBRANCH   1  16
TORSDOF 2
ENDMDL
MODEL 5
REMARK VINA RESULT:      -6.1      5.190      6.799
REMARK  Name = 
REMARK  3 active torsions:
REMARK  status: ('A' for Active; 'I' for Inactive)
REMARK    1  A    between atoms: C_1  and  C_2
REMARK    2  A    between atoms: C_6  and  C_7
REMARK    3  A    between atoms: C_16  and  O_17
REMARK                            x       y       z     vdW  Elec       q    Type
REMARK                         _______ _______ _______ _____ _____    ______ ____
ROOT
ATOM      1  C   UNL     1       2.155   6.709  19.824  0.00  0.00    +0.000 C 
ATOM      2  O   UNL     1       1.850   6.138  20.869  0.00  0.00    +0.000 OA
ATOM      3  N   UNL     1       1.893   8.029  19.530  0.00  0.00    +0.000 N 
ATOM      4  C   UNL     1       1.252   8.837  20.434  0.00  0.00    +0.000 A 
ATOM      5  N   UNL     1       0.952   8.605  21.687  0.00  0.00    +0.000 NA
ATOM      6  C   UNL     1       0.227   9.667  22.190  0.00  0.00    +0.000 A 
ATOM      7  C   UNL     1       0.009  10.684  21.293  0.00  0.00    +0.000 A 
ATOM      8 BR   UNL     1      -0.991  12.217  21.652  0.00  0.00    +0.000 Br
ATOM      9  S   UNL     1       0.761  10.350  19.805  0.00  0.00    +0.000 S 
ATOM     10  H   UNL     1       2.043   8.424  18.618  0.00  0.00    +0.000 HD
ENDROOT
BRANCH   1  16
ATOM     11  C   UNL     1       2.596   2.272  17.487  0.00  0.00    +0.000 C 
ATOM     12  C   UNL     1       3.028   3.702  17.643  0.00  0.00    +0.000 A 
ATOM     13  C   UNL     1       4.057   4.222  16.852  0.00  0.00    +0.000 A 
ATOM     14  C   UNL     1       4.473   5.544  17.013  0.00  0.00    +0.000 A 
ATOM     15  C   UNL     1       3.869   6.366  17.971  0.00  0.00    +0.000 A 
ATOM     16  C   UNL     1       2.827   5.876  18.772  0.00  0.00    +0.000 A 
ATOM     17  C   UNL     1       2.416   4.536  18.592  0.00  0.00    +0.000 A 
BRANCH  17  18
ATOM     18  O   UNL     1       1.400   3.968  19.326  0.00  0.00    +0.000 OA
ATOM     19  H   UNL     1       1.774   3.669  20.187  0.00  0.00    +0.000 HD
ENDBRANCH  17  18
ENDBRANCH   1  16
TORSDOF 2
ENDMDL
MODEL 6
REMARK VINA RESULT:      -6.0      5.923      7.609
REMARK  Name = 
REMARK  3 active torsions:
REMARK  status: ('A' for Active; 'I' for Inactive)
REMARK    1  A    between atoms: C_1  and  C_2
REMARK    2  A    between atoms: C_6  and  C_7
REMARK    3  A    between atoms: C_16  and  O_17
REMARK                            x       y       z     vdW  Elec       q    Type
REMARK                         _______ _______ _______ _____ _____    ______ ____
ROOT
ATOM      1  C   UNL     1       2.378   7.134  19.495  0.00  0.00    +0.000 C 
ATOM      2  O   UNL     1       2.542   7.772  18.458  0.00  0.00    +0.000 OA
ATOM      3  N   UNL     1       1.672   7.569  20.595  0.00  0.00    +0.000 N 
ATOM      4  C   UNL     1       1.065   8.798  20.601  0.00  0.00    +0.000 A 
ATOM      5  N   UNL     1       0.894   9.643  19.616  0.00  0.00    +0.000 NA
ATOM      6  C   UNL     1       0.308  10.798  20.097  0.00  0.00    +0.000 A 
ATOM      7  C   UNL     1       0.044  10.783  21.445  0.00  0.00    +0.000 A 
ATOM      8 BR   UNL     1      -0.679  12.215  22.397  0.00  0.00    +0.000 Br
ATOM      9  S   UNL     1       0.477   9.289  22.131  0.00  0.00    +0.000 S 
ATOM     10  H   UNL     1       1.668   7.074  21.470  0.00  0.00    +0.000 HD
ENDROOT
BRANCH   1  16
ATOM     11  C   UNL     1       2.188   2.317  20.948  0.00  0.00    +0.000 C 
ATOM     12  C   UNL     1       2.935   3.444  20.292  0.00  0.00    +0.000 A 
ATOM     13  C   UNL     1       4.232   3.248  19.808  0.00  0.00    +0.000 A 
ATOM     14  C   UNL     1       4.932   4.301  19.218  0.00  0.00    +0.000 A 
ATOM     15  C   UNL     1       4.349   5.568  19.108  0.00  0.00    +0.000 A 
ATOM     16  C   UNL     1       3.045   5.793  19.575  0.00  0.00    +0.000 A 
ATOM     17  C   UNL     1       2.349   4.714  20.165  0.00  0.00    +0.000 A 
BRANCH  17  18
ATOM     18  O   UNL     1       1.066   4.835  20.646  0.00  0.00    +0.000 OA
ATOM     19  H   UNL     1       0.994   4.295  21.467  0.00  0.00    +0.000 HD
ENDBRANCH  17  18
ENDBRANCH   1  16
TORSDOF 2
ENDMDL
MODEL 7
REMARK VINA RESULT:      -6.0      3.414      7.012
REMARK  Name = 
REMARK  3 active torsions:
REMARK  status: ('A' for Active; 'I' for Inactive)
REMARK    1  A    between atoms: C_1  and  C_2
REMARK    2  A    between atoms: C_6  and  C_7
REMARK    3  A    between atoms: C_16  and  O_17
REMARK                            x       y       z     vdW  Elec       q    Type
REMARK                         _______ _______ _______ _____ _____    ______ ____
ROOT
ATOM      1  C   UNL     1       4.595   4.744  18.205  0.00  0.00    +0.000 C 
ATOM      2  O   UNL     1       5.569   5.188  18.807  0.00  0.00    +0.000 OA
ATOM      3  N   UNL     1       4.560   4.436  16.862  0.00  0.00    +0.000 N 
ATOM      4  C   UNL     1       5.669   4.602  16.073  0.00  0.00    +0.000 A 
ATOM      5  N   UNL     1       6.900   4.881  16.421  0.00  0.00    +0.000 NA
ATOM      6  C   UNL     1       7.673   5.042  15.287  0.00  0.00    +0.000 A 
ATOM      7  C   UNL     1       6.993   4.868  14.106  0.00  0.00    +0.000 A 
ATOM      8 BR   UNL     1       7.743   5.086  12.412  0.00  0.00    +0.000 Br
ATOM      9  S   UNL     1       5.373   4.442  14.396  0.00  0.00    +0.000 S 
ATOM     10  H   UNL     1       3.710   4.198  16.380  0.00  0.00    +0.000 HD
ENDROOT
BRANCH   1  16
ATOM     11  C   UNL     1       0.440   2.060  19.142  0.00  0.00    +0.000 C 
ATOM     12  C   UNL     1       1.309   3.249  19.441  0.00  0.00    +0.000 A 
ATOM     13  C   UNL     1       0.924   4.185  20.405  0.00  0.00    +0.000 A 
ATOM     14  C   UNL     1       1.721   5.300  20.666  0.00  0.00    +0.000 A 
ATOM     15  C   UNL     1       2.914   5.499  19.963  0.00  0.00    +0.000 A 
ATOM     16  C   UNL     1       3.333   4.572  18.997  0.00  0.00    +0.000 A 
ATOM     17  C   UNL     1       2.515   3.446  18.749  0.00  0.00    +0.000 A 
BRANCH  17  18
ATOM     18  O   UNL     1       2.844   2.481  17.826  0.00  0.00    +0.000 OA
ATOM     19  H   UNL     1       3.541   1.906  18.218  0.00  0.00    +0.000 HD
ENDBRANCH  17  18
ENDBRANCH   1  16
TORSDOF 2
ENDMDL
MODEL 8
REMARK VINA RESULT:      -6.0      5.700      7.456
REMARK  Name = 
REMARK  3 active torsions:
REMARK  status: ('A' for Active; 'I' for Inactive)
REMARK    1  A    between atoms: C_1  and  C_2
REMARK    2  A    between atoms: C_6  and  C_7
REMARK    3  A    between atoms: C_16  and  O_17
REMARK                            x       y       z     vdW  Elec       q    Type
REMARK                         _______ _______ _______ _____ _____    ______ ____
ROOT
ATOM      1  C   UNL     1       2.546   7.070  18.256  0.00  0.00    +0.000 C 
ATOM      2  O   UNL     1       3.453   7.430  17.510  0.00  0.00    +0.000 OA
ATOM      3  N   UNL     1       1.629   7.905  18.857  0.00  0.00    +0.000 N 
ATOM      4  C   UNL     1       1.663   9.259  18.642  0.00  0.00    +0.000 A 
ATOM      5  N   UNL     1       2.373   9.944  17.781  0.00  0.00    +0.000 NA
ATOM      6  C   UNL     1       2.152  11.294  17.975  0.00  0.00    +0.000 A 
ATOM      7  C   UNL     1       1.265  11.586  18.981  0.00  0.00    +0.000 A 
ATOM      8 BR   UNL     1       0.814  13.313  19.526  0.00  0.00    +0.000 Br
ATOM      9  S   UNL     1       0.642  10.164  19.674  0.00  0.00    +0.000 S 
ATOM     10  H   UNL     1       0.984   7.588  19.560  0.00  0.00    +0.000 HD
ENDROOT
BRANCH   1  16
ATOM     11  C   UNL     1       2.050   3.425  21.693  0.00  0.00    +0.000 C 
ATOM     12  C   UNL     1       2.227   3.838  20.259  0.00  0.00    +0.000 A 
ATOM     13  C   UNL     1       2.357   2.875  19.255  0.00  0.00    +0.000 A 
ATOM     14  C   UNL     1       2.543   3.260  17.927  0.00  0.00    +0.000 A 
ATOM     15  C   UNL     1       2.607   4.615  17.583  0.00  0.00    +0.000 A 
ATOM     16  C   UNL     1       2.470   5.605  18.567  0.00  0.00    +0.000 A 
ATOM     17  C   UNL     1       2.277   5.197  19.906  0.00  0.00    +0.000 A 
BRANCH  17  18
ATOM     18  O   UNL     1       2.127   6.092  20.939  0.00  0.00    +0.000 OA
ATOM     19  H   UNL     1       1.312   5.852  21.437  0.00  0.00    +0.000 HD
ENDBRANCH  17  18
ENDBRANCH   1  16
TORSDOF 2
ENDMDL
MODEL 9
REMARK VINA RESULT:      -6.0      5.757      8.757
REMARK  Name = 
REMARK  3 active torsions:
REMARK  status: ('A' for Active; 'I' for Inactive)
REMARK    1  A    between atoms: C_1  and  C_2
REMARK    2  A    between atoms: C_6  and  C_7
REMARK    3  A    between atoms: C_16  and  O_17
REMARK                            x       y       z     vdW  Elec       q    Type
REMARK                         _______ _______ _______ _____ _____    ______ ____
ROOT
ATOM      1  C   UNL     1       1.787   7.860  19.990  0.00  0.00    +0.000 C 
ATOM      2  O   UNL     1       2.288   8.301  18.957  0.00  0.00    +0.000 OA
ATOM      3  N   UNL     1       1.867   6.554  20.420  0.00  0.00    +0.000 N 
ATOM      4  C   UNL     1       2.554   5.614  19.695  0.00  0.00    +0.000 A 
ATOM      5  N   UNL     1       3.339   5.778  18.660  0.00  0.00    +0.000 NA
ATOM      6  C   UNL     1       3.748   4.543  18.194  0.00  0.00    +0.000 A 
ATOM      7  C   UNL     1       3.261   3.476  18.908  0.00  0.00    +0.000 A 
ATOM      8 BR   UNL     1       3.578   1.687  18.486  0.00  0.00    +0.000 Br
ATOM      9  S   UNL     1       2.317   4.004  20.221  0.00  0.00    +0.000 S 
ATOM     10  H   UNL     1       1.338   6.205  21.201  0.00  0.00    +0.000 HD
ENDROOT
BRANCH   1  16
ATOM     11  C   UNL     1      -1.349  11.794  20.172  0.00  0.00    +0.000 C 
ATOM     12  C   UNL     1      -0.543  10.746  20.886  0.00  0.00    +0.000 A 
ATOM     13  C   UNL     1      -0.513  10.703  22.283  0.00  0.00    +0.000 A 
ATOM     14  C   UNL     1       0.253   9.743  22.944  0.00  0.00    +0.000 A 
ATOM     15  C   UNL     1       1.006   8.813  22.219  0.00  0.00    +0.000 A 
ATOM     16  C   UNL     1       0.988   8.824  20.816  0.00  0.00    +0.000 A 
ATOM     17  C   UNL     1       0.202   9.800  20.163  0.00  0.00    +0.000 A 
BRANCH  17  18
ATOM     18  O   UNL     1       0.117   9.887  18.793  0.00  0.00    +0.000 OA
ATOM     19  H   UNL     1      -0.806   9.668  18.529  0.00  0.00    +0.000 HD
ENDBRANCH  17  18
ENDBRANCH   1  16
TORSDOF 2
ENDMDL
