MODEL 1
REMARK VINA RESULT:      -6.9      0.000      0.000
REMARK  Name = 
REMARK  13 active torsions:
REMARK  status: ('A' for Active; 'I' for Inactive)
REMARK    1  A    between atoms: C_1  and  C_2
REMARK    2  A    between atoms: C_2  and  C_3
REMARK    3  A    between atoms: C_3  and  C_4
REMARK    4  A    between atoms: C_3  and  C_6
REMARK    5  A    between atoms: C_4  and  C_5
REMARK    6  A    between atoms: N_8  and  C_9
REMARK    7  A    between atoms: N_8  and  C_10
REMARK    8  A    between atoms: C_11  and  C_12
REMARK    9  A    between atoms: C_15  and  O_16
REMARK   10  A    between atoms: O_16  and  C_17
REMARK   11  A    between atoms: C_17  and  C_18
REMARK   12  A    between atoms: C_18  and  O_19
REMARK   13  A    between atoms: O_19  and  C_20
REMARK                            x       y       z     vdW  Elec       q    Type
REMARK                         _______ _______ _______ _____ _____    ______ ____
ROOT
ATOM      1  C   UNL     1       0.409   9.972  20.507  0.00  0.00    +0.000 A 
ATOM      2  C   UNL     1       0.308   9.170  21.634  0.00  0.00    +0.000 A 
ATOM      3  C   UNL     1      -0.339   9.408  22.947  0.00  0.00    +0.000 C 
ATOM      4  N   UNL     1       1.014   7.996  21.462  0.00  0.00    +0.000 NA
ATOM      5  C   UNL     1       1.538   8.047  20.251  0.00  0.00    +0.000 A 
ATOM      6  C   UNL     1       2.350   7.118  19.505  0.00  0.00    +0.000 A 
ATOM      7  C   UNL     1       2.688   7.415  18.231  0.00  0.00    +0.000 A 
ATOM      8  C   UNL     1       2.281   8.655  17.601  0.00  0.00    +0.000 A 
ATOM      9  C   UNL     1       1.545   9.530  18.294  0.00  0.00    +0.000 A 
ATOM     10  N   UNL     1       1.191   9.241  19.615  0.00  0.00    +0.000 N 
ENDROOT
BRANCH   1  13
ATOM     11  C   UNL     1       0.600  12.405  20.776  0.00  0.00    +0.000 C 
ATOM     12  O   UNL     1       1.657  12.190  21.358  0.00  0.00    +0.000 OA
ATOM     13  N   UNL     1      -0.160  11.250  20.307  0.00  0.00    +0.000 N 
ATOM     14  C   UNL     1      -1.437  11.361  19.594  0.00  0.00    +0.000 C 
BRANCH  11  15
ATOM     15  C   UNL     1       0.096  13.829  20.536  0.00  0.00    +0.000 C 
BRANCH  15  17
ATOM     16  C   UNL     1      -0.798  14.169  22.943  0.00  0.00    +0.000 C 
ATOM     17  C   UNL     1       0.171  14.628  21.861  0.00  0.00    +0.000 C 
ENDBRANCH  15  17
BRANCH  15  18
ATOM     18  C   UNL     1       0.849  14.484  19.365  0.00  0.00    +0.000 C 
ATOM     19  C   UNL     1       1.968  15.436  19.769  0.00  0.00    +0.000 C 
ENDBRANCH  15  18
ENDBRANCH  11  15
ENDBRANCH   1  13
BRANCH   6  20
ATOM     20  O   UNL     1       2.685   5.968  20.186  0.00  0.00    +0.000 OA
BRANCH  20  21
ATOM     21  C   UNL     1       1.874   4.801  19.994  0.00  0.00    +0.000 C 
BRANCH  21  22
ATOM     22  C   UNL     1       2.438   3.964  18.852  0.00  0.00    +0.000 C 
BRANCH  22  23
ATOM     23  O   UNL     1       3.784   3.583  19.142  0.00  0.00    +0.000 OA
BRANCH  23  24
ATOM     24  C   UNL     1       4.725   3.996  18.233  0.00  0.00    +0.000 A 
ATOM     25  C   UNL     1       4.685   3.745  16.858  0.00  0.00    +0.000 A 
ATOM     26  C   UNL     1       5.708   4.201  16.025  0.00  0.00    +0.000 A 
ATOM     27  C   UNL     1       6.775   4.917  16.556  0.00  0.00    +0.000 A 
ATOM     28  C   UNL     1       6.818   5.185  17.923  0.00  0.00    +0.000 A 
ATOM     29  C   UNL     1       5.797   4.724  18.759  0.00  0.00    +0.000 A 
ENDBRANCH  23  24
ENDBRANCH  22  23
ENDBRANCH  21  22
ENDBRANCH  20  21
ENDBRANCH   6  20
TORSDOF 9
ENDMDL
MODEL 2
REMARK VINA RESULT:      -6.8      0.741      1.146
REMARK  Name = 
REMARK  13 active torsions:
REMARK  status: ('A' for Active; 'I' for Inactive)
REMARK    1  A    between atoms: C_1  and  C_2
REMARK    2  A    between atoms: C_2  and  C_3
REMARK    3  A    between atoms: C_3  and  C_4
REMARK    4  A    between atoms: C_3  and  C_6
REMARK    5  A    between atoms: C_4  and  C_5
REMARK    6  A    between atoms: N_8  and  C_9
REMARK    7  A    between atoms: N_8  and  C_10
REMARK    8  A    between atoms: C_11  and  C_12
REMARK    9  A    between atoms: C_15  and  O_16
REMARK   10  A    between atoms: O_16  and  C_17
REMARK   11  A    between atoms: C_17  and  C_18
REMARK   12  A    between atoms: C_18  and  O_19
REMARK   13  A    between atoms: O_19  and  C_20
REMARK                            x       y       z     vdW  Elec       q    Type
REMARK                         _______ _______ _______ _____ _____    ______ ____
ROOT
ATOM      1  C   UNL     1       0.412  10.202  20.590  0.00  0.00    +0.000 A 
ATOM      2  C   UNL     1       0.301   9.425  21.734  0.00  0.00    +0.000 A 
ATOM      3  C   UNL     1      -0.311   9.710  23.054  0.00  0.00    +0.000 C 
ATOM      4  N   UNL     1       0.958   8.222  21.570  0.00  0.00    +0.000 NA
ATOM      5  C   UNL     1       1.460   8.231  20.349  0.00  0.00    +0.000 A 
ATOM      6  C   UNL     1       2.222   7.259  19.606  0.00  0.00    +0.000 A 
ATOM      7  C   UNL     1       2.547   7.519  18.321  0.00  0.00    +0.000 A 
ATOM      8  C   UNL     1       2.176   8.763  17.675  0.00  0.00    +0.000 A 
ATOM      9  C   UNL     1       1.487   9.678  18.365  0.00  0.00    +0.000 A 
ATOM     10  N   UNL     1       1.148   9.426  19.698  0.00  0.00    +0.000 N 
ENDROOT
BRANCH   1  13
ATOM     11  C   UNL     1       0.749  12.632  20.699  0.00  0.00    +0.000 C 
ATOM     12  O   UNL     1       1.850  12.389  21.179  0.00  0.00    +0.000 OA
ATOM     13  N   UNL     1      -0.112  11.498  20.377  0.00  0.00    +0.000 N 
ATOM     14  C   UNL     1      -1.451  11.642  19.795  0.00  0.00    +0.000 C 
BRANCH  11  15
ATOM     15  C   UNL     1       0.294  14.067  20.431  0.00  0.00    +0.000 C 
BRANCH  15  17
ATOM     16  C   UNL     1      -1.678  15.162  21.705  0.00  0.00    +0.000 C 
ATOM     17  C   UNL     1      -0.229  14.692  21.748  0.00  0.00    +0.000 C 
ENDBRANCH  15  17
BRANCH  15  18
ATOM     18  C   UNL     1       1.413  14.877  19.752  0.00  0.00    +0.000 C 
ATOM     19  C   UNL     1       1.980  16.019  20.588  0.00  0.00    +0.000 C 
ENDBRANCH  15  18
ENDBRANCH  11  15
ENDBRANCH   1  13
BRANCH   6  20
ATOM     20  O   UNL     1       2.526   6.109  20.301  0.00  0.00    +0.000 OA
BRANCH  20  21
ATOM     21  C   UNL     1       2.146   4.848  19.733  0.00  0.00    +0.000 C 
BRANCH  21  22
ATOM     22  C   UNL     1       3.287   3.849  19.886  0.00  0.00    +0.000 C 
BRANCH  22  23
ATOM     23  O   UNL     1       3.835   3.532  18.605  0.00  0.00    +0.000 OA
BRANCH  23  24
ATOM     24  C   UNL     1       4.690   4.468  18.080  0.00  0.00    +0.000 A 
ATOM     25  C   UNL     1       5.734   5.087  18.772  0.00  0.00    +0.000 A 
ATOM     26  C   UNL     1       6.535   6.041  18.142  0.00  0.00    +0.000 A 
ATOM     27  C   UNL     1       6.304   6.380  16.813  0.00  0.00    +0.000 A 
ATOM     28  C   UNL     1       5.273   5.759  16.109  0.00  0.00    +0.000 A 
ATOM     29  C   UNL     1       4.468   4.807  16.741  0.00  0.00    +0.000 A 
ENDBRANCH  23  24
ENDBRANCH  22  23
ENDBRANCH  21  22
ENDBRANCH  20  21
ENDBRANCH   6  20
TORSDOF 9
ENDMDL
MODEL 3
REMARK VINA RESULT:      -6.8      1.184      1.572
REMARK  Name = 
REMARK  13 active torsions:
REMARK  status: ('A' for Active; 'I' for Inactive)
REMARK    1  A    between atoms: C_1  and  C_2
REMARK    2  A    between atoms: C_2  and  C_3
REMARK    3  A    between atoms: C_3  and  C_4
REMARK    4  A    between atoms: C_3  and  C_6
REMARK    5  A    between atoms: C_4  and  C_5
REMARK    6  A    between atoms: N_8  and  C_9
REMARK    7  A    between atoms: N_8  and  C_10
REMARK    8  A    between atoms: C_11  and  C_12
REMARK    9  A    between atoms: C_15  and  O_16
REMARK   10  A    between atoms: O_16  and  C_17
REMARK   11  A    between atoms: C_17  and  C_18
REMARK   12  A    between atoms: C_18  and  O_19
REMARK   13  A    between atoms: O_19  and  C_20
REMARK                            x       y       z     vdW  Elec       q    Type
REMARK                         _______ _______ _______ _____ _____    ______ ____
ROOT
ATOM      1  C   UNL     1       0.279  10.614  20.751  0.00  0.00    +0.000 A 
ATOM      2  C   UNL     1       0.116   9.783  21.849  0.00  0.00    +0.000 A 
ATOM      3  C   UNL     1      -0.505  10.025  23.174  0.00  0.00    +0.000 C 
ATOM      4  N   UNL     1       0.721   8.561  21.629  0.00  0.00    +0.000 NA
ATOM      5  C   UNL     1       1.244   8.613  20.418  0.00  0.00    +0.000 A 
ATOM      6  C   UNL     1       1.974   7.648  19.634  0.00  0.00    +0.000 A 
ATOM      7  C   UNL     1       2.331   7.962  18.370  0.00  0.00    +0.000 A 
ATOM      8  C   UNL     1       2.026   9.253  17.787  0.00  0.00    +0.000 A 
ATOM      9  C   UNL     1       1.367  10.160  18.516  0.00  0.00    +0.000 A 
ATOM     10  N   UNL     1       0.995   9.854  19.828  0.00  0.00    +0.000 N 
ENDROOT
BRANCH   1  13
ATOM     11  C   UNL     1       0.740  13.018  20.951  0.00  0.00    +0.000 C 
ATOM     12  O   UNL     1       1.835  12.701  21.400  0.00  0.00    +0.000 OA
ATOM     13  N   UNL     1      -0.182  11.941  20.600  0.00  0.00    +0.000 N 
ATOM     14  C   UNL     1      -1.522  12.175  20.050  0.00  0.00    +0.000 C 
BRANCH  11  15
ATOM     15  C   UNL     1       0.352  14.483  20.750  0.00  0.00    +0.000 C 
BRANCH  15  17
ATOM     16  C   UNL     1      -0.415  15.412  23.044  0.00  0.00    +0.000 C 
ATOM     17  C   UNL     1       0.711  15.286  22.025  0.00  0.00    +0.000 C 
ENDBRANCH  15  17
BRANCH  15  18
ATOM     18  C   UNL     1       0.978  15.041  19.460  0.00  0.00    +0.000 C 
ATOM     19  C   UNL     1       1.532  13.991  18.505  0.00  0.00    +0.000 C 
ENDBRANCH  15  18
ENDBRANCH  11  15
ENDBRANCH   1  13
BRANCH   6  20
ATOM     20  O   UNL     1       2.214   6.450  20.271  0.00  0.00    +0.000 OA
BRANCH  20  21
ATOM     21  C   UNL     1       2.326   5.264  19.473  0.00  0.00    +0.000 C 
BRANCH  21  22
ATOM     22  C   UNL     1       3.754   4.734  19.534  0.00  0.00    +0.000 C 
BRANCH  22  23
ATOM     23  O   UNL     1       4.385   4.881  18.260  0.00  0.00    +0.000 OA
BRANCH  23  24
ATOM     24  C   UNL     1       5.574   5.566  18.265  0.00  0.00    +0.000 A 
ATOM     25  C   UNL     1       6.658   5.296  19.105  0.00  0.00    +0.000 A 
ATOM     26  C   UNL     1       7.819   6.069  19.035  0.00  0.00    +0.000 A 
ATOM     27  C   UNL     1       7.908   7.114  18.121  0.00  0.00    +0.000 A 
ATOM     28  C   UNL     1       6.838   7.383  17.269  0.00  0.00    +0.000 A 
ATOM     29  C   UNL     1       5.674   6.612  17.342  0.00  0.00    +0.000 A 
ENDBRANCH  23  24
ENDBRANCH  22  23
ENDBRANCH  21  22
ENDBRANCH  20  21
ENDBRANCH   6  20
TORSDOF 9
ENDMDL
MODEL 4
REMARK VINA RESULT:      -6.8      0.875      1.162
REMARK  Name = 
REMARK  13 active torsions:
REMARK  status: ('A' for Active; 'I' for Inactive)
REMARK    1  A    between atoms: C_1  and  C_2
REMARK    2  A    between atoms: C_2  and  C_3
REMARK    3  A    between atoms: C_3  and  C_4
REMARK    4  A    between atoms: C_3  and  C_6
REMARK    5  A    between atoms: C_4  and  C_5
REMARK    6  A    between atoms: N_8  and  C_9
REMARK    7  A    between atoms: N_8  and  C_10
REMARK    8  A    between atoms: C_11  and  C_12
REMARK    9  A    between atoms: C_15  and  O_16
REMARK   10  A    between atoms: O_16  and  C_17
REMARK   11  A    between atoms: C_17  and  C_18
REMARK   12  A    between atoms: C_18  and  O_19
REMARK   13  A    between atoms: O_19  and  C_20
REMARK                            x       y       z     vdW  Elec       q    Type
REMARK                         _______ _______ _______ _____ _____    ______ ____
ROOT
ATOM      1  C   UNL     1       0.358  10.307  20.715  0.00  0.00    +0.000 A 
ATOM      2  C   UNL     1       0.346   9.459  21.813  0.00  0.00    +0.000 A 
ATOM      3  C   UNL     1      -0.182   9.646  23.186  0.00  0.00    +0.000 C 
ATOM      4  N   UNL     1       1.022   8.288  21.531  0.00  0.00    +0.000 NA
ATOM      5  C   UNL     1       1.439   8.386  20.283  0.00  0.00    +0.000 A 
ATOM      6  C   UNL     1       2.173   7.483  19.432  0.00  0.00    +0.000 A 
ATOM      7  C   UNL     1       2.403   7.830  18.147  0.00  0.00    +0.000 A 
ATOM      8  C   UNL     1       1.956   9.098  17.605  0.00  0.00    +0.000 A 
ATOM      9  C   UNL     1       1.292   9.949  18.395  0.00  0.00    +0.000 A 
ATOM     10  N   UNL     1       1.051   9.608  19.730  0.00  0.00    +0.000 N 
ENDROOT
BRANCH   1  13
ATOM     11  C   UNL     1       0.642  12.735  20.937  0.00  0.00    +0.000 C 
ATOM     12  O   UNL     1       1.783  12.498  21.317  0.00  0.00    +0.000 OA
ATOM     13  N   UNL     1      -0.213  11.596  20.617  0.00  0.00    +0.000 N 
ATOM     14  C   UNL     1      -1.597  11.733  20.149  0.00  0.00    +0.000 C 
BRANCH  11  15
ATOM     15  C   UNL     1       0.132  14.169  20.788  0.00  0.00    +0.000 C 
BRANCH  15  17
ATOM     16  C   UNL     1       1.585  15.933  22.008  0.00  0.00    +0.000 C 
ATOM     17  C   UNL     1       0.421  14.953  22.092  0.00  0.00    +0.000 C 
ENDBRANCH  15  17
BRANCH  15  18
ATOM     18  C   UNL     1       0.709  14.825  19.521  0.00  0.00    +0.000 C 
ATOM     19  C   UNL     1      -0.252  15.745  18.777  0.00  0.00    +0.000 C 
ENDBRANCH  15  18
ENDBRANCH  11  15
ENDBRANCH   1  13
BRANCH   6  20
ATOM     20  O   UNL     1       2.554   6.303  20.033  0.00  0.00    +0.000 OA
BRANCH  20  21
ATOM     21  C   UNL     1       3.002   5.226  19.199  0.00  0.00    +0.000 C 
BRANCH  21  22
ATOM     22  C   UNL     1       4.484   4.967  19.444  0.00  0.00    +0.000 C 
BRANCH  22  23
ATOM     23  O   UNL     1       4.921   3.852  18.663  0.00  0.00    +0.000 OA
BRANCH  23  24
ATOM     24  C   UNL     1       5.457   4.162  17.439  0.00  0.00    +0.000 A 
ATOM     25  C   UNL     1       4.803   4.021  16.211  0.00  0.00    +0.000 A 
ATOM     26  C   UNL     1       5.451   4.354  15.021  0.00  0.00    +0.000 A 
ATOM     27  C   UNL     1       6.755   4.837  15.046  0.00  0.00    +0.000 A 
ATOM     28  C   UNL     1       7.412   4.995  16.265  0.00  0.00    +0.000 A 
ATOM     29  C   UNL     1       6.765   4.657  17.458  0.00  0.00    +0.000 A 
ENDBRANCH  23  24
ENDBRANCH  22  23
ENDBRANCH  21  22
ENDBRANCH  20  21
ENDBRANCH   6  20
TORSDOF 9
ENDMDL
MODEL 5
REMARK VINA RESULT:      -6.8      1.335      1.801
REMARK  Name = 
REMARK  13 active torsions:
REMARK  status: ('A' for Active; 'I' for Inactive)
REMARK    1  A    between atoms: C_1  and  C_2
REMARK    2  A    between atoms: C_2  and  C_3
REMARK    3  A    between atoms: C_3  and  C_4
REMARK    4  A    between atoms: C_3  and  C_6
REMARK    5  A    between atoms: C_4  and  C_5
REMARK    6  A    between atoms: N_8  and  C_9
REMARK    7  A    between atoms: N_8  and  C_10
REMARK    8  A    between atoms: C_11  and  C_12
REMARK    9  A    between atoms: C_15  and  O_16
REMARK   10  A    between atoms: O_16  and  C_17
REMARK   11  A    between atoms: C_17  and  C_18
REMARK   12  A    between atoms: C_18  and  O_19
REMARK   13  A    between atoms: O_19  and  C_20
REMARK                            x       y       z     vdW  Elec       q    Type
REMARK                         _______ _______ _______ _____ _____    ______ ____
ROOT
ATOM      1  C   UNL     1       0.859   9.862  20.411  0.00  0.00    +0.000 A 
ATOM      2  C   UNL     1       0.636   9.107  21.552  0.00  0.00    +0.000 A 
ATOM      3  C   UNL     1       0.009   9.458  22.849  0.00  0.00    +0.000 C 
ATOM      4  N   UNL     1       1.181   7.845  21.415  0.00  0.00    +0.000 NA
ATOM      5  C   UNL     1       1.722   7.798  20.212  0.00  0.00    +0.000 A 
ATOM      6  C   UNL     1       2.413   6.753  19.499  0.00  0.00    +0.000 A 
ATOM      7  C   UNL     1       2.805   6.973  18.225  0.00  0.00    +0.000 A 
ATOM      8  C   UNL     1       2.576   8.241  17.563  0.00  0.00    +0.000 A 
ATOM      9  C   UNL     1       1.955   9.222  18.226  0.00  0.00    +0.000 A 
ATOM     10  N   UNL     1       1.548   9.014  19.547  0.00  0.00    +0.000 N 
ENDROOT
BRANCH   1  13
ATOM     11  C   UNL     1      -0.790  11.420  19.470  0.00  0.00    +0.000 C 
ATOM     12  O   UNL     1      -1.402  10.431  19.084  0.00  0.00    +0.000 OA
ATOM     13  N   UNL     1       0.470  11.200  20.175  0.00  0.00    +0.000 N 
ATOM     14  C   UNL     1       1.304  12.291  20.693  0.00  0.00    +0.000 C 
BRANCH  11  15
ATOM     15  C   UNL     1      -1.326  12.832  19.237  0.00  0.00    +0.000 C 
BRANCH  15  17
ATOM     16  C   UNL     1      -2.578  12.576  21.490  0.00  0.00    +0.000 C 
ATOM     17  C   UNL     1      -1.717  13.462  20.597  0.00  0.00    +0.000 C 
ENDBRANCH  15  17
BRANCH  15  18
ATOM     18  C   UNL     1      -0.323  13.670  18.423  0.00  0.00    +0.000 C 
ATOM     19  C   UNL     1      -0.208  15.129  18.847  0.00  0.00    +0.000 C 
ENDBRANCH  15  18
ENDBRANCH  11  15
ENDBRANCH   1  13
BRANCH   6  20
ATOM     20  O   UNL     1       2.581   5.584  20.208  0.00  0.00    +0.000 OA
BRANCH  20  21
ATOM     21  C   UNL     1       2.422   4.337  19.517  0.00  0.00    +0.000 C 
BRANCH  21  22
ATOM     22  C   UNL     1       3.660   3.472  19.722  0.00  0.00    +0.000 C 
BRANCH  22  23
ATOM     23  O   UNL     1       4.304   3.235  18.468  0.00  0.00    +0.000 OA
BRANCH  23  24
ATOM     24  C   UNL     1       5.123   4.243  18.024  0.00  0.00    +0.000 A 
ATOM     25  C   UNL     1       6.011   4.971  18.821  0.00  0.00    +0.000 A 
ATOM     26  C   UNL     1       6.789   5.989  18.266  0.00  0.00    +0.000 A 
ATOM     27  C   UNL     1       6.692   6.283  16.910  0.00  0.00    +0.000 A 
ATOM     28  C   UNL     1       5.819   5.554  16.104  0.00  0.00    +0.000 A 
ATOM     29  C   UNL     1       5.036   4.537  16.660  0.00  0.00    +0.000 A 
ENDBRANCH  23  24
ENDBRANCH  22  23
ENDBRANCH  21  22
ENDBRANCH  20  21
ENDBRANCH   6  20
TORSDOF 9
ENDMDL
MODEL 6
REMARK VINA RESULT:      -6.7      0.840      1.400
REMARK  Name = 
REMARK  13 active torsions:
REMARK  status: ('A' for Active; 'I' for Inactive)
REMARK    1  A    between atoms: C_1  and  C_2
REMARK    2  A    between atoms: C_2  and  C_3
REMARK    3  A    between atoms: C_3  and  C_4
REMARK    4  A    between atoms: C_3  and  C_6
REMARK    5  A    between atoms: C_4  and  C_5
REMARK    6  A    between atoms: N_8  and  C_9
REMARK    7  A    between atoms: N_8  and  C_10
REMARK    8  A    between atoms: C_11  and  C_12
REMARK    9  A    between atoms: C_15  and  O_16
REMARK   10  A    between atoms: O_16  and  C_17
REMARK   11  A    between atoms: C_17  and  C_18
REMARK   12  A    between atoms: C_18  and  O_19
REMARK   13  A    between atoms: O_19  and  C_20
REMARK                            x       y       z     vdW  Elec       q    Type
REMARK                         _______ _______ _______ _____ _____    ______ ____
ROOT
ATOM      1  C   UNL     1       0.564  10.472  20.424  0.00  0.00    +0.000 A 
ATOM      2  C   UNL     1       0.320   9.753  21.584  0.00  0.00    +0.000 A 
ATOM      3  C   UNL     1      -0.333  10.145  22.858  0.00  0.00    +0.000 C 
ATOM      4  N   UNL     1       0.868   8.489  21.498  0.00  0.00    +0.000 NA
ATOM      5  C   UNL     1       1.433   8.404  20.309  0.00  0.00    +0.000 A 
ATOM      6  C   UNL     1       2.138   7.337  19.643  0.00  0.00    +0.000 A 
ATOM      7  C   UNL     1       2.554   7.517  18.370  0.00  0.00    +0.000 A 
ATOM      8  C   UNL     1       2.338   8.764  17.663  0.00  0.00    +0.000 A 
ATOM      9  C   UNL     1       1.702   9.764  18.282  0.00  0.00    +0.000 A 
ATOM     10  N   UNL     1       1.270   9.597  19.602  0.00  0.00    +0.000 N 
ENDROOT
BRANCH   1  13
ATOM     11  C   UNL     1       1.072  12.870  20.576  0.00  0.00    +0.000 C 
ATOM     12  O   UNL     1       2.072  12.549  21.206  0.00  0.00    +0.000 OA
ATOM     13  N   UNL     1       0.178  11.801  20.138  0.00  0.00    +0.000 N 
ATOM     14  C   UNL     1      -1.051  12.041  19.374  0.00  0.00    +0.000 C 
BRANCH  11  15
ATOM     15  C   UNL     1       0.772  14.332  20.245  0.00  0.00    +0.000 C 
BRANCH  15  17
ATOM     16  C   UNL     1       2.185  16.168  21.404  0.00  0.00    +0.000 C 
ATOM     17  C   UNL     1       1.012  15.201  21.505  0.00  0.00    +0.000 C 
ENDBRANCH  15  17
BRANCH  15  18
ATOM     18  C   UNL     1       1.566  14.787  19.008  0.00  0.00    +0.000 C 
ATOM     19  C   UNL     1       2.199  13.661  18.199  0.00  0.00    +0.000 C 
ENDBRANCH  15  18
ENDBRANCH  11  15
ENDBRANCH   1  13
BRANCH   6  20
ATOM     20  O   UNL     1       2.293   6.192  20.392  0.00  0.00    +0.000 OA
BRANCH  20  21
ATOM     21  C   UNL     1       1.968   4.932  19.788  0.00  0.00    +0.000 C 
BRANCH  21  22
ATOM     22  C   UNL     1       3.003   3.887  20.188  0.00  0.00    +0.000 C 
BRANCH  22  23
ATOM     23  O   UNL     1       3.615   3.332  19.022  0.00  0.00    +0.000 OA
BRANCH  23  24
ATOM     24  C   UNL     1       4.479   4.165  18.355  0.00  0.00    +0.000 A 
ATOM     25  C   UNL     1       5.520   4.888  18.944  0.00  0.00    +0.000 A 
ATOM     26  C   UNL     1       6.331   5.719  18.170  0.00  0.00    +0.000 A 
ATOM     27  C   UNL     1       6.113   5.830  16.801  0.00  0.00    +0.000 A 
ATOM     28  C   UNL     1       5.086   5.104  16.201  0.00  0.00    +0.000 A 
ATOM     29  C   UNL     1       4.271   4.274  16.976  0.00  0.00    +0.000 A 
ENDBRANCH  23  24
ENDBRANCH  22  23
ENDBRANCH  21  22
ENDBRANCH  20  21
ENDBRANCH   6  20
TORSDOF 9
ENDMDL
MODEL 7
REMARK VINA RESULT:      -6.7      1.450      2.371
REMARK  Name = 
REMARK  13 active torsions:
REMARK  status: ('A' for Active; 'I' for Inactive)
REMARK    1  A    between atoms: C_1  and  C_2
REMARK    2  A    between atoms: C_2  and  C_3
REMARK    3  A    between atoms: C_3  and  C_4
REMARK    4  A    between atoms: C_3  and  C_6
REMARK    5  A    between atoms: C_4  and  C_5
REMARK    6  A    between atoms: N_8  and  C_9
REMARK    7  A    between atoms: N_8  and  C_10
REMARK    8  A    between atoms: C_11  and  C_12
REMARK    9  A    between atoms: C_15  and  O_16
REMARK   10  A    between atoms: O_16  and  C_17
REMARK   11  A    between atoms: C_17  and  C_18
REMARK   12  A    between atoms: C_18  and  O_19
REMARK   13  A    between atoms: O_19  and  C_20
REMARK                            x       y       z     vdW  Elec       q    Type
REMARK                         _______ _______ _______ _____ _____    ______ ____
ROOT
ATOM      1  C   UNL     1       0.871   9.693  20.555  0.00  0.00    +0.000 A 
ATOM      2  C   UNL     1       0.748   8.875  21.668  0.00  0.00    +0.000 A 
ATOM      3  C   UNL     1       0.173   9.131  23.011  0.00  0.00    +0.000 C 
ATOM      4  N   UNL     1       1.349   7.653  21.443  0.00  0.00    +0.000 NA
ATOM      5  C   UNL     1       1.828   7.691  20.213  0.00  0.00    +0.000 A 
ATOM      6  C   UNL     1       2.533   6.718  19.416  0.00  0.00    +0.000 A 
ATOM      7  C   UNL     1       2.845   7.017  18.136  0.00  0.00    +0.000 A 
ATOM      8  C   UNL     1       2.516   8.301  17.549  0.00  0.00    +0.000 A 
ATOM      9  C   UNL     1       1.880   9.215  18.289  0.00  0.00    +0.000 A 
ATOM     10  N   UNL     1       1.555   8.924  19.618  0.00  0.00    +0.000 N 
ENDROOT
BRANCH   1  13
ATOM     11  C   UNL     1      -0.852  11.208  19.679  0.00  0.00    +0.000 C 
ATOM     12  O   UNL     1      -1.388  10.213  19.204  0.00  0.00    +0.000 OA
ATOM     13  N   UNL     1       0.400  11.017  20.405  0.00  0.00    +0.000 N 
ATOM     14  C   UNL     1       1.146  12.117  21.027  0.00  0.00    +0.000 C 
BRANCH  11  15
ATOM     15  C   UNL     1      -1.474  12.597  19.532  0.00  0.00    +0.000 C 
BRANCH  15  17
ATOM     16  C   UNL     1      -0.248  14.709  18.667  0.00  0.00    +0.000 C 
ATOM     17  C   UNL     1      -0.810  13.331  18.340  0.00  0.00    +0.000 C 
ENDBRANCH  15  17
BRANCH  15  18
ATOM     18  C   UNL     1      -3.007  12.502  19.436  0.00  0.00    +0.000 C 
ATOM     19  C   UNL     1      -3.770  13.313  20.476  0.00  0.00    +0.000 C 
ENDBRANCH  15  18
ENDBRANCH  11  15
ENDBRANCH   1  13
BRANCH   6  20
ATOM     20  O   UNL     1       2.799   5.529  20.058  0.00  0.00    +0.000 OA
BRANCH  20  21
ATOM     21  C   UNL     1       2.251   4.321  19.512  0.00  0.00    +0.000 C 
BRANCH  21  22
ATOM     22  C   UNL     1       3.317   3.590  18.704  0.00  0.00    +0.000 C 
BRANCH  22  23
ATOM     23  O   UNL     1       4.601   3.779  19.303  0.00  0.00    +0.000 OA
BRANCH  23  24
ATOM     24  C   UNL     1       5.487   4.535  18.576  0.00  0.00    +0.000 A 
ATOM     25  C   UNL     1       6.446   5.397  19.116  0.00  0.00    +0.000 A 
ATOM     26  C   UNL     1       7.289   6.131  18.280  0.00  0.00    +0.000 A 
ATOM     27  C   UNL     1       7.186   6.006  16.899  0.00  0.00    +0.000 A 
ATOM     28  C   UNL     1       6.242   5.139  16.350  0.00  0.00    +0.000 A 
ATOM     29  C   UNL     1       5.395   4.407  17.187  0.00  0.00    +0.000 A 
ENDBRANCH  23  24
ENDBRANCH  22  23
ENDBRANCH  21  22
ENDBRANCH  20  21
ENDBRANCH   6  20
TORSDOF 9
ENDMDL
MODEL 8
REMARK VINA RESULT:      -6.7      1.099      1.238
REMARK  Name = 
REMARK  13 active torsions:
REMARK  status: ('A' for Active; 'I' for Inactive)
REMARK    1  A    between atoms: C_1  and  C_2
REMARK    2  A    between atoms: C_2  and  C_3
REMARK    3  A    between atoms: C_3  and  C_4
REMARK    4  A    between atoms: C_3  and  C_6
REMARK    5  A    between atoms: C_4  and  C_5
REMARK    6  A    between atoms: N_8  and  C_9
REMARK    7  A    between atoms: N_8  and  C_10
REMARK    8  A    between atoms: C_11  and  C_12
REMARK    9  A    between atoms: C_15  and  O_16
REMARK   10  A    between atoms: O_16  and  C_17
REMARK   11  A    between atoms: C_17  and  C_18
REMARK   12  A    between atoms: C_18  and  O_19
REMARK   13  A    between atoms: O_19  and  C_20
REMARK                            x       y       z     vdW  Elec       q    Type
REMARK                         _______ _______ _______ _____ _____    ______ ____
ROOT
ATOM      1  C   UNL     1       0.318  10.416  20.772  0.00  0.00    +0.000 A 
ATOM      2  C   UNL     1       0.283   9.573  21.873  0.00  0.00    +0.000 A 
ATOM      3  C   UNL     1      -0.251   9.774  23.242  0.00  0.00    +0.000 C 
ATOM      4  N   UNL     1       0.939   8.389  21.600  0.00  0.00    +0.000 NA
ATOM      5  C   UNL     1       1.367   8.475  20.354  0.00  0.00    +0.000 A 
ATOM      6  C   UNL     1       2.091   7.556  19.511  0.00  0.00    +0.000 A 
ATOM      7  C   UNL     1       2.335   7.894  18.227  0.00  0.00    +0.000 A 
ATOM      8  C   UNL     1       1.915   9.168  17.678  0.00  0.00    +0.000 A 
ATOM      9  C   UNL     1       1.261  10.033  18.460  0.00  0.00    +0.000 A 
ATOM     10  N   UNL     1       1.005   9.701  19.794  0.00  0.00    +0.000 N 
ENDROOT
BRANCH   1  13
ATOM     11  C   UNL     1       0.667  12.843  20.909  0.00  0.00    +0.000 C 
ATOM     12  O   UNL     1       1.820  12.590  21.236  0.00  0.00    +0.000 OA
ATOM     13  N   UNL     1      -0.229  11.715  20.667  0.00  0.00    +0.000 N 
ATOM     14  C   UNL     1      -1.632  11.872  20.266  0.00  0.00    +0.000 C 
BRANCH  11  15
ATOM     15  C   UNL     1       0.181  14.283  20.744  0.00  0.00    +0.000 C 
BRANCH  15  17
ATOM     16  C   UNL     1      -1.298  15.822  22.212  0.00  0.00    +0.000 C 
ATOM     17  C   UNL     1      -0.092  14.894  22.141  0.00  0.00    +0.000 C 
ENDBRANCH  15  17
BRANCH  15  18
ATOM     18  C   UNL     1       1.165  15.096  19.885  0.00  0.00    +0.000 C 
ATOM     19  C   UNL     1       2.113  15.997  20.668  0.00  0.00    +0.000 C 
ENDBRANCH  15  18
ENDBRANCH  11  15
ENDBRANCH   1  13
BRANCH   6  20
ATOM     20  O   UNL     1       2.445   6.371  20.119  0.00  0.00    +0.000 OA
BRANCH  20  21
ATOM     21  C   UNL     1       2.477   5.179  19.323  0.00  0.00    +0.000 C 
BRANCH  21  22
ATOM     22  C   UNL     1       3.851   4.527  19.427  0.00  0.00    +0.000 C 
BRANCH  22  23
ATOM     23  O   UNL     1       4.864   5.451  19.023  0.00  0.00    +0.000 OA
BRANCH  23  24
ATOM     24  C   UNL     1       5.195   5.421  17.691  0.00  0.00    +0.000 A 
ATOM     25  C   UNL     1       4.915   6.430  16.766  0.00  0.00    +0.000 A 
ATOM     26  C   UNL     1       5.286   6.288  15.428  0.00  0.00    +0.000 A 
ATOM     27  C   UNL     1       5.945   5.138  15.004  0.00  0.00    +0.000 A 
ATOM     28  C   UNL     1       6.241   4.131  15.921  0.00  0.00    +0.000 A 
ATOM     29  C   UNL     1       5.866   4.272  17.261  0.00  0.00    +0.000 A 
ENDBRANCH  23  24
ENDBRANCH  22  23
ENDBRANCH  21  22
ENDBRANCH  20  21
ENDBRANCH   6  20
TORSDOF 9
ENDMDL
MODEL 9
REMARK VINA RESULT:      -6.7      4.193      8.756
REMARK  Name = 
REMARK  13 active torsions:
REMARK  status: ('A' for Active; 'I' for Inactive)
REMARK    1  A    between atoms: C_1  and  C_2
REMARK    2  A    between atoms: C_2  and  C_3
REMARK    3  A    between atoms: C_3  and  C_4
REMARK    4  A    between atoms: C_3  and  C_6
REMARK    5  A    between atoms: C_4  and  C_5
REMARK    6  A    between atoms: N_8  and  C_9
REMARK    7  A    between atoms: N_8  and  C_10
REMARK    8  A    between atoms: C_11  and  C_12
REMARK    9  A    between atoms: C_15  and  O_16
REMARK   10  A    between atoms: O_16  and  C_17
REMARK   11  A    between atoms: C_17  and  C_18
REMARK   12  A    between atoms: C_18  and  O_19
REMARK   13  A    between atoms: O_19  and  C_20
REMARK                            x       y       z     vdW  Elec       q    Type
REMARK                         _______ _______ _______ _____ _____    ______ ____
ROOT
ATOM      1  C   UNL     1       5.191   4.576  17.234  0.00  0.00    +0.000 A 
ATOM      2  C   UNL     1       5.874   4.818  18.417  0.00  0.00    +0.000 A 
ATOM      3  C   UNL     1       7.093   5.617  18.694  0.00  0.00    +0.000 C 
ATOM      4  N   UNL     1       5.313   4.107  19.458  0.00  0.00    +0.000 NA
ATOM      5  C   UNL     1       4.292   3.442  18.952  0.00  0.00    +0.000 A 
ATOM      6  C   UNL     1       3.323   2.554  19.544  0.00  0.00    +0.000 A 
ATOM      7  C   UNL     1       2.325   2.062  18.778  0.00  0.00    +0.000 A 
ATOM      8  C   UNL     1       2.216   2.380  17.368  0.00  0.00    +0.000 A 
ATOM      9  C   UNL     1       3.124   3.187  16.807  0.00  0.00    +0.000 A 
ATOM     10  N   UNL     1       4.167   3.699  17.585  0.00  0.00    +0.000 N 
ENDROOT
BRANCH   1  13
ATOM     11  C   UNL     1       6.011   4.191  14.952  0.00  0.00    +0.000 C 
ATOM     12  O   UNL     1       6.233   3.037  15.300  0.00  0.00    +0.000 OA
ATOM     13  N   UNL     1       5.471   5.105  15.954  0.00  0.00    +0.000 N 
ATOM     14  C   UNL     1       5.155   6.511  15.676  0.00  0.00    +0.000 C 
BRANCH  11  15
ATOM     15  C   UNL     1       6.274   4.659  13.520  0.00  0.00    +0.000 C 
BRANCH  15  17
ATOM     16  C   UNL     1       8.143   5.969  12.295  0.00  0.00    +0.000 C 
ATOM     17  C   UNL     1       7.791   4.914  13.336  0.00  0.00    +0.000 C 
ENDBRANCH  15  17
BRANCH  15  18
ATOM     18  C   UNL     1       5.676   3.670  12.504  0.00  0.00    +0.000 C 
ATOM     19  C   UNL     1       6.691   2.782  11.794  0.00  0.00    +0.000 C 
ENDBRANCH  15  18
ENDBRANCH  11  15
ENDBRANCH   1  13
BRANCH   6  20
ATOM     20  O   UNL     1       3.505   2.313  20.889  0.00  0.00    +0.000 OA
BRANCH  20  21
ATOM     21  C   UNL     1       2.493   2.753  21.804  0.00  0.00    +0.000 C 
BRANCH  21  22
ATOM     22  C   UNL     1       2.413   4.275  21.793  0.00  0.00    +0.000 C 
BRANCH  22  23
ATOM     23  O   UNL     1       1.415   4.706  20.865  0.00  0.00    +0.000 OA
BRANCH  23  24
ATOM     24  C   UNL     1       1.606   5.956  20.330  0.00  0.00    +0.000 A 
ATOM     25  C   UNL     1       1.334   7.163  20.981  0.00  0.00    +0.000 A 
ATOM     26  C   UNL     1       1.552   8.380  20.334  0.00  0.00    +0.000 A 
ATOM     27  C   UNL     1       2.050   8.403  19.035  0.00  0.00    +0.000 A 
ATOM     28  C   UNL     1       2.337   7.205  18.382  0.00  0.00    +0.000 A 
ATOM     29  C   UNL     1       2.114   5.985  19.028  0.00  0.00    +0.000 A 
ENDBRANCH  23  24
ENDBRANCH  22  23
ENDBRANCH  21  22
ENDBRANCH  20  21
ENDBRANCH   6  20
TORSDOF 9
ENDMDL
