MODEL 1
REMARK VINA RESULT:      -7.3      0.000      0.000
REMARK  Name = 
REMARK  7 active torsions:
REMARK  status: ('A' for Active; 'I' for Inactive)
REMARK    1  A    between atoms: C_1  and  C_2
REMARK    2  A    between atoms: C_6  and  C_7
REMARK    3  A    between atoms: C_15  and  C_16
REMARK    4  A    between atoms: C_16  and  N_17
REMARK    5  A    between atoms: N_20  and  C_21
REMARK    6  A    between atoms: C_21  and  C_22
REMARK    7  A    between atoms: C_22  and  O_24
REMARK                            x       y       z     vdW  Elec       q    Type
REMARK                         _______ _______ _______ _____ _____    ______ ____
ROOT
ATOM      1  C   UNL     1       2.337   2.967  21.705  0.00  0.00    +0.000 C 
ATOM      2  C   UNL     1       2.690   3.964  20.637  0.00  0.00    +0.000 A 
ATOM      3  N   UNL     1       1.969   5.111  20.748  0.00  0.00    +0.000 NA
ATOM      4  C   UNL     1       2.270   6.089  19.892  0.00  0.00    +0.000 A 
ATOM      5  C   UNL     1       3.281   6.028  18.945  0.00  0.00    +0.000 A 
ATOM      6  C   UNL     1       3.980   4.837  18.715  0.00  0.00    +0.000 A 
ATOM      7  C   UNL     1       3.667   3.744  19.621  0.00  0.00    +0.000 A 
ATOM      8  C   UNL     1       3.267   7.338  18.256  0.00  0.00    +0.000 C 
ATOM      9  O   UNL     1       4.137   7.849  17.575  0.00  0.00    +0.000 OA
ATOM     10  N   UNL     1       2.065   7.935  18.565  0.00  0.00    +0.000 N 
ATOM     11  C   UNL     1       1.469   7.354  19.749  0.00  0.00    +0.000 C 
ENDROOT
BRANCH   6  12
ATOM     12  C   UNL     1       4.922   4.701  17.549  0.00  0.00    +0.000 A 
ATOM     13  C   UNL     1       4.428   4.315  16.281  0.00  0.00    +0.000 A 
ATOM     14  C   UNL     1       5.227   4.327  15.131  0.00  0.00    +0.000 A 
ATOM     15  C   UNL     1       6.585   4.581  15.237  0.00  0.00    +0.000 A 
ATOM     16 CL   UNL     1       7.573   4.581  13.831  0.00  0.00    +0.000 Cl
ATOM     17  C   UNL     1       7.139   4.870  16.474  0.00  0.00    +0.000 A 
ATOM     18  C   UNL     1       6.311   4.998  17.602  0.00  0.00    +0.000 A 
ATOM     19 CL   UNL     1       7.091   5.679  18.998  0.00  0.00    +0.000 Cl
ENDBRANCH   6  12
BRANCH   7  20
ATOM     20  C   UNL     1       4.435   2.430  19.507  0.00  0.00    +0.000 C 
BRANCH  20  21
ATOM     21  N   UNL     1       3.941   1.399  18.601  0.00  0.00    +0.000 NA
ATOM     22  H   UNL     1       4.551   0.584  18.654  0.00  0.00    +0.000 HD
ATOM     23  H   UNL     1       4.054   1.730  17.641  0.00  0.00    +0.000 HD
ENDBRANCH  20  21
ENDBRANCH   7  20
BRANCH  10  24
ATOM     24  C   UNL     1       1.448   9.030  17.834  0.00  0.00    +0.000 C 
BRANCH  24  25
ATOM     25  C   UNL     1       1.635  10.353  18.543  0.00  0.00    +0.000 C 
ATOM     26  O   UNL     1       1.124  10.632  19.617  0.00  0.00    +0.000 OA
BRANCH  25  27
ATOM     27  O   UNL     1       2.349  11.245  17.819  0.00  0.00    +0.000 OA
ATOM     28  H   UNL     1       1.847  11.582  17.046  0.00  0.00    +0.000 HD
ENDBRANCH  25  27
ENDBRANCH  24  25
ENDBRANCH  10  24
TORSDOF 6
ENDMDL
MODEL 2
REMARK VINA RESULT:      -6.4      1.003      1.102
REMARK  Name = 
REMARK  7 active torsions:
REMARK  status: ('A' for Active; 'I' for Inactive)
REMARK    1  A    between atoms: C_1  and  C_2
REMARK    2  A    between atoms: C_6  and  C_7
REMARK    3  A    between atoms: C_15  and  C_16
REMARK    4  A    between atoms: C_16  and  N_17
REMARK    5  A    between atoms: N_20  and  C_21
REMARK    6  A    between atoms: C_21  and  C_22
REMARK    7  A    between atoms: C_22  and  O_24
REMARK                            x       y       z     vdW  Elec       q    Type
REMARK                         _______ _______ _______ _____ _____    ______ ____
ROOT
ATOM      1  C   UNL     1       1.583   2.510  20.241  0.00  0.00    +0.000 C 
ATOM      2  C   UNL     1       2.230   3.617  19.458  0.00  0.00    +0.000 A 
ATOM      3  N   UNL     1       1.745   4.839  19.801  0.00  0.00    +0.000 NA
ATOM      4  C   UNL     1       2.318   5.893  19.214  0.00  0.00    +0.000 A 
ATOM      5  C   UNL     1       3.383   5.824  18.330  0.00  0.00    +0.000 A 
ATOM      6  C   UNL     1       3.848   4.591  17.860  0.00  0.00    +0.000 A 
ATOM      7  C   UNL     1       3.237   3.419  18.466  0.00  0.00    +0.000 A 
ATOM      8  C   UNL     1       3.697   7.225  17.969  0.00  0.00    +0.000 C 
ATOM      9  O   UNL     1       4.714   7.673  17.471  0.00  0.00    +0.000 OA
ATOM     10  N   UNL     1       2.615   7.986  18.352  0.00  0.00    +0.000 N 
ATOM     11  C   UNL     1       1.803   7.301  19.336  0.00  0.00    +0.000 C 
ENDROOT
BRANCH   6  12
ATOM     12  C   UNL     1       4.853   4.514  16.741  0.00  0.00    +0.000 A 
ATOM     13  C   UNL     1       4.416   4.329  15.409  0.00  0.00    +0.000 A 
ATOM     14  C   UNL     1       5.289   4.410  14.316  0.00  0.00    +0.000 A 
ATOM     15  C   UNL     1       6.653   4.528  14.531  0.00  0.00    +0.000 A 
ATOM     16 CL   UNL     1       7.731   4.611  13.194  0.00  0.00    +0.000 Cl
ATOM     17  C   UNL     1       7.144   4.616  15.824  0.00  0.00    +0.000 A 
ATOM     18  C   UNL     1       6.255   4.679  16.910  0.00  0.00    +0.000 A 
ATOM     19 CL   UNL     1       6.991   5.115  18.422  0.00  0.00    +0.000 Cl
ENDBRANCH   6  12
BRANCH   7  20
ATOM     20  C   UNL     1       3.735   2.029  18.083  0.00  0.00    +0.000 C 
BRANCH  20  21
ATOM     21  N   UNL     1       4.460   1.240  19.074  0.00  0.00    +0.000 NA
ATOM     22  H   UNL     1       5.422   1.110  18.763  0.00  0.00    +0.000 HD
ATOM     23  H   UNL     1       4.073   0.295  19.082  0.00  0.00    +0.000 HD
ENDBRANCH  20  21
ENDBRANCH   7  20
BRANCH  10  24
ATOM     24  C   UNL     1       2.303   9.321  17.871  0.00  0.00    +0.000 C 
BRANCH  24  25
ATOM     25  C   UNL     1       0.980   9.817  18.412  0.00  0.00    +0.000 C 
ATOM     26  O   UNL     1      -0.093   9.655  17.851  0.00  0.00    +0.000 OA
BRANCH  25  27
ATOM     27  O   UNL     1       1.112  10.553  19.540  0.00  0.00    +0.000 OA
ATOM     28  H   UNL     1       0.788  11.472  19.422  0.00  0.00    +0.000 HD
ENDBRANCH  25  27
ENDBRANCH  24  25
ENDBRANCH  10  24
TORSDOF 6
ENDMDL
MODEL 3
REMARK VINA RESULT:      -6.0      3.453      6.384
REMARK  Name = 
REMARK  7 active torsions:
REMARK  status: ('A' for Active; 'I' for Inactive)
REMARK    1  A    between atoms: C_1  and  C_2
REMARK    2  A    between atoms: C_6  and  C_7
REMARK    3  A    between atoms: C_15  and  C_16
REMARK    4  A    between atoms: C_16  and  N_17
REMARK    5  A    between atoms: N_20  and  C_21
REMARK    6  A    between atoms: C_21  and  C_22
REMARK    7  A    between atoms: C_22  and  O_24
REMARK                            x       y       z     vdW  Elec       q    Type
REMARK                         _______ _______ _______ _____ _____    ______ ____
ROOT
ATOM      1  C   UNL     1       1.909  10.093  18.249  0.00  0.00    +0.000 C 
ATOM      2  C   UNL     1       2.466   8.700  18.171  0.00  0.00    +0.000 A 
ATOM      3  N   UNL     1       3.375   8.566  17.169  0.00  0.00    +0.000 NA
ATOM      4  C   UNL     1       3.985   7.383  17.073  0.00  0.00    +0.000 A 
ATOM      5  C   UNL     1       3.789   6.319  17.939  0.00  0.00    +0.000 A 
ATOM      6  C   UNL     1       2.790   6.364  18.918  0.00  0.00    +0.000 A 
ATOM      7  C   UNL     1       2.093   7.634  19.043  0.00  0.00    +0.000 A 
ATOM      8  C   UNL     1       4.691   5.244  17.467  0.00  0.00    +0.000 C 
ATOM      9  O   UNL     1       5.079   4.257  18.066  0.00  0.00    +0.000 OA
ATOM     10  N   UNL     1       5.078   5.584  16.189  0.00  0.00    +0.000 N 
ATOM     11  C   UNL     1       4.883   6.995  15.931  0.00  0.00    +0.000 C 
ENDROOT
BRANCH   6  12
ATOM     12  C   UNL     1       2.426   5.139  19.714  0.00  0.00    +0.000 A 
ATOM     13  C   UNL     1       2.749   5.066  21.089  0.00  0.00    +0.000 A 
ATOM     14  C   UNL     1       2.296   4.026  21.911  0.00  0.00    +0.000 A 
ATOM     15  C   UNL     1       1.632   2.945  21.353  0.00  0.00    +0.000 A 
ATOM     16 CL   UNL     1       1.088   1.659  22.354  0.00  0.00    +0.000 Cl
ATOM     17  C   UNL     1       1.374   2.921  19.991  0.00  0.00    +0.000 A 
ATOM     18  C   UNL     1       1.702   4.031  19.194  0.00  0.00    +0.000 A 
ATOM     19 CL   UNL     1       1.031   3.994  17.592  0.00  0.00    +0.000 Cl
ENDBRANCH   6  12
BRANCH   7  20
ATOM     20  C   UNL     1       1.045   7.811  20.137  0.00  0.00    +0.000 C 
BRANCH  20  21
ATOM     21  N   UNL     1       1.462   8.327  21.437  0.00  0.00    +0.000 NA
ATOM     22  H   UNL     1       1.228   7.648  22.160  0.00  0.00    +0.000 HD
ATOM     23  H   UNL     1       0.884   9.138  21.664  0.00  0.00    +0.000 HD
ENDBRANCH  20  21
ENDBRANCH   7  20
BRANCH  10  24
ATOM     24  C   UNL     1       5.636   4.676  15.202  0.00  0.00    +0.000 C 
BRANCH  24  25
ATOM     25  C   UNL     1       7.136   4.833  15.081  0.00  0.00    +0.000 C 
ATOM     26  O   UNL     1       7.706   5.205  14.067  0.00  0.00    +0.000 OA
BRANCH  25  27
ATOM     27  O   UNL     1       7.802   4.421  16.185  0.00  0.00    +0.000 OA
ATOM     28  H   UNL     1       8.757   4.646  16.147  0.00  0.00    +0.000 HD
ENDBRANCH  25  27
ENDBRANCH  24  25
ENDBRANCH  10  24
TORSDOF 6
ENDMDL
MODEL 4
REMARK VINA RESULT:      -6.0      1.184      1.527
REMARK  Name = 
REMARK  7 active torsions:
REMARK  status: ('A' for Active; 'I' for Inactive)
REMARK    1  A    between atoms: C_1  and  C_2
REMARK    2  A    between atoms: C_6  and  C_7
REMARK    3  A    between atoms: C_15  and  C_16
REMARK    4  A    between atoms: C_16  and  N_17
REMARK    5  A    between atoms: N_20  and  C_21
REMARK    6  A    between atoms: C_21  and  C_22
REMARK    7  A    between atoms: C_22  and  O_24
REMARK                            x       y       z     vdW  Elec       q    Type
REMARK                         _______ _______ _______ _____ _____    ______ ____
ROOT
ATOM      1  C   UNL     1       2.400   3.255  21.829  0.00  0.00    +0.000 C 
ATOM      2  C   UNL     1       2.637   4.291  20.766  0.00  0.00    +0.000 A 
ATOM      3  N   UNL     1       1.863   5.394  20.945  0.00  0.00    +0.000 NA
ATOM      4  C   UNL     1       2.062   6.404  20.095  0.00  0.00    +0.000 A 
ATOM      5  C   UNL     1       3.018   6.416  19.091  0.00  0.00    +0.000 A 
ATOM      6  C   UNL     1       3.764   5.270  18.794  0.00  0.00    +0.000 A 
ATOM      7  C   UNL     1       3.562   4.143  19.691  0.00  0.00    +0.000 A 
ATOM      8  C   UNL     1       2.894   7.737  18.433  0.00  0.00    +0.000 C 
ATOM      9  O   UNL     1       3.695   8.308  17.716  0.00  0.00    +0.000 OA
ATOM     10  N   UNL     1       1.682   8.262  18.824  0.00  0.00    +0.000 N 
ATOM     11  C   UNL     1       1.188   7.626  20.027  0.00  0.00    +0.000 C 
ENDROOT
BRANCH   6  12
ATOM     12  C   UNL     1       4.642   5.208  17.573  0.00  0.00    +0.000 A 
ATOM     13  C   UNL     1       5.912   5.829  17.582  0.00  0.00    +0.000 A 
ATOM     14  C   UNL     1       6.832   5.669  16.537  0.00  0.00    +0.000 A 
ATOM     15  C   UNL     1       6.453   5.005  15.381  0.00  0.00    +0.000 A 
ATOM     16 CL   UNL     1       7.573   4.819  14.090  0.00  0.00    +0.000 Cl
ATOM     17  C   UNL     1       5.183   4.459  15.282  0.00  0.00    +0.000 A 
ATOM     18  C   UNL     1       4.314   4.498  16.386  0.00  0.00    +0.000 A 
ATOM     19 CL   UNL     1       2.901   3.499  16.228  0.00  0.00    +0.000 Cl
ENDBRANCH   6  12
BRANCH   7  20
ATOM     20  C   UNL     1       4.391   2.876  19.504  0.00  0.00    +0.000 C 
BRANCH  20  21
ATOM     21  N   UNL     1       3.791   1.734  18.823  0.00  0.00    +0.000 NA
ATOM     22  H   UNL     1       2.802   1.920  18.661  0.00  0.00    +0.000 HD
ATOM     23  H   UNL     1       3.790   0.938  19.464  0.00  0.00    +0.000 HD
ENDBRANCH  20  21
ENDBRANCH   7  20
BRANCH  10  24
ATOM     24  C   UNL     1       0.967   9.336  18.155  0.00  0.00    +0.000 C 
BRANCH  24  25
ATOM     25  C   UNL     1       1.457  10.697  18.599  0.00  0.00    +0.000 C 
ATOM     26  O   UNL     1       1.025  11.296  19.572  0.00  0.00    +0.000 OA
BRANCH  25  27
ATOM     27  O   UNL     1       2.358  11.239  17.747  0.00  0.00    +0.000 OA
ATOM     28  H   UNL     1       2.620  12.146  18.014  0.00  0.00    +0.000 HD
ENDBRANCH  25  27
ENDBRANCH  24  25
ENDBRANCH  10  24
TORSDOF 6
ENDMDL
MODEL 5
REMARK VINA RESULT:      -5.9      1.429      1.839
REMARK  Name = 
REMARK  7 active torsions:
REMARK  status: ('A' for Active; 'I' for Inactive)
REMARK    1  A    between atoms: C_1  and  C_2
REMARK    2  A    between atoms: C_6  and  C_7
REMARK    3  A    between atoms: C_15  and  C_16
REMARK    4  A    between atoms: C_16  and  N_17
REMARK    5  A    between atoms: N_20  and  C_21
REMARK    6  A    between atoms: C_21  and  C_22
REMARK    7  A    between atoms: C_22  and  O_24
REMARK                            x       y       z     vdW  Elec       q    Type
REMARK                         _______ _______ _______ _____ _____    ______ ____
ROOT
ATOM      1  C   UNL     1       2.062   2.815  21.840  0.00  0.00    +0.000 C 
ATOM      2  C   UNL     1       2.398   3.905  20.862  0.00  0.00    +0.000 A 
ATOM      3  N   UNL     1       1.737   5.061  21.136  0.00  0.00    +0.000 NA
ATOM      4  C   UNL     1       2.032   6.112  20.368  0.00  0.00    +0.000 A 
ATOM      5  C   UNL     1       2.983   6.113  19.360  0.00  0.00    +0.000 A 
ATOM      6  C   UNL     1       3.613   4.927  18.965  0.00  0.00    +0.000 A 
ATOM      7  C   UNL     1       3.303   3.756  19.770  0.00  0.00    +0.000 A 
ATOM      8  C   UNL     1       2.988   7.488  18.812  0.00  0.00    +0.000 C 
ATOM      9  O   UNL     1       3.841   8.035  18.136  0.00  0.00    +0.000 OA
ATOM     10  N   UNL     1       1.834   8.096  19.256  0.00  0.00    +0.000 N 
ATOM     11  C   UNL     1       1.282   7.415  20.408  0.00  0.00    +0.000 C 
ENDROOT
BRANCH   6  12
ATOM     12  C   UNL     1       4.479   4.879  17.734  0.00  0.00    +0.000 A 
ATOM     13  C   UNL     1       5.780   5.431  17.763  0.00  0.00    +0.000 A 
ATOM     14  C   UNL     1       6.684   5.275  16.704  0.00  0.00    +0.000 A 
ATOM     15  C   UNL     1       6.264   4.689  15.520  0.00  0.00    +0.000 A 
ATOM     16 CL   UNL     1       7.364   4.508  14.211  0.00  0.00    +0.000 Cl
ATOM     17  C   UNL     1       4.966   4.216  15.406  0.00  0.00    +0.000 A 
ATOM     18  C   UNL     1       4.107   4.246  16.517  0.00  0.00    +0.000 A 
ATOM     19 CL   UNL     1       2.642   3.331  16.323  0.00  0.00    +0.000 Cl
ENDBRANCH   6  12
BRANCH   7  20
ATOM     20  C   UNL     1       4.004   2.434  19.473  0.00  0.00    +0.000 C 
BRANCH  20  21
ATOM     21  N   UNL     1       5.110   2.013  20.327  0.00  0.00    +0.000 NA
ATOM     22  H   UNL     1       5.276   2.725  21.038  0.00  0.00    +0.000 HD
ATOM     23  H   UNL     1       5.967   2.015  19.771  0.00  0.00    +0.000 HD
ENDBRANCH  20  21
ENDBRANCH   7  20
BRANCH  10  24
ATOM     24  C   UNL     1       1.227   9.285  18.682  0.00  0.00    +0.000 C 
BRANCH  24  25
ATOM     25  C   UNL     1       0.492  10.097  19.725  0.00  0.00    +0.000 C 
ATOM     26  O   UNL     1       1.040  10.689  20.643  0.00  0.00    +0.000 OA
BRANCH  25  27
ATOM     27  O   UNL     1      -0.854  10.024  19.603  0.00  0.00    +0.000 OA
ATOM     28  H   UNL     1      -1.246  10.874  19.307  0.00  0.00    +0.000 HD
ENDBRANCH  25  27
ENDBRANCH  24  25
ENDBRANCH  10  24
TORSDOF 6
ENDMDL
MODEL 6
REMARK VINA RESULT:      -5.7      3.137      5.588
REMARK  Name = 
REMARK  7 active torsions:
REMARK  status: ('A' for Active; 'I' for Inactive)
REMARK    1  A    between atoms: C_1  and  C_2
REMARK    2  A    between atoms: C_6  and  C_7
REMARK    3  A    between atoms: C_15  and  C_16
REMARK    4  A    between atoms: C_16  and  N_17
REMARK    5  A    between atoms: N_20  and  C_21
REMARK    6  A    between atoms: C_21  and  C_22
REMARK    7  A    between atoms: C_22  and  O_24
REMARK                            x       y       z     vdW  Elec       q    Type
REMARK                         _______ _______ _______ _____ _____    ______ ____
ROOT
ATOM      1  C   UNL     1       2.305   1.673  17.958  0.00  0.00    +0.000 C 
ATOM      2  C   UNL     1       2.913   3.045  17.896  0.00  0.00    +0.000 A 
ATOM      3  N   UNL     1       4.162   3.028  17.362  0.00  0.00    +0.000 NA
ATOM      4  C   UNL     1       4.753   4.213  17.190  0.00  0.00    +0.000 A 
ATOM      5  C   UNL     1       4.167   5.437  17.474  0.00  0.00    +0.000 A 
ATOM      6  C   UNL     1       2.930   5.508  18.125  0.00  0.00    +0.000 A 
ATOM      7  C   UNL     1       2.263   4.234  18.342  0.00  0.00    +0.000 A 
ATOM      8  C   UNL     1       5.170   6.459  17.100  0.00  0.00    +0.000 C 
ATOM      9  O   UNL     1       5.004   7.648  16.893  0.00  0.00    +0.000 OA
ATOM     10  N   UNL     1       6.375   5.805  16.969  0.00  0.00    +0.000 N 
ATOM     11  C   UNL     1       6.190   4.381  16.779  0.00  0.00    +0.000 C 
ENDROOT
BRANCH   6  12
ATOM     12  C   UNL     1       2.391   6.820  18.631  0.00  0.00    +0.000 A 
ATOM     13  C   UNL     1       2.058   7.847  17.718  0.00  0.00    +0.000 A 
ATOM     14  C   UNL     1       1.408   9.022  18.117  0.00  0.00    +0.000 A 
ATOM     15  C   UNL     1       1.205   9.274  19.465  0.00  0.00    +0.000 A 
ATOM     16 CL   UNL     1       0.422  10.721  19.961  0.00  0.00    +0.000 Cl
ATOM     17  C   UNL     1       1.601   8.340  20.409  0.00  0.00    +0.000 A 
ATOM     18  C   UNL     1       2.122   7.102  19.997  0.00  0.00    +0.000 A 
ATOM     19 CL   UNL     1       2.265   5.921  21.264  0.00  0.00    +0.000 Cl
ENDBRANCH   6  12
BRANCH   7  20
ATOM     20  C   UNL     1       0.871   4.212  18.967  0.00  0.00    +0.000 C 
BRANCH  20  21
ATOM     21  N   UNL     1       0.619   3.325  20.097  0.00  0.00    +0.000 NA
ATOM     22  H   UNL     1       0.078   3.824  20.803  0.00  0.00    +0.000 HD
ATOM     23  H   UNL     1       1.508   3.129  20.560  0.00  0.00    +0.000 HD
ENDBRANCH  20  21
ENDBRANCH   7  20
BRANCH  10  24
ATOM     24  C   UNL     1       7.687   6.429  16.989  0.00  0.00    +0.000 C 
BRANCH  24  25
ATOM     25  C   UNL     1       7.995   7.041  18.337  0.00  0.00    +0.000 C 
ATOM     26  O   UNL     1       8.351   8.199  18.498  0.00  0.00    +0.000 OA
BRANCH  25  27
ATOM     27  O   UNL     1       7.935   6.147  19.351  0.00  0.00    +0.000 OA
ATOM     28  H   UNL     1       8.376   5.300  19.125  0.00  0.00    +0.000 HD
ENDBRANCH  25  27
ENDBRANCH  24  25
ENDBRANCH  10  24
TORSDOF 6
ENDMDL
MODEL 7
REMARK VINA RESULT:      -5.7      7.122     11.198
REMARK  Name = 
REMARK  7 active torsions:
REMARK  status: ('A' for Active; 'I' for Inactive)
REMARK    1  A    between atoms: C_1  and  C_2
REMARK    2  A    between atoms: C_6  and  C_7
REMARK    3  A    between atoms: C_15  and  C_16
REMARK    4  A    between atoms: C_16  and  N_17
REMARK    5  A    between atoms: N_20  and  C_21
REMARK    6  A    between atoms: C_21  and  C_22
REMARK    7  A    between atoms: C_22  and  O_24
REMARK                            x       y       z     vdW  Elec       q    Type
REMARK                         _______ _______ _______ _____ _____    ______ ____
ROOT
ATOM      1  C   UNL     1      -5.411  11.579  17.265  0.00  0.00    +0.000 C 
ATOM      2  C   UNL     1      -4.274  11.691  18.241  0.00  0.00    +0.000 A 
ATOM      3  N   UNL     1      -3.186  10.981  17.842  0.00  0.00    +0.000 NA
ATOM      4  C   UNL     1      -2.095  11.085  18.606  0.00  0.00    +0.000 A 
ATOM      5  C   UNL     1      -1.991  11.888  19.731  0.00  0.00    +0.000 A 
ATOM      6  C   UNL     1      -3.110  12.552  20.246  0.00  0.00    +0.000 A 
ATOM      7  C   UNL     1      -4.321  12.450  19.448  0.00  0.00    +0.000 A 
ATOM      8  C   UNL     1      -0.608  11.708  20.227  0.00  0.00    +0.000 C 
ATOM      9  O   UNL     1       0.025  12.414  20.992  0.00  0.00    +0.000 OA
ATOM     10  N   UNL     1      -0.110  10.579  19.614  0.00  0.00    +0.000 N 
ATOM     11  C   UNL     1      -0.862  10.244  18.423  0.00  0.00    +0.000 C 
ENDROOT
BRANCH   6  12
ATOM     12  C   UNL     1      -3.056  13.245  21.582  0.00  0.00    +0.000 A 
ATOM     13  C   UNL     1      -3.398  12.541  22.760  0.00  0.00    +0.000 A 
ATOM     14  C   UNL     1      -3.214  13.084  24.038  0.00  0.00    +0.000 A 
ATOM     15  C   UNL     1      -2.823  14.407  24.174  0.00  0.00    +0.000 A 
ATOM     16 CL   UNL     1      -2.611  15.083  25.740  0.00  0.00    +0.000 Cl
ATOM     17  C   UNL     1      -2.567  15.172  23.048  0.00  0.00    +0.000 A 
ATOM     18  C   UNL     1      -2.614  14.583  21.773  0.00  0.00    +0.000 A 
ATOM     19 CL   UNL     1      -1.957  15.564  20.499  0.00  0.00    +0.000 Cl
ENDBRANCH   6  12
BRANCH   7  20
ATOM     20  C   UNL     1      -5.572  13.208  19.880  0.00  0.00    +0.000 C 
BRANCH  20  21
ATOM     21  N   UNL     1      -5.733  14.598  19.467  0.00  0.00    +0.000 NA
ATOM     22  H   UNL     1      -4.820  14.988  19.234  0.00  0.00    +0.000 HD
ATOM     23  H   UNL     1      -6.036  15.144  20.275  0.00  0.00    +0.000 HD
ENDBRANCH  20  21
ENDBRANCH   7  20
BRANCH  10  24
ATOM     24  C   UNL     1       1.036   9.806  20.061  0.00  0.00    +0.000 C 
BRANCH  24  25
ATOM     25  C   UNL     1       0.643   8.762  21.083  0.00  0.00    +0.000 C 
ATOM     26  O   UNL     1      -0.492   8.616  21.511  0.00  0.00    +0.000 OA
BRANCH  25  27
ATOM     27  O   UNL     1       1.700   8.063  21.559  0.00  0.00    +0.000 OA
ATOM     28  H   UNL     1       2.245   7.679  20.838  0.00  0.00    +0.000 HD
ENDBRANCH  25  27
ENDBRANCH  24  25
ENDBRANCH  10  24
TORSDOF 6
ENDMDL
MODEL 8
REMARK VINA RESULT:      -5.7      7.123     11.185
REMARK  Name = 
REMARK  7 active torsions:
REMARK  status: ('A' for Active; 'I' for Inactive)
REMARK    1  A    between atoms: C_1  and  C_2
REMARK    2  A    between atoms: C_6  and  C_7
REMARK    3  A    between atoms: C_15  and  C_16
REMARK    4  A    between atoms: C_16  and  N_17
REMARK    5  A    between atoms: N_20  and  C_21
REMARK    6  A    between atoms: C_21  and  C_22
REMARK    7  A    between atoms: C_22  and  O_24
REMARK                            x       y       z     vdW  Elec       q    Type
REMARK                         _______ _______ _______ _____ _____    ______ ____
ROOT
ATOM      1  C   UNL     1      -6.045  11.574  17.701  0.00  0.00    +0.000 C 
ATOM      2  C   UNL     1      -4.770  11.755  18.474  0.00  0.00    +0.000 A 
ATOM      3  N   UNL     1      -3.718  11.131  17.880  0.00  0.00    +0.000 NA
ATOM      4  C   UNL     1      -2.524  11.304  18.452  0.00  0.00    +0.000 A 
ATOM      5  C   UNL     1      -2.286  12.098  19.563  0.00  0.00    +0.000 A 
ATOM      6  C   UNL     1      -3.345  12.673  20.275  0.00  0.00    +0.000 A 
ATOM      7  C   UNL     1      -4.664  12.493  19.690  0.00  0.00    +0.000 A 
ATOM      8  C   UNL     1      -0.830  12.013  19.814  0.00  0.00    +0.000 C 
ATOM      9  O   UNL     1      -0.127  12.753  20.479  0.00  0.00    +0.000 OA
ATOM     10  N   UNL     1      -0.367  10.930  19.099  0.00  0.00    +0.000 N 
ATOM     11  C   UNL     1      -1.284  10.557  18.043  0.00  0.00    +0.000 C 
ENDROOT
BRANCH   6  12
ATOM     12  C   UNL     1      -3.113  13.352  21.599  0.00  0.00    +0.000 A 
ATOM     13  C   UNL     1      -3.234  12.618  22.802  0.00  0.00    +0.000 A 
ATOM     14  C   UNL     1      -2.876  13.154  24.046  0.00  0.00    +0.000 A 
ATOM     15  C   UNL     1      -2.528  14.492  24.146  0.00  0.00    +0.000 A 
ATOM     16 CL   UNL     1      -2.104  15.158  25.672  0.00  0.00    +0.000 Cl
ATOM     17  C   UNL     1      -2.488  15.282  23.008  0.00  0.00    +0.000 A 
ATOM     18  C   UNL     1      -2.708  14.706  21.745  0.00  0.00    +0.000 A 
ATOM     19 CL   UNL     1      -2.305  15.734  20.403  0.00  0.00    +0.000 Cl
ENDBRANCH   6  12
BRANCH   7  20
ATOM     20  C   UNL     1      -5.873  13.154  20.345  0.00  0.00    +0.000 C 
BRANCH  20  21
ATOM     21  N   UNL     1      -6.675  12.382  21.287  0.00  0.00    +0.000 NA
ATOM     22  H   UNL     1      -6.631  12.821  22.206  0.00  0.00    +0.000 HD
ATOM     23  H   UNL     1      -6.229  11.474  21.425  0.00  0.00    +0.000 HD
ENDBRANCH  20  21
ENDBRANCH   7  20
BRANCH  10  24
ATOM     24  C   UNL     1       0.889  10.237  19.328  0.00  0.00    +0.000 C 
BRANCH  24  25
ATOM     25  C   UNL     1       1.763  10.239  18.093  0.00  0.00    +0.000 C 
ATOM     26  O   UNL     1       2.067   9.234  17.467  0.00  0.00    +0.000 OA
BRANCH  25  27
ATOM     27  O   UNL     1       2.265  11.461  17.802  0.00  0.00    +0.000 OA
ATOM     28  H   UNL     1       2.173  12.088  18.552  0.00  0.00    +0.000 HD
ENDBRANCH  25  27
ENDBRANCH  24  25
ENDBRANCH  10  24
TORSDOF 6
ENDMDL
MODEL 9
REMARK VINA RESULT:      -5.6      7.156     10.304
REMARK  Name = 
REMARK  7 active torsions:
REMARK  status: ('A' for Active; 'I' for Inactive)
REMARK    1  A    between atoms: C_1  and  C_2
REMARK    2  A    between atoms: C_6  and  C_7
REMARK    3  A    between atoms: C_15  and  C_16
REMARK    4  A    between atoms: C_16  and  N_17
REMARK    5  A    between atoms: N_20  and  C_21
REMARK    6  A    between atoms: C_21  and  C_22
REMARK    7  A    between atoms: C_22  and  O_24
REMARK                            x       y       z     vdW  Elec       q    Type
REMARK                         _______ _______ _______ _____ _____    ______ ____
ROOT
ATOM      1  C   UNL     1      -3.400  15.808  22.832  0.00  0.00    +0.000 C 
ATOM      2  C   UNL     1      -3.411  14.652  21.872  0.00  0.00    +0.000 A 
ATOM      3  N   UNL     1      -4.641  14.447  21.332  0.00  0.00    +0.000 NA
ATOM      4  C   UNL     1      -4.732  13.491  20.404  0.00  0.00    +0.000 A 
ATOM      5  C   UNL     1      -3.665  12.742  19.933  0.00  0.00    +0.000 A 
ATOM      6  C   UNL     1      -2.402  12.836  20.530  0.00  0.00    +0.000 A 
ATOM      7  C   UNL     1      -2.269  13.857  21.556  0.00  0.00    +0.000 A 
ATOM      8  C   UNL     1      -4.229  11.841  18.903  0.00  0.00    +0.000 C 
ATOM      9  O   UNL     1      -3.647  11.228  18.027  0.00  0.00    +0.000 OA
ATOM     10  N   UNL     1      -5.596  11.847  19.076  0.00  0.00    +0.000 N 
ATOM     11  C   UNL     1      -6.033  13.006  19.826  0.00  0.00    +0.000 C 
ENDROOT
BRANCH   6  12
ATOM     12  C   UNL     1      -1.300  11.875  20.172  0.00  0.00    +0.000 A 
ATOM     13  C   UNL     1      -1.169  10.654  20.874  0.00  0.00    +0.000 A 
ATOM     14  C   UNL     1      -0.267   9.657  20.482  0.00  0.00    +0.000 A 
ATOM     15  C   UNL     1       0.639   9.909  19.464  0.00  0.00    +0.000 A 
ATOM     16 CL   UNL     1       1.759   8.694  18.989  0.00  0.00    +0.000 Cl
ATOM     17  C   UNL     1       0.617  11.128  18.806  0.00  0.00    +0.000 A 
ATOM     18  C   UNL     1      -0.381  12.070  19.105  0.00  0.00    +0.000 A 
ATOM     19 CL   UNL     1      -0.482  13.396  17.987  0.00  0.00    +0.000 Cl
ENDBRANCH   6  12
BRANCH   7  20
ATOM     20  C   UNL     1      -0.909  14.097  22.206  0.00  0.00    +0.000 C 
BRANCH  20  21
ATOM     21  N   UNL     1      -0.517  13.275  23.346  0.00  0.00    +0.000 NA
ATOM     22  H   UNL     1      -1.148  13.458  24.126  0.00  0.00    +0.000 HD
ATOM     23  H   UNL     1       0.392  13.598  23.681  0.00  0.00    +0.000 HD
ENDBRANCH  20  21
ENDBRANCH   7  20
BRANCH  10  24
ATOM     24  C   UNL     1      -6.520  10.849  18.566  0.00  0.00    +0.000 C 
BRANCH  24  25
ATOM     25  C   UNL     1      -7.071   9.978  19.674  0.00  0.00    +0.000 C 
ATOM     26  O   UNL     1      -7.022  10.266  20.860  0.00  0.00    +0.000 OA
BRANCH  25  27
ATOM     27  O   UNL     1      -7.537   8.788  19.229  0.00  0.00    +0.000 OA
ATOM     28  H   UNL     1      -8.510   8.799  19.093  0.00  0.00    +0.000 HD
ENDBRANCH  25  27
ENDBRANCH  24  25
ENDBRANCH  10  24
TORSDOF 6
ENDMDL
