MODEL 1
REMARK VINA RESULT:      -8.1      0.000      0.000
REMARK  Name = 
REMARK  8 active torsions:
REMARK  status: ('A' for Active; 'I' for Inactive)
REMARK    1  A    between atoms: S_2  and  C_4
REMARK    2  A    between atoms: S_2  and  C_13
REMARK    3  A    between atoms: C_5  and  C_6
REMARK    4  A    between atoms: C_17  and  O_18
REMARK    5  A    between atoms: O_18  and  C_19
REMARK    6  A    between atoms: C_19  and  C_20
REMARK    7  A    between atoms: C_20  and  C_21
REMARK    8  A    between atoms: C_21  and  N_22
REMARK                            x       y       z     vdW  Elec       q    Type
REMARK                         _______ _______ _______ _____ _____    ______ ____
ROOT
ATOM      1  C   UNL     1       6.696   5.474  17.154  0.00  0.00    +0.000 A 
ATOM      2  C   UNL     1       7.290   4.868  18.267  0.00  0.00    +0.000 A 
ATOM      3  C   UNL     1       8.102   5.627  19.118  0.00  0.00    +0.000 A 
ATOM      4  C   UNL     1       8.304   6.984  18.868  0.00  0.00    +0.000 A 
ATOM      5  C   UNL     1       7.742   7.568  17.729  0.00  0.00    +0.000 A 
ATOM      6  C   UNL     1       6.996   6.798  16.846  0.00  0.00    +0.000 A 
ENDROOT
BRANCH   1   8
ATOM      7  O   UNL     1       6.373   3.504  15.480  0.00  0.00    +0.000 OA
ATOM      8  S   UNL     1       5.568   4.556  16.103  0.00  0.00    +0.000 S 
ATOM      9  O   UNL     1       4.895   5.534  15.278  0.00  0.00    +0.000 OA
BRANCH   8  10
ATOM     10  C   UNL     1       4.420   3.833  17.174  0.00  0.00    +0.000 C 
ATOM     11  C   UNL     1       3.867   4.564  18.166  0.00  0.00    +0.000 C 
BRANCH  11  12
ATOM     12  C   UNL     1       2.987   3.970  19.184  0.00  0.00    +0.000 A 
ATOM     13  N   UNL     1       1.690   4.388  19.158  0.00  0.00    +0.000 NA
ATOM     14  C   UNL     1       0.851   3.887  20.090  0.00  0.00    +0.000 A 
ATOM     15  C   UNL     1       1.236   2.978  21.068  0.00  0.00    +0.000 A 
ATOM     16  C   UNL     1       2.552   2.546  21.076  0.00  0.00    +0.000 A 
ATOM     17  C   UNL     1       3.439   3.041  20.121  0.00  0.00    +0.000 A 
ATOM     18  F   UNL     1       4.710   2.623  20.135  0.00  0.00    +0.000 F 
ENDBRANCH  11  12
ENDBRANCH   8  10
ENDBRANCH   1   8
BRANCH   5  19
ATOM     19  O   UNL     1       7.940   8.910  17.589  0.00  0.00    +0.000 OA
BRANCH  19  20
ATOM     20  C   UNL     1       8.646   9.543  18.663  0.00  0.00    +0.000 C 
BRANCH  20  21
ATOM     21  C   UNL     1       9.042  10.932  18.195  0.00  0.00    +0.000 C 
BRANCH  21  22
ATOM     22  C   UNL     1      10.123  11.523  19.119  0.00  0.00    +0.000 C 
BRANCH  22  23
ATOM     23  N   UNL     1      11.365  11.917  18.433  0.00  0.00    +0.000 NA
ATOM     24  C   UNL     1      12.257  12.669  19.353  0.00  0.00    +0.000 C 
ATOM     25  C   UNL     1      11.776  14.104  19.639  0.00  0.00    +0.000 C 
ATOM     26  O   UNL     1      11.658  14.852  18.420  0.00  0.00    +0.000 OA
ATOM     27  C   UNL     1      10.725  14.210  17.541  0.00  0.00    +0.000 C 
ATOM     28  C   UNL     1      11.164  12.764  17.235  0.00  0.00    +0.000 C 
ENDBRANCH  22  23
ENDBRANCH  21  22
ENDBRANCH  20  21
ENDBRANCH  19  20
ENDBRANCH   5  19
TORSDOF 8
ENDMDL
MODEL 2
REMARK VINA RESULT:      -7.8      1.241      1.311
REMARK  Name = 
REMARK  8 active torsions:
REMARK  status: ('A' for Active; 'I' for Inactive)
REMARK    1  A    between atoms: S_2  and  C_4
REMARK    2  A    between atoms: S_2  and  C_13
REMARK    3  A    between atoms: C_5  and  C_6
REMARK    4  A    between atoms: C_17  and  O_18
REMARK    5  A    between atoms: O_18  and  C_19
REMARK    6  A    between atoms: C_19  and  C_20
REMARK    7  A    between atoms: C_20  and  C_21
REMARK    8  A    between atoms: C_21  and  N_22
REMARK                            x       y       z     vdW  Elec       q    Type
REMARK                         _______ _______ _______ _____ _____    ______ ____
ROOT
ATOM      1  C   UNL     1       6.859   6.006  17.104  0.00  0.00    +0.000 A 
ATOM      2  C   UNL     1       7.243   5.274  18.232  0.00  0.00    +0.000 A 
ATOM      3  C   UNL     1       8.016   5.887  19.226  0.00  0.00    +0.000 A 
ATOM      4  C   UNL     1       8.386   7.226  19.099  0.00  0.00    +0.000 A 
ATOM      5  C   UNL     1       8.034   7.934  17.946  0.00  0.00    +0.000 A 
ATOM      6  C   UNL     1       7.329   7.305  16.929  0.00  0.00    +0.000 A 
ENDROOT
BRANCH   1   8
ATOM      7  O   UNL     1       6.613   4.325  15.128  0.00  0.00    +0.000 OA
ATOM      8  S   UNL     1       5.784   5.282  15.863  0.00  0.00    +0.000 S 
ATOM      9  O   UNL     1       5.166   6.388  15.165  0.00  0.00    +0.000 OA
BRANCH   8  10
ATOM     10  C   UNL     1       4.571   4.421  16.746  0.00  0.00    +0.000 C 
ATOM     11  C   UNL     1       3.626   5.099  17.431  0.00  0.00    +0.000 C 
BRANCH  11  12
ATOM     12  C   UNL     1       2.652   4.425  18.303  0.00  0.00    +0.000 A 
ATOM     13  N   UNL     1       2.039   3.332  17.766  0.00  0.00    +0.000 NA
ATOM     14  C   UNL     1       1.119   2.695  18.522  0.00  0.00    +0.000 A 
ATOM     15  C   UNL     1       0.763   3.091  19.805  0.00  0.00    +0.000 A 
ATOM     16  C   UNL     1       1.403   4.193  20.348  0.00  0.00    +0.000 A 
ATOM     17  C   UNL     1       2.363   4.866  19.593  0.00  0.00    +0.000 A 
ATOM     18  F   UNL     1       2.976   5.932  20.122  0.00  0.00    +0.000 F 
ENDBRANCH  11  12
ENDBRANCH   8  10
ENDBRANCH   1   8
BRANCH   5  19
ATOM     19  O   UNL     1       8.384   9.253  17.927  0.00  0.00    +0.000 OA
BRANCH  19  20
ATOM     20  C   UNL     1       8.859   9.781  19.172  0.00  0.00    +0.000 C 
BRANCH  20  21
ATOM     21  C   UNL     1      10.159  10.514  18.892  0.00  0.00    +0.000 C 
BRANCH  21  22
ATOM     22  C   UNL     1       9.916  11.687  17.925  0.00  0.00    +0.000 C 
BRANCH  22  23
ATOM     23  N   UNL     1      11.096  12.534  17.683  0.00  0.00    +0.000 NA
ATOM     24  C   UNL     1      11.818  12.805  18.954  0.00  0.00    +0.000 C 
ATOM     25  C   UNL     1      11.092  13.808  19.870  0.00  0.00    +0.000 C 
ATOM     26  O   UNL     1      10.892  15.059  19.194  0.00  0.00    +0.000 OA
ATOM     27  C   UNL     1      10.111  14.854  18.009  0.00  0.00    +0.000 C 
ATOM     28  C   UNL     1      10.797  13.846  17.065  0.00  0.00    +0.000 C 
ENDBRANCH  22  23
ENDBRANCH  21  22
ENDBRANCH  20  21
ENDBRANCH  19  20
ENDBRANCH   5  19
TORSDOF 8
ENDMDL
MODEL 3
REMARK VINA RESULT:      -7.7      5.426      9.063
REMARK  Name = 
REMARK  8 active torsions:
REMARK  status: ('A' for Active; 'I' for Inactive)
REMARK    1  A    between atoms: S_2  and  C_4
REMARK    2  A    between atoms: S_2  and  C_13
REMARK    3  A    between atoms: C_5  and  C_6
REMARK    4  A    between atoms: C_17  and  O_18
REMARK    5  A    between atoms: O_18  and  C_19
REMARK    6  A    between atoms: C_19  and  C_20
REMARK    7  A    between atoms: C_20  and  C_21
REMARK    8  A    between atoms: C_21  and  N_22
REMARK                            x       y       z     vdW  Elec       q    Type
REMARK                         _______ _______ _______ _____ _____    ______ ____
ROOT
ATOM      1  C   UNL     1       4.908   6.360  18.247  0.00  0.00    +0.000 A 
ATOM      2  C   UNL     1       4.502   7.445  17.465  0.00  0.00    +0.000 A 
ATOM      3  C   UNL     1       3.213   7.970  17.622  0.00  0.00    +0.000 A 
ATOM      4  C   UNL     1       2.345   7.423  18.567  0.00  0.00    +0.000 A 
ATOM      5  C   UNL     1       2.747   6.310  19.312  0.00  0.00    +0.000 A 
ATOM      6  C   UNL     1       3.998   5.746  19.104  0.00  0.00    +0.000 A 
ENDROOT
BRANCH   1   8
ATOM      7  O   UNL     1       6.731   4.802  19.265  0.00  0.00    +0.000 OA
ATOM      8  S   UNL     1       6.586   5.731  18.143  0.00  0.00    +0.000 S 
ATOM      9  O   UNL     1       7.448   6.888  18.047  0.00  0.00    +0.000 OA
BRANCH   8  10
ATOM     10  C   UNL     1       6.659   4.846  16.660  0.00  0.00    +0.000 C 
ATOM     11  C   UNL     1       6.547   5.494  15.480  0.00  0.00    +0.000 C 
BRANCH  11  12
ATOM     12  C   UNL     1       6.471   4.781  14.196  0.00  0.00    +0.000 A 
ATOM     13  N   UNL     1       5.356   4.020  14.009  0.00  0.00    +0.000 NA
ATOM     14  C   UNL     1       5.255   3.329  12.854  0.00  0.00    +0.000 A 
ATOM     15  C   UNL     1       6.219   3.347  11.855  0.00  0.00    +0.000 A 
ATOM     16  C   UNL     1       7.342   4.136  12.046  0.00  0.00    +0.000 A 
ATOM     17  C   UNL     1       7.469   4.867  13.227  0.00  0.00    +0.000 A 
ATOM     18  F   UNL     1       8.557   5.625  13.408  0.00  0.00    +0.000 F 
ENDBRANCH  11  12
ENDBRANCH   8  10
ENDBRANCH   1   8
BRANCH   5  19
ATOM     19  O   UNL     1       1.861   5.874  20.254  0.00  0.00    +0.000 OA
BRANCH  19  20
ATOM     20  C   UNL     1       2.414   5.037  21.278  0.00  0.00    +0.000 C 
BRANCH  20  21
ATOM     21  C   UNL     1       1.766   3.670  21.151  0.00  0.00    +0.000 C 
BRANCH  21  22
ATOM     22  C   UNL     1       2.739   2.671  20.500  0.00  0.00    +0.000 C 
BRANCH  22  23
ATOM     23  N   UNL     1       2.143   1.836  19.444  0.00  0.00    +0.000 NA
ATOM     24  C   UNL     1       3.160   1.478  18.421  0.00  0.00    +0.000 C 
ATOM     25  C   UNL     1       3.537   2.650  17.496  0.00  0.00    +0.000 C 
ATOM     26  O   UNL     1       2.378   3.155  16.817  0.00  0.00    +0.000 OA
ATOM     27  C   UNL     1       1.410   3.605  17.773  0.00  0.00    +0.000 C 
ATOM     28  C   UNL     1       1.009   2.463  18.729  0.00  0.00    +0.000 C 
ENDBRANCH  22  23
ENDBRANCH  21  22
ENDBRANCH  20  21
ENDBRANCH  19  20
ENDBRANCH   5  19
TORSDOF 8
ENDMDL
MODEL 4
REMARK VINA RESULT:      -7.6      1.397      1.736
REMARK  Name = 
REMARK  8 active torsions:
REMARK  status: ('A' for Active; 'I' for Inactive)
REMARK    1  A    between atoms: S_2  and  C_4
REMARK    2  A    between atoms: S_2  and  C_13
REMARK    3  A    between atoms: C_5  and  C_6
REMARK    4  A    between atoms: C_17  and  O_18
REMARK    5  A    between atoms: O_18  and  C_19
REMARK    6  A    between atoms: C_19  and  C_20
REMARK    7  A    between atoms: C_20  and  C_21
REMARK    8  A    between atoms: C_21  and  N_22
REMARK                            x       y       z     vdW  Elec       q    Type
REMARK                         _______ _______ _______ _____ _____    ______ ____
ROOT
ATOM      1  C   UNL     1       6.950   5.953  16.914  0.00  0.00    +0.000 A 
ATOM      2  C   UNL     1       7.455   5.216  17.991  0.00  0.00    +0.000 A 
ATOM      3  C   UNL     1       8.149   5.871  19.014  0.00  0.00    +0.000 A 
ATOM      4  C   UNL     1       8.321   7.254  18.970  0.00  0.00    +0.000 A 
ATOM      5  C   UNL     1       7.851   7.974  17.868  0.00  0.00    +0.000 A 
ATOM      6  C   UNL     1       7.226   7.313  16.818  0.00  0.00    +0.000 A 
ENDROOT
BRANCH   1   8
ATOM      7  O   UNL     1       6.901   4.327  14.879  0.00  0.00    +0.000 OA
ATOM      8  S   UNL     1       5.967   5.159  15.640  0.00  0.00    +0.000 S 
ATOM      9  O   UNL     1       5.233   6.214  14.977  0.00  0.00    +0.000 OA
BRANCH   8  10
ATOM     10  C   UNL     1       4.854   4.138  16.481  0.00  0.00    +0.000 C 
ATOM     11  C   UNL     1       3.943   4.677  17.320  0.00  0.00    +0.000 C 
BRANCH  11  12
ATOM     12  C   UNL     1       3.060   3.852  18.158  0.00  0.00    +0.000 A 
ATOM     13  N   UNL     1       1.787   3.695  17.697  0.00  0.00    +0.000 NA
ATOM     14  C   UNL     1       0.935   2.964  18.447  0.00  0.00    +0.000 A 
ATOM     15  C   UNL     1       1.280   2.371  19.654  0.00  0.00    +0.000 A 
ATOM     16  C   UNL     1       2.581   2.522  20.107  0.00  0.00    +0.000 A 
ATOM     17  C   UNL     1       3.485   3.265  19.349  0.00  0.00    +0.000 A 
ATOM     18  F   UNL     1       4.739   3.411  19.792  0.00  0.00    +0.000 F 
ENDBRANCH  11  12
ENDBRANCH   8  10
ENDBRANCH   1   8
BRANCH   5  19
ATOM     19  O   UNL     1       8.009   9.328  17.930  0.00  0.00    +0.000 OA
BRANCH  19  20
ATOM     20  C   UNL     1       8.970   9.792  18.886  0.00  0.00    +0.000 C 
BRANCH  20  21
ATOM     21  C   UNL     1       9.858  10.805  18.187  0.00  0.00    +0.000 C 
BRANCH  21  22
ATOM     22  C   UNL     1      10.194  11.970  19.136  0.00  0.00    +0.000 C 
BRANCH  22  23
ATOM     23  N   UNL     1       9.030  12.759  19.572  0.00  0.00    +0.000 NA
ATOM     24  C   UNL     1       8.851  13.954  18.706  0.00  0.00    +0.000 C 
ATOM     25  C   UNL     1       9.893  15.059  18.964  0.00  0.00    +0.000 C 
ATOM     26  O   UNL     1       9.849  15.488  20.333  0.00  0.00    +0.000 OA
ATOM     27  C   UNL     1      10.117  14.379  21.201  0.00  0.00    +0.000 C 
ATOM     28  C   UNL     1       9.102  13.242  20.970  0.00  0.00    +0.000 C 
ENDBRANCH  22  23
ENDBRANCH  21  22
ENDBRANCH  20  21
ENDBRANCH  19  20
ENDBRANCH   5  19
TORSDOF 8
ENDMDL
MODEL 5
REMARK VINA RESULT:      -7.6      3.393      4.120
REMARK  Name = 
REMARK  8 active torsions:
REMARK  status: ('A' for Active; 'I' for Inactive)
REMARK    1  A    between atoms: S_2  and  C_4
REMARK    2  A    between atoms: S_2  and  C_13
REMARK    3  A    between atoms: C_5  and  C_6
REMARK    4  A    between atoms: C_17  and  O_18
REMARK    5  A    between atoms: O_18  and  C_19
REMARK    6  A    between atoms: C_19  and  C_20
REMARK    7  A    between atoms: C_20  and  C_21
REMARK    8  A    between atoms: C_21  and  N_22
REMARK                            x       y       z     vdW  Elec       q    Type
REMARK                         _______ _______ _______ _____ _____    ______ ____
ROOT
ATOM      1  C   UNL     1       4.912   4.860  17.440  0.00  0.00    +0.000 A 
ATOM      2  C   UNL     1       4.824   4.208  16.205  0.00  0.00    +0.000 A 
ATOM      3  C   UNL     1       5.748   4.507  15.197  0.00  0.00    +0.000 A 
ATOM      4  C   UNL     1       6.761   5.437  15.428  0.00  0.00    +0.000 A 
ATOM      5  C   UNL     1       6.812   6.115  16.651  0.00  0.00    +0.000 A 
ATOM      6  C   UNL     1       5.852   5.870  17.623  0.00  0.00    +0.000 A 
ENDROOT
BRANCH   1   8
ATOM      7  O   UNL     1       4.634   3.710  19.761  0.00  0.00    +0.000 OA
ATOM      8  S   UNL     1       3.808   4.425  18.786  0.00  0.00    +0.000 S 
ATOM      9  O   UNL     1       2.670   3.767  18.183  0.00  0.00    +0.000 OA
BRANCH   8  10
ATOM     10  C   UNL     1       3.295   5.928  19.470  0.00  0.00    +0.000 C 
ATOM     11  C   UNL     1       2.179   6.534  19.010  0.00  0.00    +0.000 C 
BRANCH  11  12
ATOM     12  C   UNL     1       1.768   7.872  19.462  0.00  0.00    +0.000 A 
ATOM     13  N   UNL     1       1.469   7.980  20.788  0.00  0.00    +0.000 NA
ATOM     14  C   UNL     1       1.064   9.185  21.242  0.00  0.00    +0.000 A 
ATOM     15  C   UNL     1       0.933  10.311  20.439  0.00  0.00    +0.000 A 
ATOM     16  C   UNL     1       1.256  10.195  19.096  0.00  0.00    +0.000 A 
ATOM     17  C   UNL     1       1.684   8.965  18.601  0.00  0.00    +0.000 A 
ATOM     18  F   UNL     1       1.991   8.858  17.303  0.00  0.00    +0.000 F 
ENDBRANCH  11  12
ENDBRANCH   8  10
ENDBRANCH   1   8
BRANCH   5  19
ATOM     19  O   UNL     1       7.866   6.964  16.817  0.00  0.00    +0.000 OA
BRANCH  19  20
ATOM     20  C   UNL     1       7.900   7.665  18.066  0.00  0.00    +0.000 C 
BRANCH  20  21
ATOM     21  C   UNL     1       8.051   9.144  17.757  0.00  0.00    +0.000 C 
BRANCH  21  22
ATOM     22  C   UNL     1       9.007   9.809  18.765  0.00  0.00    +0.000 C 
BRANCH  22  23
ATOM     23  N   UNL     1       9.157  11.264  18.596  0.00  0.00    +0.000 NA
ATOM     24  C   UNL     1      10.401  11.579  17.846  0.00  0.00    +0.000 C 
ATOM     25  C   UNL     1      11.684  11.387  18.677  0.00  0.00    +0.000 C 
ATOM     26  O   UNL     1      11.652  12.204  19.856  0.00  0.00    +0.000 OA
ATOM     27  C   UNL     1      10.516  11.859  20.660  0.00  0.00    +0.000 C 
ATOM     28  C   UNL     1       9.207  12.029  19.862  0.00  0.00    +0.000 C 
ENDBRANCH  22  23
ENDBRANCH  21  22
ENDBRANCH  20  21
ENDBRANCH  19  20
ENDBRANCH   5  19
TORSDOF 8
ENDMDL
MODEL 6
REMARK VINA RESULT:      -7.5      3.142      3.791
REMARK  Name = 
REMARK  8 active torsions:
REMARK  status: ('A' for Active; 'I' for Inactive)
REMARK    1  A    between atoms: S_2  and  C_4
REMARK    2  A    between atoms: S_2  and  C_13
REMARK    3  A    between atoms: C_5  and  C_6
REMARK    4  A    between atoms: C_17  and  O_18
REMARK    5  A    between atoms: O_18  and  C_19
REMARK    6  A    between atoms: C_19  and  C_20
REMARK    7  A    between atoms: C_20  and  C_21
REMARK    8  A    between atoms: C_21  and  N_22
REMARK                            x       y       z     vdW  Elec       q    Type
REMARK                         _______ _______ _______ _____ _____    ______ ____
ROOT
ATOM      1  C   UNL     1       5.230   4.566  17.439  0.00  0.00    +0.000 A 
ATOM      2  C   UNL     1       5.304   3.760  16.298  0.00  0.00    +0.000 A 
ATOM      3  C   UNL     1       6.215   4.076  15.284  0.00  0.00    +0.000 A 
ATOM      4  C   UNL     1       7.058   5.180  15.418  0.00  0.00    +0.000 A 
ATOM      5  C   UNL     1       6.944   6.003  16.542  0.00  0.00    +0.000 A 
ATOM      6  C   UNL     1       5.990   5.730  17.513  0.00  0.00    +0.000 A 
ENDROOT
BRANCH   1   8
ATOM      7  O   UNL     1       4.999   3.466  19.789  0.00  0.00    +0.000 OA
ATOM      8  S   UNL     1       4.147   4.130  18.802  0.00  0.00    +0.000 S 
ATOM      9  O   UNL     1       3.028   3.422  18.220  0.00  0.00    +0.000 OA
BRANCH   8  10
ATOM     10  C   UNL     1       3.590   5.632  19.451  0.00  0.00    +0.000 C 
ATOM     11  C   UNL     1       2.325   6.044  19.215  0.00  0.00    +0.000 C 
BRANCH  11  12
ATOM     12  C   UNL     1       1.839   7.368  19.631  0.00  0.00    +0.000 A 
ATOM     13  N   UNL     1       1.388   7.454  20.914  0.00  0.00    +0.000 NA
ATOM     14  C   UNL     1       0.909   8.645  21.332  0.00  0.00    +0.000 A 
ATOM     15  C   UNL     1       0.849   9.778  20.531  0.00  0.00    +0.000 A 
ATOM     16  C   UNL     1       1.326   9.686  19.233  0.00  0.00    +0.000 A 
ATOM     17  C   UNL     1       1.833   8.470  18.777  0.00  0.00    +0.000 A 
ATOM     18  F   UNL     1       2.288   8.385  17.522  0.00  0.00    +0.000 F 
ENDBRANCH  11  12
ENDBRANCH   8  10
ENDBRANCH   1   8
BRANCH   5  19
ATOM     19  O   UNL     1       7.842   7.027  16.623  0.00  0.00    +0.000 OA
BRANCH  19  20
ATOM     20  C   UNL     1       7.453   8.123  17.460  0.00  0.00    +0.000 C 
BRANCH  20  21
ATOM     21  C   UNL     1       8.645   8.482  18.329  0.00  0.00    +0.000 C 
BRANCH  21  22
ATOM     22  C   UNL     1       8.614   9.977  18.693  0.00  0.00    +0.000 C 
BRANCH  22  23
ATOM     23  N   UNL     1       9.940  10.582  18.906  0.00  0.00    +0.000 NA
ATOM     24  C   UNL     1       9.957  11.380  20.159  0.00  0.00    +0.000 C 
ATOM     25  C   UNL     1       9.194  12.714  20.048  0.00  0.00    +0.000 C 
ATOM     26  O   UNL     1       9.738  13.523  18.995  0.00  0.00    +0.000 OA
ATOM     27  C   UNL     1       9.647  12.825  17.746  0.00  0.00    +0.000 C 
ATOM     28  C   UNL     1      10.391  11.476  17.815  0.00  0.00    +0.000 C 
ENDBRANCH  22  23
ENDBRANCH  21  22
ENDBRANCH  20  21
ENDBRANCH  19  20
ENDBRANCH   5  19
TORSDOF 8
ENDMDL
MODEL 7
REMARK VINA RESULT:      -7.5      7.211     10.591
REMARK  Name = 
REMARK  8 active torsions:
REMARK  status: ('A' for Active; 'I' for Inactive)
REMARK    1  A    between atoms: S_2  and  C_4
REMARK    2  A    between atoms: S_2  and  C_13
REMARK    3  A    between atoms: C_5  and  C_6
REMARK    4  A    between atoms: C_17  and  O_18
REMARK    5  A    between atoms: O_18  and  C_19
REMARK    6  A    between atoms: C_19  and  C_20
REMARK    7  A    between atoms: C_20  and  C_21
REMARK    8  A    between atoms: C_21  and  N_22
REMARK                            x       y       z     vdW  Elec       q    Type
REMARK                         _______ _______ _______ _____ _____    ______ ____
ROOT
ATOM      1  C   UNL     1       1.027   9.070  20.388  0.00  0.00    +0.000 A 
ATOM      2  C   UNL     1       0.821  10.040  19.402  0.00  0.00    +0.000 A 
ATOM      3  C   UNL     1       1.322   9.834  18.111  0.00  0.00    +0.000 A 
ATOM      4  C   UNL     1       2.008   8.659  17.806  0.00  0.00    +0.000 A 
ATOM      5  C   UNL     1       2.246   7.716  18.811  0.00  0.00    +0.000 A 
ATOM      6  C   UNL     1       1.811   7.955  20.108  0.00  0.00    +0.000 A 
ENDROOT
BRANCH   1   8
ATOM      7  O   UNL     1       1.441   9.358  22.944  0.00  0.00    +0.000 OA
ATOM      8  S   UNL     1       0.309   9.257  22.022  0.00  0.00    +0.000 S 
ATOM      9  O   UNL     1      -0.650   8.184  22.170  0.00  0.00    +0.000 OA
BRANCH   8  10
ATOM     10  C   UNL     1      -0.533  10.767  21.990  0.00  0.00    +0.000 C 
ATOM     11  C   UNL     1      -1.278  11.149  23.050  0.00  0.00    +0.000 C 
BRANCH  11  12
ATOM     12  C   UNL     1      -2.117  12.356  23.027  0.00  0.00    +0.000 A 
ATOM     13  N   UNL     1      -3.460  12.143  23.125  0.00  0.00    +0.000 NA
ATOM     14  C   UNL     1      -4.270  13.222  23.083  0.00  0.00    +0.000 A 
ATOM     15  C   UNL     1      -3.815  14.527  22.945  0.00  0.00    +0.000 A 
ATOM     16  C   UNL     1      -2.447  14.735  22.863  0.00  0.00    +0.000 A 
ATOM     17  C   UNL     1      -1.586  13.640  22.910  0.00  0.00    +0.000 A 
ATOM     18  F   UNL     1      -0.266  13.847  22.827  0.00  0.00    +0.000 F 
ENDBRANCH  11  12
ENDBRANCH   8  10
ENDBRANCH   1   8
BRANCH   5  19
ATOM     19  O   UNL     1       2.872   6.571  18.416  0.00  0.00    +0.000 OA
BRANCH  19  20
ATOM     20  C   UNL     1       4.051   6.756  17.622  0.00  0.00    +0.000 C 
BRANCH  20  21
ATOM     21  C   UNL     1       4.521   5.384  17.173  0.00  0.00    +0.000 C 
BRANCH  21  22
ATOM     22  C   UNL     1       3.408   4.340  17.381  0.00  0.00    +0.000 C 
BRANCH  22  23
ATOM     23  N   UNL     1       3.848   3.102  18.045  0.00  0.00    +0.000 NA
ATOM     24  C   UNL     1       2.828   2.032  17.889  0.00  0.00    +0.000 C 
ATOM     25  C   UNL     1       1.579   2.242  18.764  0.00  0.00    +0.000 C 
ATOM     26  O   UNL     1       1.938   2.318  20.152  0.00  0.00    +0.000 OA
ATOM     27  C   UNL     1       2.847   3.407  20.362  0.00  0.00    +0.000 C 
ATOM     28  C   UNL     1       4.112   3.242  19.496  0.00  0.00    +0.000 C 
ENDBRANCH  22  23
ENDBRANCH  21  22
ENDBRANCH  20  21
ENDBRANCH  19  20
ENDBRANCH   5  19
TORSDOF 8
ENDMDL
MODEL 8
REMARK VINA RESULT:      -7.5      7.150     10.800
REMARK  Name = 
REMARK  8 active torsions:
REMARK  status: ('A' for Active; 'I' for Inactive)
REMARK    1  A    between atoms: S_2  and  C_4
REMARK    2  A    between atoms: S_2  and  C_13
REMARK    3  A    between atoms: C_5  and  C_6
REMARK    4  A    between atoms: C_17  and  O_18
REMARK    5  A    between atoms: O_18  and  C_19
REMARK    6  A    between atoms: C_19  and  C_20
REMARK    7  A    between atoms: C_20  and  C_21
REMARK    8  A    between atoms: C_21  and  N_22
REMARK                            x       y       z     vdW  Elec       q    Type
REMARK                         _______ _______ _______ _____ _____    ______ ____
ROOT
ATOM      1  C   UNL     1       1.099   8.808  20.413  0.00  0.00    +0.000 A 
ATOM      2  C   UNL     1       0.974   9.625  19.285  0.00  0.00    +0.000 A 
ATOM      3  C   UNL     1       1.563   9.234  18.077  0.00  0.00    +0.000 A 
ATOM      4  C   UNL     1       2.257   8.027  17.994  0.00  0.00    +0.000 A 
ATOM      5  C   UNL     1       2.414   7.240  19.140  0.00  0.00    +0.000 A 
ATOM      6  C   UNL     1       1.890   7.664  20.354  0.00  0.00    +0.000 A 
ENDROOT
BRANCH   1   8
ATOM      7  O   UNL     1       1.334   9.467  22.923  0.00  0.00    +0.000 OA
ATOM      8  S   UNL     1       0.269   9.229  21.947  0.00  0.00    +0.000 S 
ATOM      9  O   UNL     1      -0.705   8.186  22.181  0.00  0.00    +0.000 OA
BRANCH   8  10
ATOM     10  C   UNL     1      -0.558  10.715  21.635  0.00  0.00    +0.000 C 
ATOM     11  C   UNL     1      -1.215  11.345  22.633  0.00  0.00    +0.000 C 
BRANCH  11  12
ATOM     12  C   UNL     1      -2.041  12.539  22.398  0.00  0.00    +0.000 A 
ATOM     13  N   UNL     1      -1.607  13.372  21.410  0.00  0.00    +0.000 NA
ATOM     14  C   UNL     1      -2.321  14.493  21.175  0.00  0.00    +0.000 A 
ATOM     15  C   UNL     1      -3.464  14.844  21.883  0.00  0.00    +0.000 A 
ATOM     16  C   UNL     1      -3.907  13.983  22.874  0.00  0.00    +0.000 A 
ATOM     17  C   UNL     1      -3.193  12.814  23.133  0.00  0.00    +0.000 A 
ATOM     18  F   UNL     1      -3.624  11.988  24.093  0.00  0.00    +0.000 F 
ENDBRANCH  11  12
ENDBRANCH   8  10
ENDBRANCH   1   8
BRANCH   5  19
ATOM     19  O   UNL     1       3.055   6.049  18.961  0.00  0.00    +0.000 OA
BRANCH  19  20
ATOM     20  C   UNL     1       3.849   5.951  17.772  0.00  0.00    +0.000 C 
BRANCH  20  21
ATOM     21  C   UNL     1       3.693   4.540  17.232  0.00  0.00    +0.000 C 
BRANCH  21  22
ATOM     22  C   UNL     1       2.288   3.995  17.551  0.00  0.00    +0.000 C 
BRANCH  22  23
ATOM     23  N   UNL     1       2.266   2.598  18.015  0.00  0.00    +0.000 NA
ATOM     24  C   UNL     1       1.014   2.314  18.765  0.00  0.00    +0.000 C 
ATOM     25  C   UNL     1       0.985   2.945  20.170  0.00  0.00    +0.000 C 
ATOM     26  O   UNL     1       2.092   2.483  20.957  0.00  0.00    +0.000 OA
ATOM     27  C   UNL     1       3.326   2.828  20.314  0.00  0.00    +0.000 C 
ATOM     28  C   UNL     1       3.395   2.223  18.897  0.00  0.00    +0.000 C 
ENDBRANCH  22  23
ENDBRANCH  21  22
ENDBRANCH  20  21
ENDBRANCH  19  20
ENDBRANCH   5  19
TORSDOF 8
ENDMDL
MODEL 9
REMARK VINA RESULT:      -7.3      7.353      9.869
REMARK  Name = 
REMARK  8 active torsions:
REMARK  status: ('A' for Active; 'I' for Inactive)
REMARK    1  A    between atoms: S_2  and  C_4
REMARK    2  A    between atoms: S_2  and  C_13
REMARK    3  A    between atoms: C_5  and  C_6
REMARK    4  A    between atoms: C_17  and  O_18
REMARK    5  A    between atoms: O_18  and  C_19
REMARK    6  A    between atoms: C_19  and  C_20
REMARK    7  A    between atoms: C_20  and  C_21
REMARK    8  A    between atoms: C_21  and  N_22
REMARK                            x       y       z     vdW  Elec       q    Type
REMARK                         _______ _______ _______ _____ _____    ______ ____
ROOT
ATOM      1  C   UNL     1       0.613   9.364  20.325  0.00  0.00    +0.000 A 
ATOM      2  C   UNL     1      -0.010  10.107  19.318  0.00  0.00    +0.000 A 
ATOM      3  C   UNL     1       0.396   9.948  17.987  0.00  0.00    +0.000 A 
ATOM      4  C   UNL     1       1.405   9.041  17.667  0.00  0.00    +0.000 A 
ATOM      5  C   UNL     1       2.051   8.337  18.688  0.00  0.00    +0.000 A 
ATOM      6  C   UNL     1       1.697   8.548  20.013  0.00  0.00    +0.000 A 
ENDROOT
BRANCH   1   8
ATOM      7  O   UNL     1       1.254   9.619  22.838  0.00  0.00    +0.000 OA
ATOM      8  S   UNL     1       0.046   9.467  22.025  0.00  0.00    +0.000 S 
ATOM      9  O   UNL     1      -0.826   8.332  22.232  0.00  0.00    +0.000 OA
BRANCH   8  10
ATOM     10  C   UNL     1      -0.886  10.920  22.116  0.00  0.00    +0.000 C 
ATOM     11  C   UNL     1      -1.537  11.236  23.257  0.00  0.00    +0.000 C 
BRANCH  11  12
ATOM     12  C   UNL     1      -2.447  12.387  23.350  0.00  0.00    +0.000 A 
ATOM     13  N   UNL     1      -3.776  12.098  23.257  0.00  0.00    +0.000 NA
ATOM     14  C   UNL     1      -4.648  13.127  23.313  0.00  0.00    +0.000 A 
ATOM     15  C   UNL     1      -4.267  14.455  23.456  0.00  0.00    +0.000 A 
ATOM     16  C   UNL     1      -2.915  14.739  23.566  0.00  0.00    +0.000 A 
ATOM     17  C   UNL     1      -1.993  13.694  23.519  0.00  0.00    +0.000 A 
ATOM     18  F   UNL     1      -0.689  13.974  23.622  0.00  0.00    +0.000 F 
ENDBRANCH  11  12
ENDBRANCH   8  10
ENDBRANCH   1   8
BRANCH   5  19
ATOM     19  O   UNL     1       2.986   7.429  18.284  0.00  0.00    +0.000 OA
BRANCH  19  20
ATOM     20  C   UNL     1       2.945   6.164  18.955  0.00  0.00    +0.000 C 
BRANCH  20  21
ATOM     21  C   UNL     1       2.942   5.081  17.891  0.00  0.00    +0.000 C 
BRANCH  21  22
ATOM     22  C   UNL     1       4.379   4.607  17.603  0.00  0.00    +0.000 C 
BRANCH  22  23
ATOM     23  N   UNL     1       5.291   5.666  17.142  0.00  0.00    +0.000 NA
ATOM     24  C   UNL     1       5.671   5.451  15.721  0.00  0.00    +0.000 C 
ATOM     25  C   UNL     1       6.666   4.292  15.521  0.00  0.00    +0.000 C 
ATOM     26  O   UNL     1       7.866   4.517  16.276  0.00  0.00    +0.000 OA
ATOM     27  C   UNL     1       7.551   4.631  17.670  0.00  0.00    +0.000 C 
ATOM     28  C   UNL     1       6.549   5.776  17.916  0.00  0.00    +0.000 C 
ENDBRANCH  22  23
ENDBRANCH  21  22
ENDBRANCH  20  21
ENDBRANCH  19  20
ENDBRANCH   5  19
TORSDOF 8
ENDMDL
