MODEL 1
REMARK VINA RESULT:      -6.9      0.000      0.000
REMARK  Name = 
REMARK  8 active torsions:
REMARK  status: ('A' for Active; 'I' for Inactive)
REMARK    1  A    between atoms: C_1  and  C_2
REMARK    2  A    between atoms: C_2  and  N_3
REMARK    3  A    between atoms: N_3  and  C_4
REMARK    4  A    between atoms: C_4  and  C_5
REMARK    5  A    between atoms: C_6  and  C_8
REMARK    6  A    between atoms: C_11  and  C_12
REMARK    7  A    between atoms: C_12  and  O_13
REMARK    8  A    between atoms: O_13  and  C_14
REMARK                            x       y       z     vdW  Elec       q    Type
REMARK                         _______ _______ _______ _____ _____    ______ ____
ROOT
ATOM      1  C   UNL     1       6.136   5.070  15.080  0.00  0.00    +0.000 A 
ATOM      2  C   UNL     1       5.242   6.087  15.373  0.00  0.00    +0.000 A 
ATOM      3  C   UNL     1       4.758   5.847  16.682  0.00  0.00    +0.000 A 
ATOM      4  C   UNL     1       5.405   4.719  17.138  0.00  0.00    +0.000 A 
ATOM      5  O   UNL     1       6.252   4.257  16.179  0.00  0.00    +0.000 OA
ENDROOT
BRANCH   1   7
ATOM      6  N   UNL     1       6.425   3.995  12.862  0.00  0.00    +0.000 N 
ATOM      7  C   UNL     1       6.931   4.839  13.877  0.00  0.00    +0.000 C 
ATOM      8  O   UNL     1       8.028   5.382  13.741  0.00  0.00    +0.000 OA
BRANCH   6  10
ATOM      9  C   UNL     1       7.308   2.172  11.402  0.00  0.00    +0.000 C 
ATOM     10  C   UNL     1       7.330   3.652  11.760  0.00  0.00    +0.000 C 
ENDBRANCH   6  10
BRANCH   6  11
ATOM     11  C   UNL     1       5.054   3.472  12.903  0.00  0.00    +0.000 C 
ATOM     12  C   UNL     1       4.251   3.416  11.615  0.00  0.00    +0.000 C 
ENDBRANCH   6  11
ENDBRANCH   1   7
BRANCH   4  13
ATOM     13  C   UNL     1       5.372   3.986  18.435  0.00  0.00    +0.000 C 
BRANCH  13  14
ATOM     14  O   UNL     1       4.719   4.845  19.367  0.00  0.00    +0.000 OA
BRANCH  14  15
ATOM     15  C   UNL     1       3.491   4.467  19.844  0.00  0.00    +0.000 A 
ATOM     16  C   UNL     1       3.344   3.074  19.954  0.00  0.00    +0.000 A 
ATOM     17  C   UNL     1       2.122   2.495  20.311  0.00  0.00    +0.000 A 
ATOM     18  C   UNL     1       1.021   3.304  20.562  0.00  0.00    +0.000 A 
ATOM     19  C   UNL     1       1.149   4.687  20.455  0.00  0.00    +0.000 A 
ATOM     20  C   UNL     1       2.370   5.274  20.089  0.00  0.00    +0.000 A 
ATOM     21 CL   UNL     1       2.327   6.987  19.878  0.00  0.00    +0.000 Cl
ENDBRANCH  14  15
ENDBRANCH  13  14
ENDBRANCH   4  13
TORSDOF 6
ENDMDL
MODEL 2
REMARK VINA RESULT:      -6.8      3.059      7.219
REMARK  Name = 
REMARK  8 active torsions:
REMARK  status: ('A' for Active; 'I' for Inactive)
REMARK    1  A    between atoms: C_1  and  C_2
REMARK    2  A    between atoms: C_2  and  N_3
REMARK    3  A    between atoms: N_3  and  C_4
REMARK    4  A    between atoms: C_4  and  C_5
REMARK    5  A    between atoms: C_6  and  C_8
REMARK    6  A    between atoms: C_11  and  C_12
REMARK    7  A    between atoms: C_12  and  O_13
REMARK    8  A    between atoms: O_13  and  C_14
REMARK                            x       y       z     vdW  Elec       q    Type
REMARK                         _______ _______ _______ _____ _____    ______ ____
ROOT
ATOM      1  C   UNL     1       5.236   4.087  19.036  0.00  0.00    +0.000 A 
ATOM      2  C   UNL     1       5.553   5.367  19.459  0.00  0.00    +0.000 A 
ATOM      3  C   UNL     1       6.498   5.883  18.540  0.00  0.00    +0.000 A 
ATOM      4  C   UNL     1       6.685   4.909  17.583  0.00  0.00    +0.000 A 
ATOM      5  O   UNL     1       5.910   3.829  17.869  0.00  0.00    +0.000 OA
ENDROOT
BRANCH   1   7
ATOM      6  N   UNL     1       2.919   3.375  19.569  0.00  0.00    +0.000 N 
ATOM      7  C   UNL     1       4.307   3.114  19.607  0.00  0.00    +0.000 C 
ATOM      8  O   UNL     1       4.728   2.070  20.108  0.00  0.00    +0.000 OA
BRANCH   6  10
ATOM      9  C   UNL     1       1.697   2.958  21.706  0.00  0.00    +0.000 C 
ATOM     10  C   UNL     1       2.042   2.461  20.310  0.00  0.00    +0.000 C 
ENDBRANCH   6  10
BRANCH   6  11
ATOM     11  C   UNL     1       2.366   4.515  18.828  0.00  0.00    +0.000 C 
ATOM     12  C   UNL     1       1.655   4.259  17.511  0.00  0.00    +0.000 C 
ENDBRANCH   6  11
ENDBRANCH   1   7
BRANCH   4  13
ATOM     13  C   UNL     1       7.506   4.853  16.339  0.00  0.00    +0.000 C 
BRANCH  13  14
ATOM     14  O   UNL     1       6.767   5.549  15.338  0.00  0.00    +0.000 OA
BRANCH  14  15
ATOM     15  C   UNL     1       6.604   4.945  14.118  0.00  0.00    +0.000 A 
ATOM     16  C   UNL     1       5.504   4.072  14.074  0.00  0.00    +0.000 A 
ATOM     17  C   UNL     1       5.247   3.277  12.953  0.00  0.00    +0.000 A 
ATOM     18  C   UNL     1       6.093   3.341  11.852  0.00  0.00    +0.000 A 
ATOM     19  C   UNL     1       7.190   4.199  11.880  0.00  0.00    +0.000 A 
ATOM     20  C   UNL     1       7.458   4.994  13.006  0.00  0.00    +0.000 A 
ATOM     21 CL   UNL     1       8.923   5.904  12.930  0.00  0.00    +0.000 Cl
ENDBRANCH  14  15
ENDBRANCH  13  14
ENDBRANCH   4  13
TORSDOF 6
ENDMDL
MODEL 3
REMARK VINA RESULT:      -6.8      3.133      7.444
REMARK  Name = 
REMARK  8 active torsions:
REMARK  status: ('A' for Active; 'I' for Inactive)
REMARK    1  A    between atoms: C_1  and  C_2
REMARK    2  A    between atoms: C_2  and  N_3
REMARK    3  A    between atoms: N_3  and  C_4
REMARK    4  A    between atoms: C_4  and  C_5
REMARK    5  A    between atoms: C_6  and  C_8
REMARK    6  A    between atoms: C_11  and  C_12
REMARK    7  A    between atoms: C_12  and  O_13
REMARK    8  A    between atoms: O_13  and  C_14
REMARK                            x       y       z     vdW  Elec       q    Type
REMARK                         _______ _______ _______ _____ _____    ______ ____
ROOT
ATOM      1  C   UNL     1       3.541   4.981  17.774  0.00  0.00    +0.000 A 
ATOM      2  C   UNL     1       3.702   6.325  17.486  0.00  0.00    +0.000 A 
ATOM      3  C   UNL     1       5.032   6.494  17.030  0.00  0.00    +0.000 A 
ATOM      4  C   UNL     1       5.606   5.241  17.029  0.00  0.00    +0.000 A 
ATOM      5  O   UNL     1       4.702   4.321  17.461  0.00  0.00    +0.000 OA
ENDROOT
BRANCH   1   7
ATOM      6  N   UNL     1       1.911   4.487  19.581  0.00  0.00    +0.000 N 
ATOM      7  C   UNL     1       2.367   4.261  18.262  0.00  0.00    +0.000 C 
ATOM      8  O   UNL     1       1.770   3.471  17.528  0.00  0.00    +0.000 OA
BRANCH   6  10
ATOM      9  C   UNL     1       1.279   2.747  21.256  0.00  0.00    +0.000 C 
ATOM     10  C   UNL     1       0.844   3.615  20.083  0.00  0.00    +0.000 C 
ENDBRANCH   6  10
BRANCH   6  11
ATOM     11  C   UNL     1       2.481   5.544  20.425  0.00  0.00    +0.000 C 
ATOM     12  C   UNL     1       1.747   6.870  20.537  0.00  0.00    +0.000 C 
ENDBRANCH   6  11
ENDBRANCH   1   7
BRANCH   4  13
ATOM     13  C   UNL     1       6.950   4.741  16.621  0.00  0.00    +0.000 C 
BRANCH  13  14
ATOM     14  O   UNL     1       7.314   5.475  15.454  0.00  0.00    +0.000 OA
BRANCH  14  15
ATOM     15  C   UNL     1       7.006   4.940  14.230  0.00  0.00    +0.000 A 
ATOM     16  C   UNL     1       5.952   4.012  14.282  0.00  0.00    +0.000 A 
ATOM     17  C   UNL     1       5.574   3.274  13.155  0.00  0.00    +0.000 A 
ATOM     18  C   UNL     1       6.249   3.452  11.954  0.00  0.00    +0.000 A 
ATOM     19  C   UNL     1       7.298   4.367  11.886  0.00  0.00    +0.000 A 
ATOM     20  C   UNL     1       7.688   5.104  13.016  0.00  0.00    +0.000 A 
ATOM     21 CL   UNL     1       9.083   6.097  12.797  0.00  0.00    +0.000 Cl
ENDBRANCH  14  15
ENDBRANCH  13  14
ENDBRANCH   4  13
TORSDOF 6
ENDMDL
MODEL 4
REMARK VINA RESULT:      -6.7      3.024      7.164
REMARK  Name = 
REMARK  8 active torsions:
REMARK  status: ('A' for Active; 'I' for Inactive)
REMARK    1  A    between atoms: C_1  and  C_2
REMARK    2  A    between atoms: C_2  and  N_3
REMARK    3  A    between atoms: N_3  and  C_4
REMARK    4  A    between atoms: C_4  and  C_5
REMARK    5  A    between atoms: C_6  and  C_8
REMARK    6  A    between atoms: C_11  and  C_12
REMARK    7  A    between atoms: C_12  and  O_13
REMARK    8  A    between atoms: O_13  and  C_14
REMARK                            x       y       z     vdW  Elec       q    Type
REMARK                         _______ _______ _______ _____ _____    ______ ____
ROOT
ATOM      1  C   UNL     1       4.759   5.013  18.598  0.00  0.00    +0.000 A 
ATOM      2  C   UNL     1       5.716   5.495  19.476  0.00  0.00    +0.000 A 
ATOM      3  C   UNL     1       6.966   5.397  18.818  0.00  0.00    +0.000 A 
ATOM      4  C   UNL     1       6.708   4.895  17.561  0.00  0.00    +0.000 A 
ATOM      5  O   UNL     1       5.373   4.680  17.417  0.00  0.00    +0.000 OA
ENDROOT
BRANCH   1   7
ATOM      6  N   UNL     1       2.742   3.642  19.061  0.00  0.00    +0.000 N 
ATOM      7  C   UNL     1       3.311   4.900  18.759  0.00  0.00    +0.000 C 
ATOM      8  O   UNL     1       2.592   5.893  18.645  0.00  0.00    +0.000 OA
BRANCH   6  10
ATOM      9  C   UNL     1       0.658   3.465  20.425  0.00  0.00    +0.000 C 
ATOM     10  C   UNL     1       1.279   3.541  19.037  0.00  0.00    +0.000 C 
ENDBRANCH   6  10
BRANCH   6  11
ATOM     11  C   UNL     1       3.573   2.474  19.380  0.00  0.00    +0.000 C 
ATOM     12  C   UNL     1       3.676   1.347  18.367  0.00  0.00    +0.000 C 
ENDBRANCH   6  11
ENDBRANCH   1   7
BRANCH   4  13
ATOM     13  C   UNL     1       7.579   4.607  16.386  0.00  0.00    +0.000 C 
BRANCH  13  14
ATOM     14  O   UNL     1       7.161   5.490  15.348  0.00  0.00    +0.000 OA
BRANCH  14  15
ATOM     15  C   UNL     1       6.902   4.959  14.111  0.00  0.00    +0.000 A 
ATOM     16  C   UNL     1       5.812   4.072  14.106  0.00  0.00    +0.000 A 
ATOM     17  C   UNL     1       5.470   3.342  12.963  0.00  0.00    +0.000 A 
ATOM     18  C   UNL     1       6.219   3.487  11.802  0.00  0.00    +0.000 A 
ATOM     19  C   UNL     1       7.305   4.360  11.790  0.00  0.00    +0.000 A 
ATOM     20  C   UNL     1       7.658   5.089  12.937  0.00  0.00    +0.000 A 
ATOM     21 CL   UNL     1       9.101   6.027  12.794  0.00  0.00    +0.000 Cl
ENDBRANCH  14  15
ENDBRANCH  13  14
ENDBRANCH   4  13
TORSDOF 6
ENDMDL
MODEL 5
REMARK VINA RESULT:      -6.7      3.011      7.117
REMARK  Name = 
REMARK  8 active torsions:
REMARK  status: ('A' for Active; 'I' for Inactive)
REMARK    1  A    between atoms: C_1  and  C_2
REMARK    2  A    between atoms: C_2  and  N_3
REMARK    3  A    between atoms: N_3  and  C_4
REMARK    4  A    between atoms: C_4  and  C_5
REMARK    5  A    between atoms: C_6  and  C_8
REMARK    6  A    between atoms: C_11  and  C_12
REMARK    7  A    between atoms: C_12  and  O_13
REMARK    8  A    between atoms: O_13  and  C_14
REMARK                            x       y       z     vdW  Elec       q    Type
REMARK                         _______ _______ _______ _____ _____    ______ ____
ROOT
ATOM      1  C   UNL     1       5.152   4.357  18.908  0.00  0.00    +0.000 A 
ATOM      2  C   UNL     1       5.923   5.315  19.546  0.00  0.00    +0.000 A 
ATOM      3  C   UNL     1       6.994   5.631  18.675  0.00  0.00    +0.000 A 
ATOM      4  C   UNL     1       6.807   4.879  17.536  0.00  0.00    +0.000 A 
ATOM      5  O   UNL     1       5.684   4.122  17.665  0.00  0.00    +0.000 OA
ENDROOT
BRANCH   1   7
ATOM      6  N   UNL     1       2.674   4.229  18.972  0.00  0.00    +0.000 N 
ATOM      7  C   UNL     1       3.928   3.694  19.347  0.00  0.00    +0.000 C 
ATOM      8  O   UNL     1       3.984   2.671  20.031  0.00  0.00    +0.000 OA
BRANCH   6  10
ATOM      9  C   UNL     1       0.824   2.573  18.712  0.00  0.00    +0.000 C 
ATOM     10  C   UNL     1       1.479   3.637  19.582  0.00  0.00    +0.000 C 
ENDBRANCH   6  10
BRANCH   6  11
ATOM     11  C   UNL     1       2.562   5.338  18.016  0.00  0.00    +0.000 C 
ATOM     12  C   UNL     1       2.521   6.762  18.544  0.00  0.00    +0.000 C 
ENDBRANCH   6  11
ENDBRANCH   1   7
BRANCH   4  13
ATOM     13  C   UNL     1       7.550   4.789  16.247  0.00  0.00    +0.000 C 
BRANCH  13  14
ATOM     14  O   UNL     1       6.754   5.463  15.275  0.00  0.00    +0.000 OA
BRANCH  14  15
ATOM     15  C   UNL     1       6.618   4.887  14.038  0.00  0.00    +0.000 A 
ATOM     16  C   UNL     1       5.536   3.995  13.958  0.00  0.00    +0.000 A 
ATOM     17  C   UNL     1       5.309   3.225  12.813  0.00  0.00    +0.000 A 
ATOM     18  C   UNL     1       6.167   3.333  11.726  0.00  0.00    +0.000 A 
ATOM     19  C   UNL     1       7.247   4.211  11.789  0.00  0.00    +0.000 A 
ATOM     20  C   UNL     1       7.485   4.981  12.939  0.00  0.00    +0.000 A 
ATOM     21 CL   UNL     1       8.932   5.921  12.905  0.00  0.00    +0.000 Cl
ENDBRANCH  14  15
ENDBRANCH  13  14
ENDBRANCH   4  13
TORSDOF 6
ENDMDL
MODEL 6
REMARK VINA RESULT:      -6.6      3.055      7.248
REMARK  Name = 
REMARK  8 active torsions:
REMARK  status: ('A' for Active; 'I' for Inactive)
REMARK    1  A    between atoms: C_1  and  C_2
REMARK    2  A    between atoms: C_2  and  N_3
REMARK    3  A    between atoms: N_3  and  C_4
REMARK    4  A    between atoms: C_4  and  C_5
REMARK    5  A    between atoms: C_6  and  C_8
REMARK    6  A    between atoms: C_11  and  C_12
REMARK    7  A    between atoms: C_12  and  O_13
REMARK    8  A    between atoms: O_13  and  C_14
REMARK                            x       y       z     vdW  Elec       q    Type
REMARK                         _______ _______ _______ _____ _____    ______ ____
ROOT
ATOM      1  C   UNL     1       3.827   5.839  18.461  0.00  0.00    +0.000 A 
ATOM      2  C   UNL     1       3.822   6.861  17.526  0.00  0.00    +0.000 A 
ATOM      3  C   UNL     1       4.967   6.684  16.713  0.00  0.00    +0.000 A 
ATOM      4  C   UNL     1       5.597   5.545  17.167  0.00  0.00    +0.000 A 
ATOM      5  O   UNL     1       4.900   5.020  18.211  0.00  0.00    +0.000 OA
ENDROOT
BRANCH   1   7
ATOM      6  N   UNL     1       2.430   4.208  19.705  0.00  0.00    +0.000 N 
ATOM      7  C   UNL     1       2.875   5.537  19.526  0.00  0.00    +0.000 C 
ATOM      8  O   UNL     1       2.469   6.431  20.271  0.00  0.00    +0.000 OA
BRANCH   6  10
ATOM      9  C   UNL     1       1.516   2.711  21.482  0.00  0.00    +0.000 C 
ATOM     10  C   UNL     1       1.344   3.984  20.665  0.00  0.00    +0.000 C 
ENDBRANCH   6  10
BRANCH   6  11
ATOM     11  C   UNL     1       3.019   3.089  18.960  0.00  0.00    +0.000 C 
ATOM     12  C   UNL     1       2.298   2.563  17.731  0.00  0.00    +0.000 C 
ENDBRANCH   6  11
ENDBRANCH   1   7
BRANCH   4  13
ATOM     13  C   UNL     1       6.810   4.807  16.712  0.00  0.00    +0.000 C 
BRANCH  13  14
ATOM     14  O   UNL     1       7.271   5.474  15.540  0.00  0.00    +0.000 OA
BRANCH  14  15
ATOM     15  C   UNL     1       6.965   4.926  14.321  0.00  0.00    +0.000 A 
ATOM     16  C   UNL     1       5.914   3.995  14.381  0.00  0.00    +0.000 A 
ATOM     17  C   UNL     1       5.538   3.246  13.261  0.00  0.00    +0.000 A 
ATOM     18  C   UNL     1       6.214   3.414  12.059  0.00  0.00    +0.000 A 
ATOM     19  C   UNL     1       7.260   4.331  11.983  0.00  0.00    +0.000 A 
ATOM     20  C   UNL     1       7.647   5.081  13.105  0.00  0.00    +0.000 A 
ATOM     21 CL   UNL     1       9.040   6.076  12.878  0.00  0.00    +0.000 Cl
ENDBRANCH  14  15
ENDBRANCH  13  14
ENDBRANCH   4  13
TORSDOF 6
ENDMDL
MODEL 7
REMARK VINA RESULT:      -6.6      5.409      8.055
REMARK  Name = 
REMARK  8 active torsions:
REMARK  status: ('A' for Active; 'I' for Inactive)
REMARK    1  A    between atoms: C_1  and  C_2
REMARK    2  A    between atoms: C_2  and  N_3
REMARK    3  A    between atoms: N_3  and  C_4
REMARK    4  A    between atoms: C_4  and  C_5
REMARK    5  A    between atoms: C_6  and  C_8
REMARK    6  A    between atoms: C_11  and  C_12
REMARK    7  A    between atoms: C_12  and  O_13
REMARK    8  A    between atoms: O_13  and  C_14
REMARK                            x       y       z     vdW  Elec       q    Type
REMARK                         _______ _______ _______ _____ _____    ______ ____
ROOT
ATOM      1  C   UNL     1       1.312   9.857  18.956  0.00  0.00    +0.000 A 
ATOM      2  C   UNL     1       1.927   9.383  17.809  0.00  0.00    +0.000 A 
ATOM      3  C   UNL     1       2.361   8.065  18.086  0.00  0.00    +0.000 A 
ATOM      4  C   UNL     1       1.959   7.784  19.375  0.00  0.00    +0.000 A 
ATOM      5  O   UNL     1       1.308   8.858  19.897  0.00  0.00    +0.000 OA
ENDROOT
BRANCH   1   7
ATOM      6  N   UNL     1      -0.702  11.308  18.946  0.00  0.00    +0.000 N 
ATOM      7  C   UNL     1       0.677  11.146  19.215  0.00  0.00    +0.000 C 
ATOM      8  O   UNL     1       1.332  12.083  19.674  0.00  0.00    +0.000 OA
BRANCH   6  10
ATOM      9  C   UNL     1      -2.475  12.746  19.957  0.00  0.00    +0.000 C 
ATOM     10  C   UNL     1      -1.254  12.663  19.051  0.00  0.00    +0.000 C 
ENDBRANCH   6  10
BRANCH   6  11
ATOM     11  C   UNL     1      -1.554  10.174  18.569  0.00  0.00    +0.000 C 
ATOM     12  C   UNL     1      -1.922   9.986  17.107  0.00  0.00    +0.000 C 
ENDBRANCH   6  11
ENDBRANCH   1   7
BRANCH   4  13
ATOM     13  C   UNL     1       2.068   6.567  20.228  0.00  0.00    +0.000 C 
BRANCH  13  14
ATOM     14  O   UNL     1       3.184   5.829  19.736  0.00  0.00    +0.000 OA
BRANCH  14  15
ATOM     15  C   UNL     1       2.962   4.565  19.255  0.00  0.00    +0.000 A 
ATOM     16  C   UNL     1       3.043   4.484  17.854  0.00  0.00    +0.000 A 
ATOM     17  C   UNL     1       2.731   3.303  17.172  0.00  0.00    +0.000 A 
ATOM     18  C   UNL     1       2.329   2.180  17.884  0.00  0.00    +0.000 A 
ATOM     19  C   UNL     1       2.242   2.243  19.273  0.00  0.00    +0.000 A 
ATOM     20  C   UNL     1       2.546   3.428  19.963  0.00  0.00    +0.000 A 
ATOM     21 CL   UNL     1       2.264   3.378  21.666  0.00  0.00    +0.000 Cl
ENDBRANCH  14  15
ENDBRANCH  13  14
ENDBRANCH   4  13
TORSDOF 6
ENDMDL
MODEL 8
REMARK VINA RESULT:      -6.6      2.996      7.487
REMARK  Name = 
REMARK  8 active torsions:
REMARK  status: ('A' for Active; 'I' for Inactive)
REMARK    1  A    between atoms: C_1  and  C_2
REMARK    2  A    between atoms: C_2  and  N_3
REMARK    3  A    between atoms: N_3  and  C_4
REMARK    4  A    between atoms: C_4  and  C_5
REMARK    5  A    between atoms: C_6  and  C_8
REMARK    6  A    between atoms: C_11  and  C_12
REMARK    7  A    between atoms: C_12  and  O_13
REMARK    8  A    between atoms: O_13  and  C_14
REMARK                            x       y       z     vdW  Elec       q    Type
REMARK                         _______ _______ _______ _____ _____    ______ ____
ROOT
ATOM      1  C   UNL     1       4.517   4.143  18.665  0.00  0.00    +0.000 A 
ATOM      2  C   UNL     1       5.568   4.787  19.295  0.00  0.00    +0.000 A 
ATOM      3  C   UNL     1       6.169   5.636  18.334  0.00  0.00    +0.000 A 
ATOM      4  C   UNL     1       5.435   5.496  17.176  0.00  0.00    +0.000 A 
ATOM      5  O   UNL     1       4.424   4.609  17.377  0.00  0.00    +0.000 OA
ENDROOT
BRANCH   1   7
ATOM      6  N   UNL     1       2.274   3.612  19.586  0.00  0.00    +0.000 N 
ATOM      7  C   UNL     1       3.559   3.175  19.193  0.00  0.00    +0.000 C 
ATOM      8  O   UNL     1       3.862   1.984  19.285  0.00  0.00    +0.000 OA
BRANCH   6  10
ATOM      9  C   UNL     1       1.543   2.692  21.789  0.00  0.00    +0.000 C 
ATOM     10  C   UNL     1       1.414   2.643  20.273  0.00  0.00    +0.000 C 
ENDBRANCH   6  10
BRANCH   6  11
ATOM     11  C   UNL     1       1.811   4.981  19.329  0.00  0.00    +0.000 C 
ATOM     12  C   UNL     1       1.923   6.015  20.437  0.00  0.00    +0.000 C 
ENDBRANCH   6  11
ENDBRANCH   1   7
BRANCH   4  13
ATOM     13  C   UNL     1       5.523   6.142  15.835  0.00  0.00    +0.000 C 
BRANCH  13  14
ATOM     14  O   UNL     1       6.735   5.678  15.244  0.00  0.00    +0.000 OA
BRANCH  14  15
ATOM     15  C   UNL     1       6.660   5.025  14.042  0.00  0.00    +0.000 A 
ATOM     16  C   UNL     1       5.592   4.113  13.972  0.00  0.00    +0.000 A 
ATOM     17  C   UNL     1       5.424   3.269  12.870  0.00  0.00    +0.000 A 
ATOM     18  C   UNL     1       6.327   3.322  11.815  0.00  0.00    +0.000 A 
ATOM     19  C   UNL     1       7.392   4.218  11.869  0.00  0.00    +0.000 A 
ATOM     20  C   UNL     1       7.571   5.062  12.976  0.00  0.00    +0.000 A 
ATOM     21 CL   UNL     1       9.008   6.019  12.944  0.00  0.00    +0.000 Cl
ENDBRANCH  14  15
ENDBRANCH  13  14
ENDBRANCH   4  13
TORSDOF 6
ENDMDL
MODEL 9
REMARK VINA RESULT:      -6.6      1.503      1.774
REMARK  Name = 
REMARK  8 active torsions:
REMARK  status: ('A' for Active; 'I' for Inactive)
REMARK    1  A    between atoms: C_1  and  C_2
REMARK    2  A    between atoms: C_2  and  N_3
REMARK    3  A    between atoms: N_3  and  C_4
REMARK    4  A    between atoms: C_4  and  C_5
REMARK    5  A    between atoms: C_6  and  C_8
REMARK    6  A    between atoms: C_11  and  C_12
REMARK    7  A    between atoms: C_12  and  O_13
REMARK    8  A    between atoms: O_13  and  C_14
REMARK                            x       y       z     vdW  Elec       q    Type
REMARK                         _______ _______ _______ _____ _____    ______ ____
ROOT
ATOM      1  C   UNL     1       6.287   5.175  14.911  0.00  0.00    +0.000 A 
ATOM      2  C   UNL     1       5.355   6.175  15.134  0.00  0.00    +0.000 A 
ATOM      3  C   UNL     1       4.932   6.053  16.480  0.00  0.00    +0.000 A 
ATOM      4  C   UNL     1       5.650   5.009  17.022  0.00  0.00    +0.000 A 
ATOM      5  O   UNL     1       6.484   4.488  16.082  0.00  0.00    +0.000 OA
ENDROOT
BRANCH   1   7
ATOM      6  N   UNL     1       6.512   3.945  12.767  0.00  0.00    +0.000 N 
ATOM      7  C   UNL     1       7.048   4.855  13.706  0.00  0.00    +0.000 C 
ATOM      8  O   UNL     1       8.143   5.382  13.502  0.00  0.00    +0.000 OA
BRANCH   6  10
ATOM      9  C   UNL     1       7.247   2.042  11.327  0.00  0.00    +0.000 C 
ATOM     10  C   UNL     1       7.385   3.519  11.667  0.00  0.00    +0.000 C 
ENDBRANCH   6  10
BRANCH   6  11
ATOM     11  C   UNL     1       5.141   3.434  12.881  0.00  0.00    +0.000 C 
ATOM     12  C   UNL     1       4.263   3.399  11.642  0.00  0.00    +0.000 C 
ENDBRANCH   6  11
ENDBRANCH   1   7
BRANCH   4  13
ATOM     13  C   UNL     1       5.702   4.416  18.389  0.00  0.00    +0.000 C 
BRANCH  13  14
ATOM     14  O   UNL     1       4.488   4.789  19.035  0.00  0.00    +0.000 OA
BRANCH  14  15
ATOM     15  C   UNL     1       3.430   3.919  18.975  0.00  0.00    +0.000 A 
ATOM     16  C   UNL     1       2.317   4.446  18.298  0.00  0.00    +0.000 A 
ATOM     17  C   UNL     1       1.104   3.752  18.236  0.00  0.00    +0.000 A 
ATOM     18  C   UNL     1       0.984   2.515  18.857  0.00  0.00    +0.000 A 
ATOM     19  C   UNL     1       2.076   1.979  19.536  0.00  0.00    +0.000 A 
ATOM     20  C   UNL     1       3.294   2.674  19.608  0.00  0.00    +0.000 A 
ATOM     21 CL   UNL     1       4.504   1.933  20.591  0.00  0.00    +0.000 Cl
ENDBRANCH  14  15
ENDBRANCH  13  14
ENDBRANCH   4  13
TORSDOF 6
ENDMDL
