MODEL 1
REMARK VINA RESULT:      -8.2      0.000      0.000
REMARK  Name = 
REMARK  5 active torsions:
REMARK  status: ('A' for Active; 'I' for Inactive)
REMARK    1  A    between atoms: C_5  and  C_6
REMARK    2  A    between atoms: N_8  and  C_9
REMARK    3  A    between atoms: C_9  and  C_10
REMARK    4  A    between atoms: C_13  and  O_14
REMARK    5  A    between atoms: O_14  and  C_15
REMARK                            x       y       z     vdW  Elec       q    Type
REMARK                         _______ _______ _______ _____ _____    ______ ____
ROOT
ATOM      1  C   UNL     1       4.005   2.511  19.300  0.00  0.00    +0.000 C 
ENDROOT
BRANCH   1   2
ATOM      2  C   UNL     1       3.042   3.553  19.768  0.00  0.00    +0.000 A 
ATOM      3  C   UNL     1       1.707   3.387  20.068  0.00  0.00    +0.000 A 
ATOM      4  C   UNL     1       1.081   4.612  20.426  0.00  0.00    +0.000 A 
ATOM      5  C   UNL     1       1.968   5.673  20.499  0.00  0.00    +0.000 A 
ATOM      6  S   UNL     1       3.523   5.187  19.958  0.00  0.00    +0.000 S 
BRANCH   5   7
ATOM      7  O   UNL     1       1.771   6.943  20.891  0.00  0.00    +0.000 OA
BRANCH   7   8
ATOM      8  C   UNL     1       1.666   7.954  19.961  0.00  0.00    +0.000 A 
ATOM      9  C   UNL     1       2.213   7.849  18.676  0.00  0.00    +0.000 A 
ATOM     10  C   UNL     1       2.133   8.920  17.785  0.00  0.00    +0.000 A 
ATOM     11  C   UNL     1       1.456  10.077  18.160  0.00  0.00    +0.000 A 
ATOM     12  C   UNL     1       0.856  10.146  19.415  0.00  0.00    +0.000 A 
ATOM     13  F   UNL     1       0.182  11.252  19.756  0.00  0.00    +0.000 F 
ATOM     14  C   UNL     1       0.951   9.096  20.322  0.00  0.00    +0.000 A 
ENDBRANCH   7   8
ENDBRANCH   5   7
ENDBRANCH   1   2
BRANCH   1  17
ATOM     15  C   UNL     1       4.345   3.470  17.052  0.00  0.00    +0.000 C 
ATOM     16  O   UNL     1       3.162   3.382  16.743  0.00  0.00    +0.000 OA
ATOM     17  N   UNL     1       4.853   3.062  18.267  0.00  0.00    +0.000 N 
ATOM     18  H   UNL     1       5.850   2.951  18.382  0.00  0.00    +0.000 HD
BRANCH  15  23
ATOM     19  N   UNL     1       8.274   5.643  13.670  0.00  0.00    +0.000 N 
ATOM     20  C   UNL     1       7.258   5.115  14.460  0.00  0.00    +0.000 A 
ATOM     21  C   UNL     1       6.291   4.287  13.905  0.00  0.00    +0.000 A 
ATOM     22  C   UNL     1       5.307   3.740  14.730  0.00  0.00    +0.000 A 
ATOM     23  C   UNL     1       5.322   4.031  16.092  0.00  0.00    +0.000 A 
ATOM     24  C   UNL     1       6.344   4.847  16.563  0.00  0.00    +0.000 A 
ATOM     25  N   UNL     1       7.301   5.400  15.772  0.00  0.00    +0.000 NA
ATOM     26  H   UNL     1       7.917   6.133  12.859  0.00  0.00    +0.000 HD
ATOM     27  H   UNL     1       8.834   6.247  14.266  0.00  0.00    +0.000 HD
ENDBRANCH  15  23
ENDBRANCH   1  17
TORSDOF 5
ENDMDL
MODEL 2
REMARK VINA RESULT:      -8.1      1.016      1.036
REMARK  Name = 
REMARK  5 active torsions:
REMARK  status: ('A' for Active; 'I' for Inactive)
REMARK    1  A    between atoms: C_5  and  C_6
REMARK    2  A    between atoms: N_8  and  C_9
REMARK    3  A    between atoms: C_9  and  C_10
REMARK    4  A    between atoms: C_13  and  O_14
REMARK    5  A    between atoms: O_14  and  C_15
REMARK                            x       y       z     vdW  Elec       q    Type
REMARK                         _______ _______ _______ _____ _____    ______ ____
ROOT
ATOM      1  C   UNL     1       4.163   2.841  19.362  0.00  0.00    +0.000 C 
ENDROOT
BRANCH   1   2
ATOM      2  C   UNL     1       3.092   3.785  19.803  0.00  0.00    +0.000 A 
ATOM      3  C   UNL     1       1.776   3.487  20.083  0.00  0.00    +0.000 A 
ATOM      4  C   UNL     1       1.023   4.645  20.418  0.00  0.00    +0.000 A 
ATOM      5  C   UNL     1       1.797   5.791  20.493  0.00  0.00    +0.000 A 
ATOM      6  S   UNL     1       3.402   5.460  19.982  0.00  0.00    +0.000 S 
BRANCH   5   7
ATOM      7  O   UNL     1       1.467   7.039  20.868  0.00  0.00    +0.000 OA
BRANCH   7   8
ATOM      8  C   UNL     1       1.499   8.074  19.960  0.00  0.00    +0.000 A 
ATOM      9  C   UNL     1       2.091   7.944  18.697  0.00  0.00    +0.000 A 
ATOM     10  C   UNL     1       2.151   9.036  17.831  0.00  0.00    +0.000 A 
ATOM     11  C   UNL     1       1.571  10.244  18.205  0.00  0.00    +0.000 A 
ATOM     12  C   UNL     1       0.923  10.343  19.434  0.00  0.00    +0.000 A 
ATOM     13  F   UNL     1       0.341  11.502  19.773  0.00  0.00    +0.000 F 
ATOM     14  C   UNL     1       0.878   9.271  20.317  0.00  0.00    +0.000 A 
ENDBRANCH   7   8
ENDBRANCH   5   7
ENDBRANCH   1   2
BRANCH   1  17
ATOM     15  C   UNL     1       5.832   3.964  17.933  0.00  0.00    +0.000 C 
ATOM     16  O   UNL     1       6.517   4.335  18.880  0.00  0.00    +0.000 OA
ATOM     17  N   UNL     1       4.664   3.245  18.067  0.00  0.00    +0.000 N 
ATOM     18  H   UNL     1       4.033   3.162  17.283  0.00  0.00    +0.000 HD
BRANCH  15  23
ATOM     19  N   UNL     1       7.668   5.362  12.808  0.00  0.00    +0.000 N 
ATOM     20  C   UNL     1       7.154   5.008  14.051  0.00  0.00    +0.000 A 
ATOM     21  C   UNL     1       6.225   3.982  14.164  0.00  0.00    +0.000 A 
ATOM     22  C   UNL     1       5.758   3.623  15.430  0.00  0.00    +0.000 A 
ATOM     23  C   UNL     1       6.238   4.297  16.549  0.00  0.00    +0.000 A 
ATOM     24  C   UNL     1       7.187   5.292  16.341  0.00  0.00    +0.000 A 
ATOM     25  N   UNL     1       7.642   5.665  15.116  0.00  0.00    +0.000 NA
ATOM     26  H   UNL     1       6.940   5.566  12.133  0.00  0.00    +0.000 HD
ATOM     27  H   UNL     1       8.287   6.155  12.953  0.00  0.00    +0.000 HD
ENDBRANCH  15  23
ENDBRANCH   1  17
TORSDOF 5
ENDMDL
MODEL 3
REMARK VINA RESULT:      -8.1      5.672      9.156
REMARK  Name = 
REMARK  5 active torsions:
REMARK  status: ('A' for Active; 'I' for Inactive)
REMARK    1  A    between atoms: C_5  and  C_6
REMARK    2  A    between atoms: N_8  and  C_9
REMARK    3  A    between atoms: C_9  and  C_10
REMARK    4  A    between atoms: C_13  and  O_14
REMARK    5  A    between atoms: O_14  and  C_15
REMARK                            x       y       z     vdW  Elec       q    Type
REMARK                         _______ _______ _______ _____ _____    ______ ____
ROOT
ATOM      1  C   UNL     1       1.044  10.609  18.012  0.00  0.00    +0.000 C 
ENDROOT
BRANCH   1   2
ATOM      2  C   UNL     1       1.412   9.412  18.826  0.00  0.00    +0.000 A 
ATOM      3  C   UNL     1       0.996   9.107  20.105  0.00  0.00    +0.000 A 
ATOM      4  C   UNL     1       1.595   7.915  20.594  0.00  0.00    +0.000 A 
ATOM      5  C   UNL     1       2.374   7.271  19.646  0.00  0.00    +0.000 A 
ATOM      6  S   UNL     1       2.498   8.230  18.227  0.00  0.00    +0.000 S 
BRANCH   5   7
ATOM      7  O   UNL     1       3.011   6.090  19.704  0.00  0.00    +0.000 OA
BRANCH   7   8
ATOM      8  C   UNL     1       2.301   4.909  19.673  0.00  0.00    +0.000 A 
ATOM      9  C   UNL     1       1.893   4.312  18.473  0.00  0.00    +0.000 A 
ATOM     10  C   UNL     1       1.126   3.147  18.490  0.00  0.00    +0.000 A 
ATOM     11  C   UNL     1       0.813   2.548  19.706  0.00  0.00    +0.000 A 
ATOM     12  C   UNL     1       1.282   3.111  20.891  0.00  0.00    +0.000 A 
ATOM     13  F   UNL     1       1.001   2.510  22.055  0.00  0.00    +0.000 F 
ATOM     14  C   UNL     1       2.026   4.285  20.889  0.00  0.00    +0.000 A 
ENDBRANCH   7   8
ENDBRANCH   5   7
ENDBRANCH   1   2
BRANCH   1  17
ATOM     15  C   UNL     1      -1.168  11.640  18.382  0.00  0.00    +0.000 C 
ATOM     16  O   UNL     1      -0.725  12.540  19.086  0.00  0.00    +0.000 OA
ATOM     17  N   UNL     1      -0.389  10.648  17.825  0.00  0.00    +0.000 N 
ATOM     18  H   UNL     1      -0.827   9.820  17.447  0.00  0.00    +0.000 HD
BRANCH  15  23
ATOM     19  N   UNL     1      -6.726  11.611  17.542  0.00  0.00    +0.000 N 
ATOM     20  C   UNL     1      -5.347  11.562  17.717  0.00  0.00    +0.000 A 
ATOM     21  C   UNL     1      -4.519  11.144  16.683  0.00  0.00    +0.000 A 
ATOM     22  C   UNL     1      -3.136  11.144  16.875  0.00  0.00    +0.000 A 
ATOM     23  C   UNL     1      -2.618  11.569  18.096  0.00  0.00    +0.000 A 
ATOM     24  C   UNL     1      -3.522  11.995  19.063  0.00  0.00    +0.000 A 
ATOM     25  N   UNL     1      -4.871  11.988  18.898  0.00  0.00    +0.000 NA
ATOM     26  H   UNL     1      -7.105  10.729  17.218  0.00  0.00    +0.000 HD
ATOM     27  H   UNL     1      -7.131  11.897  18.429  0.00  0.00    +0.000 HD
ENDBRANCH  15  23
ENDBRANCH   1  17
TORSDOF 5
ENDMDL
MODEL 4
REMARK VINA RESULT:      -8.1      2.512      3.408
REMARK  Name = 
REMARK  5 active torsions:
REMARK  status: ('A' for Active; 'I' for Inactive)
REMARK    1  A    between atoms: C_5  and  C_6
REMARK    2  A    between atoms: N_8  and  C_9
REMARK    3  A    between atoms: C_9  and  C_10
REMARK    4  A    between atoms: C_13  and  O_14
REMARK    5  A    between atoms: O_14  and  C_15
REMARK                            x       y       z     vdW  Elec       q    Type
REMARK                         _______ _______ _______ _____ _____    ______ ____
ROOT
ATOM      1  C   UNL     1       2.998   5.615  19.709  0.00  0.00    +0.000 C 
ENDROOT
BRANCH   1   2
ATOM      2  C   UNL     1       2.294   6.930  19.795  0.00  0.00    +0.000 A 
ATOM      3  C   UNL     1       1.640   7.461  20.887  0.00  0.00    +0.000 A 
ATOM      4  C   UNL     1       1.031   8.710  20.592  0.00  0.00    +0.000 A 
ATOM      5  C   UNL     1       1.317   9.165  19.316  0.00  0.00    +0.000 A 
ATOM      6  S   UNL     1       2.185   7.971  18.439  0.00  0.00    +0.000 S 
BRANCH   5   7
ATOM      7  O   UNL     1       1.005  10.328  18.718  0.00  0.00    +0.000 OA
BRANCH   7   8
ATOM      8  C   UNL     1      -0.310  10.721  18.596  0.00  0.00    +0.000 A 
ATOM      9  C   UNL     1      -0.818  11.848  19.257  0.00  0.00    +0.000 A 
ATOM     10  C   UNL     1      -2.169  12.177  19.151  0.00  0.00    +0.000 A 
ATOM     11  C   UNL     1      -3.002  11.412  18.340  0.00  0.00    +0.000 A 
ATOM     12  C   UNL     1      -2.473  10.335  17.633  0.00  0.00    +0.000 A 
ATOM     13  F   UNL     1      -3.276   9.623  16.832  0.00  0.00    +0.000 F 
ATOM     14  C   UNL     1      -1.133   9.981  17.749  0.00  0.00    +0.000 A 
ENDBRANCH   7   8
ENDBRANCH   5   7
ENDBRANCH   1   2
BRANCH   1  17
ATOM     15  C   UNL     1       5.053   5.304  18.379  0.00  0.00    +0.000 C 
ATOM     16  O   UNL     1       5.776   5.203  19.364  0.00  0.00    +0.000 OA
ATOM     17  N   UNL     1       3.693   5.518  18.445  0.00  0.00    +0.000 N 
ATOM     18  H   UNL     1       3.191   5.812  17.619  0.00  0.00    +0.000 HD
BRANCH  15  23
ATOM     19  N   UNL     1       7.565   5.027  13.358  0.00  0.00    +0.000 N 
ATOM     20  C   UNL     1       6.886   5.096  14.570  0.00  0.00    +0.000 A 
ATOM     21  C   UNL     1       5.718   4.370  14.767  0.00  0.00    +0.000 A 
ATOM     22  C   UNL     1       5.081   4.429  16.007  0.00  0.00    +0.000 A 
ATOM     23  C   UNL     1       5.633   5.208  17.021  0.00  0.00    +0.000 A 
ATOM     24  C   UNL     1       6.819   5.878  16.741  0.00  0.00    +0.000 A 
ATOM     25  N   UNL     1       7.445   5.844  15.535  0.00  0.00    +0.000 NA
ATOM     26  H   UNL     1       6.966   5.237  12.568  0.00  0.00    +0.000 HD
ATOM     27  H   UNL     1       8.354   5.664  13.419  0.00  0.00    +0.000 HD
ENDBRANCH  15  23
ENDBRANCH   1  17
TORSDOF 5
ENDMDL
MODEL 5
REMARK VINA RESULT:      -8.1      1.645      2.290
REMARK  Name = 
REMARK  5 active torsions:
REMARK  status: ('A' for Active; 'I' for Inactive)
REMARK    1  A    between atoms: C_5  and  C_6
REMARK    2  A    between atoms: N_8  and  C_9
REMARK    3  A    between atoms: C_9  and  C_10
REMARK    4  A    between atoms: C_13  and  O_14
REMARK    5  A    between atoms: O_14  and  C_15
REMARK                            x       y       z     vdW  Elec       q    Type
REMARK                         _______ _______ _______ _____ _____    ______ ____
ROOT
ATOM      1  C   UNL     1       2.960   3.571  18.760  0.00  0.00    +0.000 C 
ENDROOT
BRANCH   1   2
ATOM      2  C   UNL     1       2.456   4.811  19.425  0.00  0.00    +0.000 A 
ATOM      3  C   UNL     1       1.778   4.904  20.622  0.00  0.00    +0.000 A 
ATOM      4  C   UNL     1       1.398   6.241  20.921  0.00  0.00    +0.000 A 
ATOM      5  C   UNL     1       1.883   7.159  20.005  0.00  0.00    +0.000 A 
ATOM      6  S   UNL     1       2.649   6.350  18.699  0.00  0.00    +0.000 S 
BRANCH   5   7
ATOM      7  O   UNL     1       1.815   8.501  20.003  0.00  0.00    +0.000 OA
BRANCH   7   8
ATOM      8  C   UNL     1       0.999   9.162  20.896  0.00  0.00    +0.000 A 
ATOM      9  C   UNL     1       1.089   8.963  22.280  0.00  0.00    +0.000 A 
ATOM     10  C   UNL     1       0.205   9.610  23.144  0.00  0.00    +0.000 A 
ATOM     11  C   UNL     1      -0.735  10.498  22.628  0.00  0.00    +0.000 A 
ATOM     12  C   UNL     1      -0.771  10.741  21.257  0.00  0.00    +0.000 A 
ATOM     13  F   UNL     1      -1.659  11.620  20.774  0.00  0.00    +0.000 F 
ATOM     14  C   UNL     1       0.088  10.084  20.383  0.00  0.00    +0.000 A 
ENDBRANCH   7   8
ENDBRANCH   5   7
ENDBRANCH   1   2
BRANCH   1  17
ATOM     15  C   UNL     1       5.148   4.089  17.744  0.00  0.00    +0.000 C 
ATOM     16  O   UNL     1       5.761   3.970  18.799  0.00  0.00    +0.000 OA
ATOM     17  N   UNL     1       3.784   3.928  17.627  0.00  0.00    +0.000 N 
ATOM     18  H   UNL     1       3.310   4.253  16.797  0.00  0.00    +0.000 HD
BRANCH  15  23
ATOM     19  N   UNL     1       8.157   5.539  13.223  0.00  0.00    +0.000 N 
ATOM     20  C   UNL     1       7.361   5.174  14.304  0.00  0.00    +0.000 A 
ATOM     21  C   UNL     1       6.418   4.162  14.175  0.00  0.00    +0.000 A 
ATOM     22  C   UNL     1       5.661   3.790  15.287  0.00  0.00    +0.000 A 
ATOM     23  C   UNL     1       5.873   4.438  16.502  0.00  0.00    +0.000 A 
ATOM     24  C   UNL     1       6.857   5.420  16.543  0.00  0.00    +0.000 A 
ATOM     25  N   UNL     1       7.592   5.804  15.467  0.00  0.00    +0.000 NA
ATOM     26  H   UNL     1       7.611   5.767  12.401  0.00  0.00    +0.000 HD
ATOM     27  H   UNL     1       8.735   6.319  13.526  0.00  0.00    +0.000 HD
ENDBRANCH  15  23
ENDBRANCH   1  17
TORSDOF 5
ENDMDL
MODEL 6
REMARK VINA RESULT:      -8.1      1.762      2.376
REMARK  Name = 
REMARK  5 active torsions:
REMARK  status: ('A' for Active; 'I' for Inactive)
REMARK    1  A    between atoms: C_5  and  C_6
REMARK    2  A    between atoms: N_8  and  C_9
REMARK    3  A    between atoms: C_9  and  C_10
REMARK    4  A    between atoms: C_13  and  O_14
REMARK    5  A    between atoms: O_14  and  C_15
REMARK                            x       y       z     vdW  Elec       q    Type
REMARK                         _______ _______ _______ _____ _____    ______ ____
ROOT
ATOM      1  C   UNL     1       3.024   4.119  19.098  0.00  0.00    +0.000 C 
ENDROOT
BRANCH   1   2
ATOM      2  C   UNL     1       2.462   5.413  19.591  0.00  0.00    +0.000 A 
ATOM      3  C   UNL     1       1.648   5.610  20.686  0.00  0.00    +0.000 A 
ATOM      4  C   UNL     1       1.254   6.968  20.824  0.00  0.00    +0.000 A 
ATOM      5  C   UNL     1       1.856   7.804  19.898  0.00  0.00    +0.000 A 
ATOM      6  S   UNL     1       2.761   6.884  18.766  0.00  0.00    +0.000 S 
BRANCH   5   7
ATOM      7  O   UNL     1       1.807   9.141  19.775  0.00  0.00    +0.000 OA
BRANCH   7   8
ATOM      8  C   UNL     1       0.620   9.773  19.474  0.00  0.00    +0.000 A 
ATOM      9  C   UNL     1      -0.025  10.624  20.381  0.00  0.00    +0.000 A 
ATOM     10  C   UNL     1      -1.254  11.198  20.057  0.00  0.00    +0.000 A 
ATOM     11  C   UNL     1      -1.813  10.965  18.804  0.00  0.00    +0.000 A 
ATOM     12  C   UNL     1      -1.131  10.173  17.883  0.00  0.00    +0.000 A 
ATOM     13  F   UNL     1      -1.663   9.979  16.669  0.00  0.00    +0.000 F 
ATOM     14  C   UNL     1       0.083   9.575  18.203  0.00  0.00    +0.000 A 
ENDBRANCH   7   8
ENDBRANCH   5   7
ENDBRANCH   1   2
BRANCH   1  17
ATOM     15  C   UNL     1       5.168   4.360  17.901  0.00  0.00    +0.000 C 
ATOM     16  O   UNL     1       5.846   4.202  18.910  0.00  0.00    +0.000 OA
ATOM     17  N   UNL     1       3.790   4.349  17.894  0.00  0.00    +0.000 N 
ATOM     18  H   UNL     1       3.290   4.702  17.090  0.00  0.00    +0.000 HD
BRANCH  15  23
ATOM     19  N   UNL     1       7.945   5.353  13.116  0.00  0.00    +0.000 N 
ATOM     20  C   UNL     1       7.203   5.103  14.266  0.00  0.00    +0.000 A 
ATOM     21  C   UNL     1       6.187   4.156  14.257  0.00  0.00    +0.000 A 
ATOM     22  C   UNL     1       5.486   3.898  15.437  0.00  0.00    +0.000 A 
ATOM     23  C   UNL     1       5.826   4.590  16.596  0.00  0.00    +0.000 A 
ATOM     24  C   UNL     1       6.876   5.500  16.516  0.00  0.00    +0.000 A 
ATOM     25  N   UNL     1       7.558   5.774  15.373  0.00  0.00    +0.000 NA
ATOM     26  H   UNL     1       7.360   5.576  12.320  0.00  0.00    +0.000 HD
ATOM     27  H   UNL     1       8.594   6.104  13.335  0.00  0.00    +0.000 HD
ENDBRANCH  15  23
ENDBRANCH   1  17
TORSDOF 5
ENDMDL
MODEL 7
REMARK VINA RESULT:      -8.0      5.663      9.220
REMARK  Name = 
REMARK  5 active torsions:
REMARK  status: ('A' for Active; 'I' for Inactive)
REMARK    1  A    between atoms: C_5  and  C_6
REMARK    2  A    between atoms: N_8  and  C_9
REMARK    3  A    between atoms: C_9  and  C_10
REMARK    4  A    between atoms: C_13  and  O_14
REMARK    5  A    between atoms: O_14  and  C_15
REMARK                            x       y       z     vdW  Elec       q    Type
REMARK                         _______ _______ _______ _____ _____    ______ ____
ROOT
ATOM      1  C   UNL     1       1.081  10.732  18.198  0.00  0.00    +0.000 C 
ENDROOT
BRANCH   1   2
ATOM      2  C   UNL     1       1.447   9.439  18.851  0.00  0.00    +0.000 A 
ATOM      3  C   UNL     1       1.097   9.007  20.112  0.00  0.00    +0.000 A 
ATOM      4  C   UNL     1       1.674   7.747  20.427  0.00  0.00    +0.000 A 
ATOM      5  C   UNL     1       2.366   7.187  19.367  0.00  0.00    +0.000 A 
ATOM      6  S   UNL     1       2.444   8.294  18.057  0.00  0.00    +0.000 S 
BRANCH   5   7
ATOM      7  O   UNL     1       2.955   5.985  19.253  0.00  0.00    +0.000 OA
BRANCH   7   8
ATOM      8  C   UNL     1       2.354   4.859  19.772  0.00  0.00    +0.000 A 
ATOM      9  C   UNL     1       2.480   4.498  21.120  0.00  0.00    +0.000 A 
ATOM     10  C   UNL     1       1.902   3.319  21.591  0.00  0.00    +0.000 A 
ATOM     11  C   UNL     1       1.152   2.528  20.727  0.00  0.00    +0.000 A 
ATOM     12  C   UNL     1       0.975   2.931  19.405  0.00  0.00    +0.000 A 
ATOM     13  F   UNL     1       0.227   2.178  18.588  0.00  0.00    +0.000 F 
ATOM     14  C   UNL     1       1.567   4.090  18.917  0.00  0.00    +0.000 A 
ENDBRANCH   7   8
ENDBRANCH   5   7
ENDBRANCH   1   2
BRANCH   1  17
ATOM     15  C   UNL     1      -1.181  11.604  18.659  0.00  0.00    +0.000 C 
ATOM     16  O   UNL     1      -0.802  12.356  19.550  0.00  0.00    +0.000 OA
ATOM     17  N   UNL     1      -0.344  10.767  17.954  0.00  0.00    +0.000 N 
ATOM     18  H   UNL     1      -0.734  10.020  17.397  0.00  0.00    +0.000 HD
BRANCH  15  23
ATOM     19  N   UNL     1      -6.684  11.650  17.515  0.00  0.00    +0.000 N 
ATOM     20  C   UNL     1      -5.318  11.582  17.767  0.00  0.00    +0.000 A 
ATOM     21  C   UNL     1      -4.443  11.125  16.790  0.00  0.00    +0.000 A 
ATOM     22  C   UNL     1      -3.073  11.106  17.059  0.00  0.00    +0.000 A 
ATOM     23  C   UNL     1      -2.615  11.551  18.296  0.00  0.00    +0.000 A 
ATOM     24  C   UNL     1      -3.562  12.017  19.201  0.00  0.00    +0.000 A 
ATOM     25  N   UNL     1      -4.900  12.029  18.963  0.00  0.00    +0.000 NA
ATOM     26  H   UNL     1      -7.061  10.768  17.191  0.00  0.00    +0.000 HD
ATOM     27  H   UNL     1      -7.132  11.965  18.372  0.00  0.00    +0.000 HD
ENDBRANCH  15  23
ENDBRANCH   1  17
TORSDOF 5
ENDMDL
MODEL 8
REMARK VINA RESULT:      -8.0      2.001      2.632
REMARK  Name = 
REMARK  5 active torsions:
REMARK  status: ('A' for Active; 'I' for Inactive)
REMARK    1  A    between atoms: C_5  and  C_6
REMARK    2  A    between atoms: N_8  and  C_9
REMARK    3  A    between atoms: C_9  and  C_10
REMARK    4  A    between atoms: C_13  and  O_14
REMARK    5  A    between atoms: O_14  and  C_15
REMARK                            x       y       z     vdW  Elec       q    Type
REMARK                         _______ _______ _______ _____ _____    ______ ____
ROOT
ATOM      1  C   UNL     1       2.940   4.844  19.354  0.00  0.00    +0.000 C 
ENDROOT
BRANCH   1   2
ATOM      2  C   UNL     1       2.347   6.170  19.706  0.00  0.00    +0.000 A 
ATOM      3  C   UNL     1       1.715   6.521  20.880  0.00  0.00    +0.000 A 
ATOM      4  C   UNL     1       1.219   7.852  20.845  0.00  0.00    +0.000 A 
ATOM      5  C   UNL     1       1.572   8.532  19.691  0.00  0.00    +0.000 A 
ATOM      6  S   UNL     1       2.356   7.471  18.592  0.00  0.00    +0.000 S 
BRANCH   5   7
ATOM      7  O   UNL     1       1.372   9.814  19.343  0.00  0.00    +0.000 OA
BRANCH   7   8
ATOM      8  C   UNL     1       0.113  10.260  19.006  0.00  0.00    +0.000 A 
ATOM      9  C   UNL     1      -0.559   9.809  17.863  0.00  0.00    +0.000 A 
ATOM     10  C   UNL     1      -1.809  10.330  17.528  0.00  0.00    +0.000 A 
ATOM     11  C   UNL     1      -2.412  11.263  18.366  0.00  0.00    +0.000 A 
ATOM     12  C   UNL     1      -1.767  11.654  19.536  0.00  0.00    +0.000 A 
ATOM     13  F   UNL     1      -2.368  12.530  20.352  0.00  0.00    +0.000 F 
ATOM     14  C   UNL     1      -0.510  11.162  19.869  0.00  0.00    +0.000 A 
ENDBRANCH   7   8
ENDBRANCH   5   7
ENDBRANCH   1   2
BRANCH   1  17
ATOM     15  C   UNL     1       5.054   4.553  18.116  0.00  0.00    +0.000 C 
ATOM     16  O   UNL     1       5.647   4.069  19.074  0.00  0.00    +0.000 OA
ATOM     17  N   UNL     1       3.741   4.972  18.159  0.00  0.00    +0.000 N 
ATOM     18  H   UNL     1       3.378   5.558  17.421  0.00  0.00    +0.000 HD
BRANCH  15  23
ATOM     19  N   UNL     1       7.981   5.340  13.383  0.00  0.00    +0.000 N 
ATOM     20  C   UNL     1       7.203   5.139  14.518  0.00  0.00    +0.000 A 
ATOM     21  C   UNL     1       6.190   4.188  14.519  0.00  0.00    +0.000 A 
ATOM     22  C   UNL     1       5.453   3.981  15.687  0.00  0.00    +0.000 A 
ATOM     23  C   UNL     1       5.753   4.726  16.823  0.00  0.00    +0.000 A 
ATOM     24  C   UNL     1       6.802   5.636  16.736  0.00  0.00    +0.000 A 
ATOM     25  N   UNL     1       7.521   5.861  15.605  0.00  0.00    +0.000 NA
ATOM     26  H   UNL     1       7.421   5.525  12.559  0.00  0.00    +0.000 HD
ATOM     27  H   UNL     1       8.621   6.103  13.588  0.00  0.00    +0.000 HD
ENDBRANCH  15  23
ENDBRANCH   1  17
TORSDOF 5
ENDMDL
MODEL 9
REMARK VINA RESULT:      -7.9      4.955      8.249
REMARK  Name = 
REMARK  5 active torsions:
REMARK  status: ('A' for Active; 'I' for Inactive)
REMARK    1  A    between atoms: C_5  and  C_6
REMARK    2  A    between atoms: N_8  and  C_9
REMARK    3  A    between atoms: C_9  and  C_10
REMARK    4  A    between atoms: C_13  and  O_14
REMARK    5  A    between atoms: O_14  and  C_15
REMARK                            x       y       z     vdW  Elec       q    Type
REMARK                         _______ _______ _______ _____ _____    ______ ____
ROOT
ATOM      1  C   UNL     1       1.480   8.402  20.792  0.00  0.00    +0.000 C 
ENDROOT
BRANCH   1   2
ATOM      2  C   UNL     1       1.881   7.104  20.169  0.00  0.00    +0.000 A 
ATOM      3  C   UNL     1       1.735   5.840  20.699  0.00  0.00    +0.000 A 
ATOM      4  C   UNL     1       2.284   4.837  19.855  0.00  0.00    +0.000 A 
ATOM      5  C   UNL     1       2.744   5.338  18.648  0.00  0.00    +0.000 A 
ATOM      6  S   UNL     1       2.654   7.052  18.641  0.00  0.00    +0.000 S 
BRANCH   5   7
ATOM      7  O   UNL     1       3.234   4.697  17.573  0.00  0.00    +0.000 OA
BRANCH   7   8
ATOM      8  C   UNL     1       4.593   4.638  17.352  0.00  0.00    +0.000 A 
ATOM      9  C   UNL     1       5.527   4.869  18.371  0.00  0.00    +0.000 A 
ATOM     10  C   UNL     1       6.893   4.856  18.090  0.00  0.00    +0.000 A 
ATOM     11  C   UNL     1       7.328   4.557  16.802  0.00  0.00    +0.000 A 
ATOM     12  C   UNL     1       6.394   4.261  15.813  0.00  0.00    +0.000 A 
ATOM     13  F   UNL     1       6.823   3.946  14.584  0.00  0.00    +0.000 F 
ATOM     14  C   UNL     1       5.029   4.296  16.073  0.00  0.00    +0.000 A 
ENDBRANCH   7   8
ENDBRANCH   5   7
ENDBRANCH   1   2
BRANCH   1  17
ATOM     15  C   UNL     1       0.383  10.064  19.335  0.00  0.00    +0.000 C 
ATOM     16  O   UNL     1       1.404  10.723  19.174  0.00  0.00    +0.000 OA
ATOM     17  N   UNL     1       0.317   8.928  20.113  0.00  0.00    +0.000 N 
ATOM     18  H   UNL     1      -0.583   8.560  20.387  0.00  0.00    +0.000 HD
BRANCH  15  23
ATOM     19  N   UNL     1      -4.379  11.958  17.024  0.00  0.00    +0.000 N 
ATOM     20  C   UNL     1      -3.218  11.429  17.578  0.00  0.00    +0.000 A 
ATOM     21  C   UNL     1      -2.526  10.414  16.930  0.00  0.00    +0.000 A 
ATOM     22  C   UNL     1      -1.342   9.931  17.492  0.00  0.00    +0.000 A 
ATOM     23  C   UNL     1      -0.879  10.482  18.683  0.00  0.00    +0.000 A 
ATOM     24  C   UNL     1      -1.623  11.514  19.245  0.00  0.00    +0.000 A 
ATOM     25  N   UNL     1      -2.785  11.986  18.721  0.00  0.00    +0.000 NA
ATOM     26  H   UNL     1      -5.064  11.244  16.809  0.00  0.00    +0.000 HD
ATOM     27  H   UNL     1      -4.738  12.647  17.680  0.00  0.00    +0.000 HD
ENDBRANCH  15  23
ENDBRANCH   1  17
TORSDOF 5
ENDMDL
