MODEL 1
REMARK VINA RESULT:      -8.8      0.000      0.000
REMARK  Name = 
REMARK  7 active torsions:
REMARK  status: ('A' for Active; 'I' for Inactive)
REMARK    1  A    between atoms: C_2  and  C_4
REMARK    2  A    between atoms: C_6  and  C_7
REMARK    3  A    between atoms: C_10  and  C_11
REMARK    4  A    between atoms: C_16  and  C_17
REMARK    5  A    between atoms: C_17  and  O_18
REMARK    6  A    between atoms: O_18  and  C_19
REMARK    7  A    between atoms: C_29  and  O_30
REMARK                            x       y       z     vdW  Elec       q    Type
REMARK                         _______ _______ _______ _____ _____    ______ ____
ROOT
ATOM      1  C   UNL     1       5.889   4.492  16.478  0.00  0.00    +0.000 A 
ATOM      2  C   UNL     1       6.740   4.788  17.523  0.00  0.00    +0.000 A 
ATOM      3  S   UNL     1       5.875   4.821  18.990  0.00  0.00    +0.000 S 
ATOM      4  C   UNL     1       4.434   4.313  18.162  0.00  0.00    +0.000 A 
ATOM      5  N   UNL     1       4.576   4.240  16.849  0.00  0.00    +0.000 NA
ENDROOT
BRANCH   1   8
ATOM      6  C   UNL     1       6.055   3.622  12.804  0.00  0.00    +0.000 A 
ATOM      7  C   UNL     1       5.677   3.628  14.161  0.00  0.00    +0.000 A 
ATOM      8  C   UNL     1       6.329   4.453  15.089  0.00  0.00    +0.000 A 
ATOM      9  C   UNL     1       7.390   5.257  14.649  0.00  0.00    +0.000 A 
ATOM     10  C   UNL     1       7.780   5.257  13.308  0.00  0.00    +0.000 A 
ATOM     11  C   UNL     1       7.111   4.450  12.388  0.00  0.00    +0.000 A 
BRANCH   6  13
ATOM     12  N   UNL     1       5.855   1.563  11.489  0.00  0.00    +0.000 N 
ATOM     13  C   UNL     1       5.283   2.737  11.883  0.00  0.00    +0.000 C 
ATOM     14  O   UNL     1       4.168   3.043  11.479  0.00  0.00    +0.000 OA
ATOM     15  H   UNL     1       5.350   0.958  10.857  0.00  0.00    +0.000 HD
ATOM     16  H   UNL     1       6.764   1.285  11.841  0.00  0.00    +0.000 HD
ENDBRANCH   6  13
BRANCH  11  17
ATOM     17  O   UNL     1       7.511   4.492  11.077  0.00  0.00    +0.000 OA
ATOM     18  H   UNL     1       6.738   4.343  10.504  0.00  0.00    +0.000 HD
ENDBRANCH  11  17
ENDBRANCH   1   8
BRANCH   4  19
ATOM     19  C   UNL     1       3.212   3.984  18.943  0.00  0.00    +0.000 A 
ATOM     20  C   UNL     1       2.833   2.621  19.059  0.00  0.00    +0.000 A 
ATOM     21  C   UNL     1       1.714   2.212  19.784  0.00  0.00    +0.000 A 
ATOM     22  C   UNL     1       0.942   3.161  20.433  0.00  0.00    +0.000 A 
ATOM     23  C   UNL     1       1.268   4.512  20.319  0.00  0.00    +0.000 A 
ATOM     24  C   UNL     1       2.374   4.953  19.549  0.00  0.00    +0.000 A 
BRANCH  24  25
ATOM     25  C   UNL     1       2.542   6.457  19.392  0.00  0.00    +0.000 C 
BRANCH  25  26
ATOM     26  O   UNL     1       1.862   7.166  20.430  0.00  0.00    +0.000 OA
BRANCH  26  27
ATOM     27  C   UNL     1       1.404   8.421  20.114  0.00  0.00    +0.000 A 
ATOM     28  C   UNL     1       1.683   8.846  18.808  0.00  0.00    +0.000 A 
ATOM     29  C   UNL     1       1.201  10.071  18.333  0.00  0.00    +0.000 A 
ATOM     30  C   UNL     1       0.430  10.879  19.160  0.00  0.00    +0.000 A 
ATOM     31 CL   UNL     1      -0.230  12.350  18.558  0.00  0.00    +0.000 Cl
ATOM     32  C   UNL     1       0.174  10.487  20.470  0.00  0.00    +0.000 A 
ATOM     33  C   UNL     1       0.659   9.260  20.946  0.00  0.00    +0.000 A 
ENDBRANCH  26  27
ENDBRANCH  25  26
ENDBRANCH  24  25
ENDBRANCH   4  19
TORSDOF 7
ENDMDL
MODEL 2
REMARK VINA RESULT:      -8.8      3.640      6.152
REMARK  Name = 
REMARK  7 active torsions:
REMARK  status: ('A' for Active; 'I' for Inactive)
REMARK    1  A    between atoms: C_2  and  C_4
REMARK    2  A    between atoms: C_6  and  C_7
REMARK    3  A    between atoms: C_10  and  C_11
REMARK    4  A    between atoms: C_16  and  C_17
REMARK    5  A    between atoms: C_17  and  O_18
REMARK    6  A    between atoms: O_18  and  C_19
REMARK    7  A    between atoms: C_29  and  O_30
REMARK                            x       y       z     vdW  Elec       q    Type
REMARK                         _______ _______ _______ _____ _____    ______ ____
ROOT
ATOM      1  C   UNL     1       2.436   7.813  18.396  0.00  0.00    +0.000 A 
ATOM      2  C   UNL     1       2.553   8.977  17.665  0.00  0.00    +0.000 A 
ATOM      3  S   UNL     1       1.616  10.210  18.375  0.00  0.00    +0.000 S 
ATOM      4  C   UNL     1       1.206   9.152  19.692  0.00  0.00    +0.000 A 
ATOM      5  N   UNL     1       1.655   7.918  19.539  0.00  0.00    +0.000 NA
ENDROOT
BRANCH   1   8
ATOM      6  C   UNL     1       5.062   5.350  17.244  0.00  0.00    +0.000 A 
ATOM      7  C   UNL     1       4.413   6.556  17.576  0.00  0.00    +0.000 A 
ATOM      8  C   UNL     1       3.077   6.565  18.000  0.00  0.00    +0.000 A 
ATOM      9  C   UNL     1       2.382   5.350  18.065  0.00  0.00    +0.000 A 
ATOM     10  C   UNL     1       3.009   4.146  17.734  0.00  0.00    +0.000 A 
ATOM     11  C   UNL     1       4.345   4.145  17.333  0.00  0.00    +0.000 A 
BRANCH   6  13
ATOM     12  N   UNL     1       7.335   4.433  17.223  0.00  0.00    +0.000 N 
ATOM     13  C   UNL     1       6.495   5.434  16.834  0.00  0.00    +0.000 C 
ATOM     14  O   UNL     1       6.922   6.371  16.171  0.00  0.00    +0.000 OA
ATOM     15  H   UNL     1       8.310   4.480  16.964  0.00  0.00    +0.000 HD
ATOM     16  H   UNL     1       6.987   3.636  17.746  0.00  0.00    +0.000 HD
ENDBRANCH   6  13
BRANCH  11  17
ATOM     17  O   UNL     1       4.932   2.942  17.035  0.00  0.00    +0.000 OA
ATOM     18  H   UNL     1       4.593   2.627  16.178  0.00  0.00    +0.000 HD
ENDBRANCH  11  17
ENDBRANCH   1   8
BRANCH   4  19
ATOM     19  C   UNL     1       0.445   9.682  20.854  0.00  0.00    +0.000 A 
ATOM     20  C   UNL     1       0.575   9.021  22.104  0.00  0.00    +0.000 A 
ATOM     21  C   UNL     1      -0.084   9.452  23.254  0.00  0.00    +0.000 A 
ATOM     22  C   UNL     1      -0.888  10.578  23.193  0.00  0.00    +0.000 A 
ATOM     23  C   UNL     1      -1.060  11.238  21.977  0.00  0.00    +0.000 A 
ATOM     24  C   UNL     1      -0.437  10.789  20.786  0.00  0.00    +0.000 A 
BRANCH  24  25
ATOM     25  C   UNL     1      -0.813  11.513  19.501  0.00  0.00    +0.000 C 
BRANCH  25  26
ATOM     26  O   UNL     1      -2.232  11.614  19.360  0.00  0.00    +0.000 OA
BRANCH  26  27
ATOM     27  C   UNL     1      -2.745  11.320  18.121  0.00  0.00    +0.000 A 
ATOM     28  C   UNL     1      -1.872  10.639  17.261  0.00  0.00    +0.000 A 
ATOM     29  C   UNL     1      -2.298  10.207  16.000  0.00  0.00    +0.000 A 
ATOM     30  C   UNL     1      -3.605  10.448  15.591  0.00  0.00    +0.000 A 
ATOM     31 CL   UNL     1      -4.158   9.853  14.074  0.00  0.00    +0.000 Cl
ATOM     32  C   UNL     1      -4.472  11.153  16.419  0.00  0.00    +0.000 A 
ATOM     33  C   UNL     1      -4.043  11.588  17.682  0.00  0.00    +0.000 A 
ENDBRANCH  26  27
ENDBRANCH  25  26
ENDBRANCH  24  25
ENDBRANCH   4  19
TORSDOF 7
ENDMDL
MODEL 3
REMARK VINA RESULT:      -8.8      3.890      6.533
REMARK  Name = 
REMARK  7 active torsions:
REMARK  status: ('A' for Active; 'I' for Inactive)
REMARK    1  A    between atoms: C_2  and  C_4
REMARK    2  A    between atoms: C_6  and  C_7
REMARK    3  A    between atoms: C_10  and  C_11
REMARK    4  A    between atoms: C_16  and  C_17
REMARK    5  A    between atoms: C_17  and  O_18
REMARK    6  A    between atoms: O_18  and  C_19
REMARK    7  A    between atoms: C_29  and  O_30
REMARK                            x       y       z     vdW  Elec       q    Type
REMARK                         _______ _______ _______ _____ _____    ______ ____
ROOT
ATOM      1  C   UNL     1       2.287   7.576  18.648  0.00  0.00    +0.000 A 
ATOM      2  C   UNL     1       2.476   8.676  17.838  0.00  0.00    +0.000 A 
ATOM      3  S   UNL     1       1.588  10.001  18.435  0.00  0.00    +0.000 S 
ATOM      4  C   UNL     1       1.100   9.064  19.814  0.00  0.00    +0.000 A 
ATOM      5  N   UNL     1       1.489   7.801  19.761  0.00  0.00    +0.000 NA
ENDROOT
BRANCH   1   8
ATOM      6  C   UNL     1       2.869   3.841  18.634  0.00  0.00    +0.000 A 
ATOM      7  C   UNL     1       2.349   5.113  18.948  0.00  0.00    +0.000 A 
ATOM      8  C   UNL     1       2.873   6.272  18.359  0.00  0.00    +0.000 A 
ATOM      9  C   UNL     1       3.948   6.150  17.468  0.00  0.00    +0.000 A 
ATOM     10  C   UNL     1       4.478   4.898  17.151  0.00  0.00    +0.000 A 
ATOM     11  C   UNL     1       3.936   3.748  17.725  0.00  0.00    +0.000 A 
BRANCH   6  13
ATOM     12  N   UNL     1       1.753   1.664  18.482  0.00  0.00    +0.000 N 
ATOM     13  C   UNL     1       2.227   2.660  19.284  0.00  0.00    +0.000 C 
ATOM     14  O   UNL     1       2.117   2.574  20.500  0.00  0.00    +0.000 OA
ATOM     15  H   UNL     1       1.305   0.863  18.904  0.00  0.00    +0.000 HD
ATOM     16  H   UNL     1       1.866   1.709  17.475  0.00  0.00    +0.000 HD
ENDBRANCH   6  13
BRANCH  11  17
ATOM     17  O   UNL     1       4.471   2.534  17.375  0.00  0.00    +0.000 OA
ATOM     18  H   UNL     1       4.047   2.224  16.555  0.00  0.00    +0.000 HD
ENDBRANCH  11  17
ENDBRANCH   1   8
BRANCH   4  19
ATOM     19  C   UNL     1       0.343   9.714  20.917  0.00  0.00    +0.000 A 
ATOM     20  C   UNL     1       0.427   9.149  22.217  0.00  0.00    +0.000 A 
ATOM     21  C   UNL     1      -0.232   9.695  23.317  0.00  0.00    +0.000 A 
ATOM     22  C   UNL     1      -0.989  10.844  23.153  0.00  0.00    +0.000 A 
ATOM     23  C   UNL     1      -1.115  11.412  21.886  0.00  0.00    +0.000 A 
ATOM     24  C   UNL     1      -0.493  10.845  20.745  0.00  0.00    +0.000 A 
BRANCH  24  25
ATOM     25  C   UNL     1      -0.819  11.480  19.401  0.00  0.00    +0.000 C 
BRANCH  25  26
ATOM     26  O   UNL     1      -2.226  11.466  19.150  0.00  0.00    +0.000 OA
BRANCH  26  27
ATOM     27  C   UNL     1      -2.622  10.994  17.923  0.00  0.00    +0.000 A 
ATOM     28  C   UNL     1      -3.805  11.555  17.423  0.00  0.00    +0.000 A 
ATOM     29  C   UNL     1      -4.274  11.222  16.147  0.00  0.00    +0.000 A 
ATOM     30  C   UNL     1      -3.559  10.328  15.358  0.00  0.00    +0.000 A 
ATOM     31 CL   UNL     1      -4.089   9.973  13.760  0.00  0.00    +0.000 Cl
ATOM     32  C   UNL     1      -2.403   9.736  15.855  0.00  0.00    +0.000 A 
ATOM     33  C   UNL     1      -1.934  10.069  17.134  0.00  0.00    +0.000 A 
ENDBRANCH  26  27
ENDBRANCH  25  26
ENDBRANCH  24  25
ENDBRANCH   4  19
TORSDOF 7
ENDMDL
MODEL 4
REMARK VINA RESULT:      -8.7      0.595      1.083
REMARK  Name = 
REMARK  7 active torsions:
REMARK  status: ('A' for Active; 'I' for Inactive)
REMARK    1  A    between atoms: C_2  and  C_4
REMARK    2  A    between atoms: C_6  and  C_7
REMARK    3  A    between atoms: C_10  and  C_11
REMARK    4  A    between atoms: C_16  and  C_17
REMARK    5  A    between atoms: C_17  and  O_18
REMARK    6  A    between atoms: O_18  and  C_19
REMARK    7  A    between atoms: C_29  and  O_30
REMARK                            x       y       z     vdW  Elec       q    Type
REMARK                         _______ _______ _______ _____ _____    ______ ____
ROOT
ATOM      1  C   UNL     1       5.896   4.518  16.487  0.00  0.00    +0.000 A 
ATOM      2  C   UNL     1       6.753   4.799  17.531  0.00  0.00    +0.000 A 
ATOM      3  S   UNL     1       5.889   4.852  18.998  0.00  0.00    +0.000 S 
ATOM      4  C   UNL     1       4.438   4.372  18.172  0.00  0.00    +0.000 A 
ATOM      5  N   UNL     1       4.578   4.293  16.859  0.00  0.00    +0.000 NA
ENDROOT
BRANCH   1   8
ATOM      6  C   UNL     1       6.041   3.640  12.814  0.00  0.00    +0.000 A 
ATOM      7  C   UNL     1       5.663   3.657  14.171  0.00  0.00    +0.000 A 
ATOM      8  C   UNL     1       6.334   4.467  15.098  0.00  0.00    +0.000 A 
ATOM      9  C   UNL     1       7.413   5.246  14.657  0.00  0.00    +0.000 A 
ATOM     10  C   UNL     1       7.803   5.236  13.316  0.00  0.00    +0.000 A 
ATOM     11  C   UNL     1       7.115   4.443  12.397  0.00  0.00    +0.000 A 
BRANCH   6  13
ATOM     12  N   UNL     1       5.805   1.599  11.477  0.00  0.00    +0.000 N 
ATOM     13  C   UNL     1       5.248   2.772  11.894  0.00  0.00    +0.000 C 
ATOM     14  O   UNL     1       4.129   3.091  11.511  0.00  0.00    +0.000 OA
ATOM     15  H   UNL     1       5.287   1.005  10.846  0.00  0.00    +0.000 HD
ATOM     16  H   UNL     1       6.718   1.310  11.812  0.00  0.00    +0.000 HD
ENDBRANCH   6  13
BRANCH  11  17
ATOM     17  O   UNL     1       7.516   4.475  11.085  0.00  0.00    +0.000 OA
ATOM     18  H   UNL     1       8.081   5.255  10.944  0.00  0.00    +0.000 HD
ENDBRANCH  11  17
ENDBRANCH   1   8
BRANCH   4  19
ATOM     19  C   UNL     1       3.210   4.069  18.954  0.00  0.00    +0.000 A 
ATOM     20  C   UNL     1       2.918   2.712  19.251  0.00  0.00    +0.000 A 
ATOM     21  C   UNL     1       1.800   2.330  19.992  0.00  0.00    +0.000 A 
ATOM     22  C   UNL     1       0.942   3.303  20.476  0.00  0.00    +0.000 A 
ATOM     23  C   UNL     1       1.183   4.644  20.181  0.00  0.00    +0.000 A 
ATOM     24  C   UNL     1       2.286   5.051  19.390  0.00  0.00    +0.000 A 
BRANCH  24  25
ATOM     25  C   UNL     1       2.361   6.527  19.027  0.00  0.00    +0.000 C 
BRANCH  25  26
ATOM     26  O   UNL     1       2.340   7.349  20.195  0.00  0.00    +0.000 OA
BRANCH  26  27
ATOM     27  C   UNL     1       1.428   8.376  20.203  0.00  0.00    +0.000 A 
ATOM     28  C   UNL     1       0.685   8.504  21.384  0.00  0.00    +0.000 A 
ATOM     29  C   UNL     1      -0.219   9.559  21.553  0.00  0.00    +0.000 A 
ATOM     30  C   UNL     1      -0.383  10.499  20.541  0.00  0.00    +0.000 A 
ATOM     31 CL   UNL     1      -1.435  11.840  20.773  0.00  0.00    +0.000 Cl
ATOM     32  C   UNL     1       0.321  10.364  19.350  0.00  0.00    +0.000 A 
ATOM     33  C   UNL     1       1.225   9.306  19.181  0.00  0.00    +0.000 A 
ENDBRANCH  26  27
ENDBRANCH  25  26
ENDBRANCH  24  25
ENDBRANCH   4  19
TORSDOF 7
ENDMDL
MODEL 5
REMARK VINA RESULT:      -8.7      3.658      6.224
REMARK  Name = 
REMARK  7 active torsions:
REMARK  status: ('A' for Active; 'I' for Inactive)
REMARK    1  A    between atoms: C_2  and  C_4
REMARK    2  A    between atoms: C_6  and  C_7
REMARK    3  A    between atoms: C_10  and  C_11
REMARK    4  A    between atoms: C_16  and  C_17
REMARK    5  A    between atoms: C_17  and  O_18
REMARK    6  A    between atoms: O_18  and  C_19
REMARK    7  A    between atoms: C_29  and  O_30
REMARK                            x       y       z     vdW  Elec       q    Type
REMARK                         _______ _______ _______ _____ _____    ______ ____
ROOT
ATOM      1  C   UNL     1       2.382   7.846  18.427  0.00  0.00    +0.000 A 
ATOM      2  C   UNL     1       2.518   9.001  17.687  0.00  0.00    +0.000 A 
ATOM      3  S   UNL     1       1.597  10.254  18.383  0.00  0.00    +0.000 S 
ATOM      4  C   UNL     1       1.167   9.214  19.707  0.00  0.00    +0.000 A 
ATOM      5  N   UNL     1       1.598   7.972  19.566  0.00  0.00    +0.000 NA
ENDROOT
BRANCH   1   8
ATOM      6  C   UNL     1       4.936   5.352  17.185  0.00  0.00    +0.000 A 
ATOM      7  C   UNL     1       4.300   6.567  17.506  0.00  0.00    +0.000 A 
ATOM      8  C   UNL     1       3.006   6.585  18.045  0.00  0.00    +0.000 A 
ATOM      9  C   UNL     1       2.337   5.367  18.234  0.00  0.00    +0.000 A 
ATOM     10  C   UNL     1       2.952   4.155  17.915  0.00  0.00    +0.000 A 
ATOM     11  C   UNL     1       4.249   4.146  17.401  0.00  0.00    +0.000 A 
BRANCH   6  13
ATOM     12  N   UNL     1       6.507   5.962  15.405  0.00  0.00    +0.000 N 
ATOM     13  C   UNL     1       6.327   5.429  16.648  0.00  0.00    +0.000 C 
ATOM     14  O   UNL     1       7.290   5.027  17.289  0.00  0.00    +0.000 OA
ATOM     15  H   UNL     1       7.440   6.011  15.021  0.00  0.00    +0.000 HD
ATOM     16  H   UNL     1       5.721   6.327  14.877  0.00  0.00    +0.000 HD
ENDBRANCH   6  13
BRANCH  11  17
ATOM     17  O   UNL     1       4.826   2.935  17.117  0.00  0.00    +0.000 OA
ATOM     18  H   UNL     1       5.129   2.936  16.192  0.00  0.00    +0.000 HD
ENDBRANCH  11  17
ENDBRANCH   1   8
BRANCH   4  19
ATOM     19  C   UNL     1       0.410   9.765  20.862  0.00  0.00    +0.000 A 
ATOM     20  C   UNL     1       0.533   9.118  22.119  0.00  0.00    +0.000 A 
ATOM     21  C   UNL     1      -0.124   9.570  23.263  0.00  0.00    +0.000 A 
ATOM     22  C   UNL     1      -0.917  10.702  23.188  0.00  0.00    +0.000 A 
ATOM     23  C   UNL     1      -1.083  11.349  21.964  0.00  0.00    +0.000 A 
ATOM     24  C   UNL     1      -0.463  10.879  20.778  0.00  0.00    +0.000 A 
BRANCH  24  25
ATOM     25  C   UNL     1      -0.831  11.590  19.485  0.00  0.00    +0.000 C 
BRANCH  25  26
ATOM     26  O   UNL     1      -2.237  11.520  19.237  0.00  0.00    +0.000 OA
BRANCH  26  27
ATOM     27  C   UNL     1      -2.617  11.036  18.011  0.00  0.00    +0.000 A 
ATOM     28  C   UNL     1      -3.811  11.567  17.504  0.00  0.00    +0.000 A 
ATOM     29  C   UNL     1      -4.268  11.219  16.228  0.00  0.00    +0.000 A 
ATOM     30  C   UNL     1      -3.529  10.340  15.444  0.00  0.00    +0.000 A 
ATOM     31 CL   UNL     1      -4.045   9.968  13.845  0.00  0.00    +0.000 Cl
ATOM     32  C   UNL     1      -2.361   9.777  15.947  0.00  0.00    +0.000 A 
ATOM     33  C   UNL     1      -1.905  10.124  17.227  0.00  0.00    +0.000 A 
ENDBRANCH  26  27
ENDBRANCH  25  26
ENDBRANCH  24  25
ENDBRANCH   4  19
TORSDOF 7
ENDMDL
MODEL 6
REMARK VINA RESULT:      -8.7      0.919      1.124
REMARK  Name = 
REMARK  7 active torsions:
REMARK  status: ('A' for Active; 'I' for Inactive)
REMARK    1  A    between atoms: C_2  and  C_4
REMARK    2  A    between atoms: C_6  and  C_7
REMARK    3  A    between atoms: C_10  and  C_11
REMARK    4  A    between atoms: C_16  and  C_17
REMARK    5  A    between atoms: C_17  and  O_18
REMARK    6  A    between atoms: O_18  and  C_19
REMARK    7  A    between atoms: C_29  and  O_30
REMARK                            x       y       z     vdW  Elec       q    Type
REMARK                         _______ _______ _______ _____ _____    ______ ____
ROOT
ATOM      1  C   UNL     1       5.809   4.495  16.503  0.00  0.00    +0.000 A 
ATOM      2  C   UNL     1       6.655   4.713  17.570  0.00  0.00    +0.000 A 
ATOM      3  S   UNL     1       5.763   4.778  19.020  0.00  0.00    +0.000 S 
ATOM      4  C   UNL     1       4.309   4.385  18.153  0.00  0.00    +0.000 A 
ATOM      5  N   UNL     1       4.473   4.325  16.843  0.00  0.00    +0.000 NA
ENDROOT
BRANCH   1   8
ATOM      6  C   UNL     1       6.027   3.634  12.829  0.00  0.00    +0.000 A 
ATOM      7  C   UNL     1       5.623   3.644  14.179  0.00  0.00    +0.000 A 
ATOM      8  C   UNL     1       6.274   4.450  15.122  0.00  0.00    +0.000 A 
ATOM      9  C   UNL     1       7.360   5.233  14.706  0.00  0.00    +0.000 A 
ATOM     10  C   UNL     1       7.777   5.229  13.372  0.00  0.00    +0.000 A 
ATOM     11  C   UNL     1       7.108   4.440  12.437  0.00  0.00    +0.000 A 
BRANCH   6  13
ATOM     12  N   UNL     1       5.822   1.601  11.475  0.00  0.00    +0.000 N 
ATOM     13  C   UNL     1       5.253   2.769  11.890  0.00  0.00    +0.000 C 
ATOM     14  O   UNL     1       4.140   3.086  11.490  0.00  0.00    +0.000 OA
ATOM     15  H   UNL     1       5.317   1.009  10.830  0.00  0.00    +0.000 HD
ATOM     16  H   UNL     1       6.730   1.313  11.823  0.00  0.00    +0.000 HD
ENDBRANCH   6  13
BRANCH  11  17
ATOM     17  O   UNL     1       7.534   4.478  11.134  0.00  0.00    +0.000 OA
ATOM     18  H   UNL     1       8.497   4.621  11.118  0.00  0.00    +0.000 HD
ENDBRANCH  11  17
ENDBRANCH   1   8
BRANCH   4  19
ATOM     19  C   UNL     1       3.051   4.126  18.903  0.00  0.00    +0.000 A 
ATOM     20  C   UNL     1       2.427   2.859  18.755  0.00  0.00    +0.000 A 
ATOM     21  C   UNL     1       1.255   2.517  19.428  0.00  0.00    +0.000 A 
ATOM     22  C   UNL     1       0.676   3.432  20.291  0.00  0.00    +0.000 A 
ATOM     23  C   UNL     1       1.247   4.695  20.442  0.00  0.00    +0.000 A 
ATOM     24  C   UNL     1       2.411   5.081  19.730  0.00  0.00    +0.000 A 
BRANCH  24  25
ATOM     25  C   UNL     1       2.854   6.529  19.877  0.00  0.00    +0.000 C 
BRANCH  25  26
ATOM     26  O   UNL     1       1.896   7.425  19.309  0.00  0.00    +0.000 OA
BRANCH  26  27
ATOM     27  C   UNL     1       1.386   8.385  20.147  0.00  0.00    +0.000 A 
ATOM     28  C   UNL     1       0.970   9.566  19.517  0.00  0.00    +0.000 A 
ATOM     29  C   UNL     1       0.356  10.591  20.245  0.00  0.00    +0.000 A 
ATOM     30  C   UNL     1       0.148  10.440  21.612  0.00  0.00    +0.000 A 
ATOM     31 CL   UNL     1      -0.675  11.664  22.499  0.00  0.00    +0.000 Cl
ATOM     32  C   UNL     1       0.588   9.289  22.257  0.00  0.00    +0.000 A 
ATOM     33  C   UNL     1       1.204   8.263  21.527  0.00  0.00    +0.000 A 
ENDBRANCH  26  27
ENDBRANCH  25  26
ENDBRANCH  24  25
ENDBRANCH   4  19
TORSDOF 7
ENDMDL
MODEL 7
REMARK VINA RESULT:      -8.6      4.128      9.232
REMARK  Name = 
REMARK  7 active torsions:
REMARK  status: ('A' for Active; 'I' for Inactive)
REMARK    1  A    between atoms: C_2  and  C_4
REMARK    2  A    between atoms: C_6  and  C_7
REMARK    3  A    between atoms: C_10  and  C_11
REMARK    4  A    between atoms: C_16  and  C_17
REMARK    5  A    between atoms: C_17  and  O_18
REMARK    6  A    between atoms: O_18  and  C_19
REMARK    7  A    between atoms: C_29  and  O_30
REMARK                            x       y       z     vdW  Elec       q    Type
REMARK                         _______ _______ _______ _____ _____    ______ ____
ROOT
ATOM      1  C   UNL     1       1.639   8.858  19.256  0.00  0.00    +0.000 A 
ATOM      2  C   UNL     1       2.192   8.721  18.000  0.00  0.00    +0.000 A 
ATOM      3  S   UNL     1       2.862   7.165  17.823  0.00  0.00    +0.000 S 
ATOM      4  C   UNL     1       2.263   6.719  19.393  0.00  0.00    +0.000 A 
ATOM      5  N   UNL     1       1.699   7.719  20.048  0.00  0.00    +0.000 NA
ENDROOT
BRANCH   1   8
ATOM      6  C   UNL     1      -0.166  11.358  21.444  0.00  0.00    +0.000 A 
ATOM      7  C   UNL     1       0.367  10.149  20.953  0.00  0.00    +0.000 A 
ATOM      8  C   UNL     1       1.041  10.103  19.724  0.00  0.00    +0.000 A 
ATOM      9  C   UNL     1       1.153  11.280  18.972  0.00  0.00    +0.000 A 
ATOM     10  C   UNL     1       0.624  12.484  19.441  0.00  0.00    +0.000 A 
ATOM     11  C   UNL     1      -0.025  12.525  20.676  0.00  0.00    +0.000 A 
BRANCH   6  13
ATOM     12  N   UNL     1      -1.056  10.099  23.349  0.00  0.00    +0.000 N 
ATOM     13  C   UNL     1      -0.838  11.317  22.776  0.00  0.00    +0.000 C 
ATOM     14  O   UNL     1      -1.193  12.339  23.351  0.00  0.00    +0.000 OA
ATOM     15  H   UNL     1      -1.519  10.053  24.246  0.00  0.00    +0.000 HD
ATOM     16  H   UNL     1      -0.738   9.248  22.898  0.00  0.00    +0.000 HD
ENDBRANCH   6  13
BRANCH  11  17
ATOM     17  O   UNL     1      -0.514  13.730  21.112  0.00  0.00    +0.000 OA
ATOM     18  H   UNL     1      -0.335  13.819  22.064  0.00  0.00    +0.000 HD
ENDBRANCH  11  17
ENDBRANCH   1   8
BRANCH   4  19
ATOM     19  C   UNL     1       2.392   5.313  19.858  0.00  0.00    +0.000 A 
ATOM     20  C   UNL     1       1.239   4.666  20.375  0.00  0.00    +0.000 A 
ATOM     21  C   UNL     1       1.256   3.345  20.821  0.00  0.00    +0.000 A 
ATOM     22  C   UNL     1       2.433   2.618  20.747  0.00  0.00    +0.000 A 
ATOM     23  C   UNL     1       3.592   3.229  20.270  0.00  0.00    +0.000 A 
ATOM     24  C   UNL     1       3.608   4.585  19.856  0.00  0.00    +0.000 A 
BRANCH  24  25
ATOM     25  C   UNL     1       4.963   5.172  19.486  0.00  0.00    +0.000 C 
BRANCH  25  26
ATOM     26  O   UNL     1       5.788   4.201  18.839  0.00  0.00    +0.000 OA
BRANCH  26  27
ATOM     27  C   UNL     1       5.916   4.318  17.477  0.00  0.00    +0.000 A 
ATOM     28  C   UNL     1       7.192   4.681  17.027  0.00  0.00    +0.000 A 
ATOM     29  C   UNL     1       7.478   4.754  15.659  0.00  0.00    +0.000 A 
ATOM     30  C   UNL     1       6.487   4.459  14.729  0.00  0.00    +0.000 A 
ATOM     31 CL   UNL     1       6.853   4.473  13.047  0.00  0.00    +0.000 Cl
ATOM     32  C   UNL     1       5.206   4.133  15.160  0.00  0.00    +0.000 A 
ATOM     33  C   UNL     1       4.920   4.062  16.531  0.00  0.00    +0.000 A 
ENDBRANCH  26  27
ENDBRANCH  25  26
ENDBRANCH  24  25
ENDBRANCH   4  19
TORSDOF 7
ENDMDL
MODEL 8
REMARK VINA RESULT:      -8.5      4.192      9.424
REMARK  Name = 
REMARK  7 active torsions:
REMARK  status: ('A' for Active; 'I' for Inactive)
REMARK    1  A    between atoms: C_2  and  C_4
REMARK    2  A    between atoms: C_6  and  C_7
REMARK    3  A    between atoms: C_10  and  C_11
REMARK    4  A    between atoms: C_16  and  C_17
REMARK    5  A    between atoms: C_17  and  O_18
REMARK    6  A    between atoms: O_18  and  C_19
REMARK    7  A    between atoms: C_29  and  O_30
REMARK                            x       y       z     vdW  Elec       q    Type
REMARK                         _______ _______ _______ _____ _____    ______ ____
ROOT
ATOM      1  C   UNL     1       1.292   8.659  20.133  0.00  0.00    +0.000 A 
ATOM      2  C   UNL     1       1.796   8.785  18.856  0.00  0.00    +0.000 A 
ATOM      3  S   UNL     1       2.532   7.328  18.371  0.00  0.00    +0.000 S 
ATOM      4  C   UNL     1       2.024   6.569  19.849  0.00  0.00    +0.000 A 
ATOM      5  N   UNL     1       1.441   7.399  20.697  0.00  0.00    +0.000 NA
ENDROOT
BRANCH   1   8
ATOM      6  C   UNL     1      -0.142  12.074  20.887  0.00  0.00    +0.000 A 
ATOM      7  C   UNL     1       0.520  11.016  20.233  0.00  0.00    +0.000 A 
ATOM      8  C   UNL     1       0.656   9.762  20.844  0.00  0.00    +0.000 A 
ATOM      9  C   UNL     1       0.144   9.582  22.136  0.00  0.00    +0.000 A 
ATOM     10  C   UNL     1      -0.510  10.622  22.800  0.00  0.00    +0.000 A 
ATOM     11  C   UNL     1      -0.660  11.860  22.174  0.00  0.00    +0.000 A 
BRANCH   6  13
ATOM     12  N   UNL     1      -1.519  13.856  19.920  0.00  0.00    +0.000 N 
ATOM     13  C   UNL     1      -0.268  13.364  20.145  0.00  0.00    +0.000 C 
ATOM     14  O   UNL     1       0.714  13.974  19.740  0.00  0.00    +0.000 OA
ATOM     15  H   UNL     1      -1.623  14.722  19.410  0.00  0.00    +0.000 HD
ATOM     16  H   UNL     1      -2.339  13.377  20.277  0.00  0.00    +0.000 HD
ENDBRANCH   6  13
BRANCH  11  17
ATOM     17  O   UNL     1      -1.324  12.852  22.850  0.00  0.00    +0.000 OA
ATOM     18  H   UNL     1      -0.683  13.365  23.374  0.00  0.00    +0.000 HD
ENDBRANCH  11  17
ENDBRANCH   1   8
BRANCH   4  19
ATOM     19  C   UNL     1       2.240   5.110  20.041  0.00  0.00    +0.000 A 
ATOM     20  C   UNL     1       1.148   4.319  20.485  0.00  0.00    +0.000 A 
ATOM     21  C   UNL     1       1.247   2.943  20.678  0.00  0.00    +0.000 A 
ATOM     22  C   UNL     1       2.449   2.305  20.415  0.00  0.00    +0.000 A 
ATOM     23  C   UNL     1       3.551   3.054  20.004  0.00  0.00    +0.000 A 
ATOM     24  C   UNL     1       3.485   4.461  19.847  0.00  0.00    +0.000 A 
BRANCH  24  25
ATOM     25  C   UNL     1       4.789   5.177  19.527  0.00  0.00    +0.000 C 
BRANCH  25  26
ATOM     26  O   UNL     1       5.732   4.289  18.922  0.00  0.00    +0.000 OA
BRANCH  26  27
ATOM     27  C   UNL     1       5.890   4.402  17.562  0.00  0.00    +0.000 A 
ATOM     28  C   UNL     1       7.181   4.742  17.138  0.00  0.00    +0.000 A 
ATOM     29  C   UNL     1       7.497   4.808  15.777  0.00  0.00    +0.000 A 
ATOM     30  C   UNL     1       6.521   4.528  14.826  0.00  0.00    +0.000 A 
ATOM     31 CL   UNL     1       6.922   4.532  13.153  0.00  0.00    +0.000 Cl
ATOM     32  C   UNL     1       5.226   4.223  15.231  0.00  0.00    +0.000 A 
ATOM     33  C   UNL     1       4.911   4.159  16.596  0.00  0.00    +0.000 A 
ENDBRANCH  26  27
ENDBRANCH  25  26
ENDBRANCH  24  25
ENDBRANCH   4  19
TORSDOF 7
ENDMDL
MODEL 9
REMARK VINA RESULT:      -8.4      3.800      6.300
REMARK  Name = 
REMARK  7 active torsions:
REMARK  status: ('A' for Active; 'I' for Inactive)
REMARK    1  A    between atoms: C_2  and  C_4
REMARK    2  A    between atoms: C_6  and  C_7
REMARK    3  A    between atoms: C_10  and  C_11
REMARK    4  A    between atoms: C_16  and  C_17
REMARK    5  A    between atoms: C_17  and  O_18
REMARK    6  A    between atoms: O_18  and  C_19
REMARK    7  A    between atoms: C_29  and  O_30
REMARK                            x       y       z     vdW  Elec       q    Type
REMARK                         _______ _______ _______ _____ _____    ______ ____
ROOT
ATOM      1  C   UNL     1       2.378   7.979  18.466  0.00  0.00    +0.000 A 
ATOM      2  C   UNL     1       2.440   9.130  17.709  0.00  0.00    +0.000 A 
ATOM      3  S   UNL     1       1.464  10.341  18.403  0.00  0.00    +0.000 S 
ATOM      4  C   UNL     1       1.111   9.298  19.747  0.00  0.00    +0.000 A 
ATOM      5  N   UNL     1       1.606   8.079  19.616  0.00  0.00    +0.000 NA
ENDROOT
BRANCH   1   8
ATOM      6  C   UNL     1       3.098   4.307  17.936  0.00  0.00    +0.000 A 
ATOM      7  C   UNL     1       2.473   5.502  18.344  0.00  0.00    +0.000 A 
ATOM      8  C   UNL     1       3.063   6.748  18.091  0.00  0.00    +0.000 A 
ATOM      9  C   UNL     1       4.307   6.788  17.446  0.00  0.00    +0.000 A 
ATOM     10  C   UNL     1       4.942   5.612  17.041  0.00  0.00    +0.000 A 
ATOM     11  C   UNL     1       4.336   4.377  17.278  0.00  0.00    +0.000 A 
BRANCH   6  13
ATOM     12  N   UNL     1       3.091   1.998  18.760  0.00  0.00    +0.000 N 
ATOM     13  C   UNL     1       2.380   3.029  18.219  0.00  0.00    +0.000 C 
ATOM     14  O   UNL     1       1.188   2.891  17.975  0.00  0.00    +0.000 OA
ATOM     15  H   UNL     1       2.624   1.122  18.947  0.00  0.00    +0.000 HD
ATOM     16  H   UNL     1       4.071   2.110  18.995  0.00  0.00    +0.000 HD
ENDBRANCH   6  13
BRANCH  11  17
ATOM     17  O   UNL     1       4.982   3.246  16.848  0.00  0.00    +0.000 OA
ATOM     18  H   UNL     1       5.938   3.347  17.002  0.00  0.00    +0.000 HD
ENDBRANCH  11  17
ENDBRANCH   1   8
BRANCH   4  19
ATOM     19  C   UNL     1       0.343   9.824  20.906  0.00  0.00    +0.000 A 
ATOM     20  C   UNL     1       0.434   9.136  22.144  0.00  0.00    +0.000 A 
ATOM     21  C   UNL     1      -0.235   9.561  23.291  0.00  0.00    +0.000 A 
ATOM     22  C   UNL     1      -1.010  10.707  23.239  0.00  0.00    +0.000 A 
ATOM     23  C   UNL     1      -1.145  11.395  22.034  0.00  0.00    +0.000 A 
ATOM     24  C   UNL     1      -0.512  10.954  20.845  0.00  0.00    +0.000 A 
BRANCH  24  25
ATOM     25  C   UNL     1      -0.847  11.711  19.568  0.00  0.00    +0.000 C 
BRANCH  25  26
ATOM     26  O   UNL     1      -2.257  11.898  19.432  0.00  0.00    +0.000 OA
BRANCH  26  27
ATOM     27  C   UNL     1      -2.805  11.548  18.223  0.00  0.00    +0.000 A 
ATOM     28  C   UNL     1      -1.882  11.192  17.230  0.00  0.00    +0.000 A 
ATOM     29  C   UNL     1      -2.312  10.736  15.979  0.00  0.00    +0.000 A 
ATOM     30  C   UNL     1      -3.672  10.628  15.713  0.00  0.00    +0.000 A 
ATOM     31 CL   UNL     1      -4.208   9.996  14.204  0.00  0.00    +0.000 Cl
ATOM     32  C   UNL     1      -4.600  11.011  16.675  0.00  0.00    +0.000 A 
ATOM     33  C   UNL     1      -4.169  11.469  17.927  0.00  0.00    +0.000 A 
ENDBRANCH  26  27
ENDBRANCH  25  26
ENDBRANCH  24  25
ENDBRANCH   4  19
TORSDOF 7
ENDMDL
