MODEL 1
REMARK VINA RESULT:      -6.0      0.000      0.000
REMARK  Name = 
REMARK  10 active torsions:
REMARK  status: ('A' for Active; 'I' for Inactive)
REMARK    1  A    between atoms: C_1  and  C_2
REMARK    2  A    between atoms: C_2  and  C_3
REMARK    3  A    between atoms: C_3  and  C_4
REMARK    4  A    between atoms: C_4  and  S_5
REMARK    5  A    between atoms: S_5  and  C_6
REMARK    6  A    between atoms: C_6  and  C_7
REMARK    7  A    between atoms: C_9  and  C_10
REMARK    8  A    between atoms: C_10  and  O_12
REMARK    9  A    between atoms: O_12  and  C_13
REMARK   10  A    between atoms: C_14  and  N_15
REMARK                            x       y       z     vdW  Elec       q    Type
REMARK                         _______ _______ _______ _____ _____    ______ ____
ROOT
ATOM      1  C   UNL     1       4.640   4.316  16.929  0.00  0.00    +0.000 A 
ATOM      2  C   UNL     1       5.346   5.150  17.771  0.00  0.00    +0.000 A 
ATOM      3  C   UNL     1       6.545   5.682  17.176  0.00  0.00    +0.000 A 
ATOM      4  C   UNL     1       6.692   5.215  15.878  0.00  0.00    +0.000 A 
ATOM      5  S   UNL     1       5.424   4.160  15.422  0.00  0.00    +0.000 S 
ENDROOT
BRANCH   4   6
ATOM      6  N   UNL     1       7.674   5.492  14.997  0.00  0.00    +0.000 N 
ATOM      7  H   UNL     1       7.961   4.789  14.315  0.00  0.00    +0.000 HD
ATOM      8  H   UNL     1       7.860   6.452  14.727  0.00  0.00    +0.000 HD
ENDBRANCH   4   6
BRANCH   3   9
ATOM      9  C   UNL     1       7.487   6.584  17.835  0.00  0.00    +0.000 C 
ATOM     10  O   UNL     1       7.982   6.375  18.939  0.00  0.00    +0.000 OA
BRANCH   9  11
ATOM     11  O   UNL     1       7.738   7.699  17.086  0.00  0.00    +0.000 OA
ATOM     12  C   UNL     1       8.068   8.861  17.844  0.00  0.00    +0.000 C 
ENDBRANCH   9  11
ENDBRANCH   3   9
BRANCH   1  13
ATOM     13  C   UNL     1       3.361   3.589  17.193  0.00  0.00    +0.000 C 
BRANCH  13  14
ATOM     14  S   UNL     1       3.598   2.135  18.262  0.00  0.00    +0.000 S 
BRANCH  14  15
ATOM     15  C   UNL     1       1.942   2.036  19.025  0.00  0.00    +0.000 C 
BRANCH  15  16
ATOM     16  C   UNL     1       1.357   3.442  19.093  0.00  0.00    +0.000 C 
BRANCH  16  18
ATOM     17  C   UNL     1       1.572   2.834  21.516  0.00  0.00    +0.000 C 
ATOM     18  C   UNL     1       1.034   3.857  20.529  0.00  0.00    +0.000 C 
ENDBRANCH  16  18
ENDBRANCH  15  16
ENDBRANCH  14  15
ENDBRANCH  13  14
ENDBRANCH   1  13
TORSDOF 8
ENDMDL
MODEL 2
REMARK VINA RESULT:      -6.0      2.565      3.387
REMARK  Name = 
REMARK  10 active torsions:
REMARK  status: ('A' for Active; 'I' for Inactive)
REMARK    1  A    between atoms: C_1  and  C_2
REMARK    2  A    between atoms: C_2  and  C_3
REMARK    3  A    between atoms: C_3  and  C_4
REMARK    4  A    between atoms: C_4  and  S_5
REMARK    5  A    between atoms: S_5  and  C_6
REMARK    6  A    between atoms: C_6  and  C_7
REMARK    7  A    between atoms: C_9  and  C_10
REMARK    8  A    between atoms: C_10  and  O_12
REMARK    9  A    between atoms: O_12  and  C_13
REMARK   10  A    between atoms: C_14  and  N_15
REMARK                            x       y       z     vdW  Elec       q    Type
REMARK                         _______ _______ _______ _____ _____    ______ ____
ROOT
ATOM      1  C   UNL     1       4.733   6.204  17.423  0.00  0.00    +0.000 A 
ATOM      2  C   UNL     1       5.104   5.961  16.117  0.00  0.00    +0.000 A 
ATOM      3  C   UNL     1       6.339   5.230  16.000  0.00  0.00    +0.000 A 
ATOM      4  C   UNL     1       6.857   4.945  17.254  0.00  0.00    +0.000 A 
ATOM      5  S   UNL     1       5.877   5.563  18.514  0.00  0.00    +0.000 S 
ENDROOT
BRANCH   4   6
ATOM      6  N   UNL     1       7.985   4.273  17.560  0.00  0.00    +0.000 N 
ATOM      7  H   UNL     1       8.705   4.136  16.849  0.00  0.00    +0.000 HD
ATOM      8  H   UNL     1       8.316   4.241  18.518  0.00  0.00    +0.000 HD
ENDBRANCH   4   6
BRANCH   3   9
ATOM      9  C   UNL     1       6.974   4.840  14.742  0.00  0.00    +0.000 C 
ATOM     10  O   UNL     1       7.827   5.508  14.165  0.00  0.00    +0.000 OA
BRANCH   9  11
ATOM     11  O   UNL     1       6.491   3.651  14.273  0.00  0.00    +0.000 OA
ATOM     12  C   UNL     1       6.151   3.654  12.888  0.00  0.00    +0.000 C 
ENDBRANCH   9  11
ENDBRANCH   3   9
BRANCH   1  13
ATOM     13  C   UNL     1       3.525   6.923  17.932  0.00  0.00    +0.000 C 
BRANCH  13  14
ATOM     14  S   UNL     1       2.554   5.911  19.092  0.00  0.00    +0.000 S 
BRANCH  14  15
ATOM     15  C   UNL     1       2.192   4.474  18.025  0.00  0.00    +0.000 C 
BRANCH  15  16
ATOM     16  C   UNL     1       1.280   3.522  18.791  0.00  0.00    +0.000 C 
BRANCH  16  18
ATOM     17  C   UNL     1       1.328   2.913  21.223  0.00  0.00    +0.000 C 
ATOM     18  C   UNL     1       1.015   4.009  20.216  0.00  0.00    +0.000 C 
ENDBRANCH  16  18
ENDBRANCH  15  16
ENDBRANCH  14  15
ENDBRANCH  13  14
ENDBRANCH   1  13
TORSDOF 8
ENDMDL
MODEL 3
REMARK VINA RESULT:      -5.9      2.542      3.460
REMARK  Name = 
REMARK  10 active torsions:
REMARK  status: ('A' for Active; 'I' for Inactive)
REMARK    1  A    between atoms: C_1  and  C_2
REMARK    2  A    between atoms: C_2  and  C_3
REMARK    3  A    between atoms: C_3  and  C_4
REMARK    4  A    between atoms: C_4  and  S_5
REMARK    5  A    between atoms: S_5  and  C_6
REMARK    6  A    between atoms: C_6  and  C_7
REMARK    7  A    between atoms: C_9  and  C_10
REMARK    8  A    between atoms: C_10  and  O_12
REMARK    9  A    between atoms: O_12  and  C_13
REMARK   10  A    between atoms: C_14  and  N_15
REMARK                            x       y       z     vdW  Elec       q    Type
REMARK                         _______ _______ _______ _____ _____    ______ ____
ROOT
ATOM      1  C   UNL     1       4.409   5.427  18.030  0.00  0.00    +0.000 A 
ATOM      2  C   UNL     1       4.738   5.309  16.695  0.00  0.00    +0.000 A 
ATOM      3  C   UNL     1       6.096   4.884  16.476  0.00  0.00    +0.000 A 
ATOM      4  C   UNL     1       6.748   4.695  17.685  0.00  0.00    +0.000 A 
ATOM      5  S   UNL     1       5.740   5.040  19.024  0.00  0.00    +0.000 S 
ENDROOT
BRANCH   4   6
ATOM      6  N   UNL     1       8.017   4.292  17.896  0.00  0.00    +0.000 N 
ATOM      7  H   UNL     1       8.784   4.736  17.389  0.00  0.00    +0.000 HD
ATOM      8  H   UNL     1       8.277   3.867  18.780  0.00  0.00    +0.000 HD
ENDBRANCH   4   6
BRANCH   3   9
ATOM      9  C   UNL     1       6.717   4.682  15.168  0.00  0.00    +0.000 C 
ATOM     10  O   UNL     1       7.671   5.332  14.751  0.00  0.00    +0.000 OA
BRANCH   9  11
ATOM     11  O   UNL     1       6.098   3.694  14.456  0.00  0.00    +0.000 OA
ATOM     12  C   UNL     1       6.311   3.756  13.047  0.00  0.00    +0.000 C 
ENDBRANCH   9  11
ENDBRANCH   3   9
BRANCH   1  13
ATOM     13  C   UNL     1       3.107   5.837  18.638  0.00  0.00    +0.000 C 
BRANCH  13  14
ATOM     14  S   UNL     1       1.702   4.895  17.965  0.00  0.00    +0.000 S 
BRANCH  14  15
ATOM     15  C   UNL     1       1.315   3.840  19.405  0.00  0.00    +0.000 C 
BRANCH  15  16
ATOM     16  C   UNL     1       1.341   2.384  18.955  0.00  0.00    +0.000 C 
BRANCH  16  18
ATOM     17  C   UNL     1       3.647   1.567  18.404  0.00  0.00    +0.000 C 
ATOM     18  C   UNL     1       2.359   2.148  17.839  0.00  0.00    +0.000 C 
ENDBRANCH  16  18
ENDBRANCH  15  16
ENDBRANCH  14  15
ENDBRANCH  13  14
ENDBRANCH   1  13
TORSDOF 8
ENDMDL
MODEL 4
REMARK VINA RESULT:      -5.9      2.269      3.147
REMARK  Name = 
REMARK  10 active torsions:
REMARK  status: ('A' for Active; 'I' for Inactive)
REMARK    1  A    between atoms: C_1  and  C_2
REMARK    2  A    between atoms: C_2  and  C_3
REMARK    3  A    between atoms: C_3  and  C_4
REMARK    4  A    between atoms: C_4  and  S_5
REMARK    5  A    between atoms: S_5  and  C_6
REMARK    6  A    between atoms: C_6  and  C_7
REMARK    7  A    between atoms: C_9  and  C_10
REMARK    8  A    between atoms: C_10  and  O_12
REMARK    9  A    between atoms: O_12  and  C_13
REMARK   10  A    between atoms: C_14  and  N_15
REMARK                            x       y       z     vdW  Elec       q    Type
REMARK                         _______ _______ _______ _____ _____    ______ ____
ROOT
ATOM      1  C   UNL     1       4.282   4.700  17.247  0.00  0.00    +0.000 A 
ATOM      2  C   UNL     1       4.735   4.333  15.996  0.00  0.00    +0.000 A 
ATOM      3  C   UNL     1       5.974   4.969  15.628  0.00  0.00    +0.000 A 
ATOM      4  C   UNL     1       6.411   5.806  16.643  0.00  0.00    +0.000 A 
ATOM      5  S   UNL     1       5.341   5.820  17.978  0.00  0.00    +0.000 S 
ENDROOT
BRANCH   4   6
ATOM      6  N   UNL     1       7.527   6.562  16.679  0.00  0.00    +0.000 N 
ATOM      7  H   UNL     1       7.908   6.951  15.816  0.00  0.00    +0.000 HD
ATOM      8  H   UNL     1       7.772   7.070  17.523  0.00  0.00    +0.000 HD
ENDBRANCH   4   6
BRANCH   3   9
ATOM      9  C   UNL     1       6.679   4.773  14.363  0.00  0.00    +0.000 C 
ATOM     10  O   UNL     1       7.717   5.353  14.056  0.00  0.00    +0.000 OA
BRANCH   9  11
ATOM     11  O   UNL     1       6.036   3.881  13.552  0.00  0.00    +0.000 OA
ATOM     12  C   UNL     1       6.657   3.679  12.284  0.00  0.00    +0.000 C 
ENDBRANCH   9  11
ENDBRANCH   3   9
BRANCH   1  13
ATOM     13  C   UNL     1       3.048   4.250  17.962  0.00  0.00    +0.000 C 
BRANCH  13  14
ATOM     14  S   UNL     1       2.984   2.442  18.161  0.00  0.00    +0.000 S 
BRANCH  14  15
ATOM     15  C   UNL     1       1.233   2.245  18.643  0.00  0.00    +0.000 C 
BRANCH  15  16
ATOM     16  C   UNL     1       0.904   3.292  19.702  0.00  0.00    +0.000 C 
BRANCH  16  18
ATOM     17  C   UNL     1       2.349   3.647  21.720  0.00  0.00    +0.000 C 
ATOM     18  C   UNL     1       1.239   2.803  21.112  0.00  0.00    +0.000 C 
ENDBRANCH  16  18
ENDBRANCH  15  16
ENDBRANCH  14  15
ENDBRANCH  13  14
ENDBRANCH   1  13
TORSDOF 8
ENDMDL
MODEL 5
REMARK VINA RESULT:      -5.8      2.542      3.409
REMARK  Name = 
REMARK  10 active torsions:
REMARK  status: ('A' for Active; 'I' for Inactive)
REMARK    1  A    between atoms: C_1  and  C_2
REMARK    2  A    between atoms: C_2  and  C_3
REMARK    3  A    between atoms: C_3  and  C_4
REMARK    4  A    between atoms: C_4  and  S_5
REMARK    5  A    between atoms: S_5  and  C_6
REMARK    6  A    between atoms: C_6  and  C_7
REMARK    7  A    between atoms: C_9  and  C_10
REMARK    8  A    between atoms: C_10  and  O_12
REMARK    9  A    between atoms: O_12  and  C_13
REMARK   10  A    between atoms: C_14  and  N_15
REMARK                            x       y       z     vdW  Elec       q    Type
REMARK                         _______ _______ _______ _____ _____    ______ ____
ROOT
ATOM      1  C   UNL     1       4.201   5.490  17.762  0.00  0.00    +0.000 A 
ATOM      2  C   UNL     1       4.676   5.327  16.477  0.00  0.00    +0.000 A 
ATOM      3  C   UNL     1       6.053   4.908  16.426  0.00  0.00    +0.000 A 
ATOM      4  C   UNL     1       6.566   4.767  17.706  0.00  0.00    +0.000 A 
ATOM      5  S   UNL     1       5.414   5.150  18.911  0.00  0.00    +0.000 S 
ENDROOT
BRANCH   4   6
ATOM      6  N   UNL     1       7.807   4.384  18.071  0.00  0.00    +0.000 N 
ATOM      7  H   UNL     1       8.265   4.830  18.867  0.00  0.00    +0.000 HD
ATOM      8  H   UNL     1       8.135   3.448  17.856  0.00  0.00    +0.000 HD
ENDBRANCH   4   6
BRANCH   3   9
ATOM      9  C   UNL     1       6.816   4.665  15.203  0.00  0.00    +0.000 C 
ATOM     10  O   UNL     1       7.777   5.340  14.846  0.00  0.00    +0.000 OA
BRANCH   9  11
ATOM     11  O   UNL     1       6.322   3.608  14.493  0.00  0.00    +0.000 OA
ATOM     12  C   UNL     1       6.268   3.813  13.082  0.00  0.00    +0.000 C 
ENDBRANCH   9  11
ENDBRANCH   3   9
BRANCH   1  13
ATOM     13  C   UNL     1       2.836   5.909  18.206  0.00  0.00    +0.000 C 
BRANCH  13  14
ATOM     14  S   UNL     1       2.607   5.728  20.003  0.00  0.00    +0.000 S 
BRANCH  14  15
ATOM     15  C   UNL     1       2.505   3.908  20.122  0.00  0.00    +0.000 C 
BRANCH  15  16
ATOM     16  C   UNL     1       1.048   3.495  19.951  0.00  0.00    +0.000 C 
BRANCH  16  18
ATOM     17  C   UNL     1       2.165   2.298  18.052  0.00  0.00    +0.000 C 
ATOM     18  C   UNL     1       0.831   2.679  18.676  0.00  0.00    +0.000 C 
ENDBRANCH  16  18
ENDBRANCH  15  16
ENDBRANCH  14  15
ENDBRANCH  13  14
ENDBRANCH   1  13
TORSDOF 8
ENDMDL
MODEL 6
REMARK VINA RESULT:      -5.8      2.329      3.180
REMARK  Name = 
REMARK  10 active torsions:
REMARK  status: ('A' for Active; 'I' for Inactive)
REMARK    1  A    between atoms: C_1  and  C_2
REMARK    2  A    between atoms: C_2  and  C_3
REMARK    3  A    between atoms: C_3  and  C_4
REMARK    4  A    between atoms: C_4  and  S_5
REMARK    5  A    between atoms: S_5  and  C_6
REMARK    6  A    between atoms: C_6  and  C_7
REMARK    7  A    between atoms: C_9  and  C_10
REMARK    8  A    between atoms: C_10  and  O_12
REMARK    9  A    between atoms: O_12  and  C_13
REMARK   10  A    between atoms: C_14  and  N_15
REMARK                            x       y       z     vdW  Elec       q    Type
REMARK                         _______ _______ _______ _____ _____    ______ ____
ROOT
ATOM      1  C   UNL     1       4.302   4.713  16.943  0.00  0.00    +0.000 A 
ATOM      2  C   UNL     1       4.883   4.338  15.748  0.00  0.00    +0.000 A 
ATOM      3  C   UNL     1       6.126   5.014  15.480  0.00  0.00    +0.000 A 
ATOM      4  C   UNL     1       6.436   5.890  16.509  0.00  0.00    +0.000 A 
ATOM      5  S   UNL     1       5.246   5.891  17.738  0.00  0.00    +0.000 S 
ENDROOT
BRANCH   4   6
ATOM      6  N   UNL     1       7.514   6.691  16.629  0.00  0.00    +0.000 N 
ATOM      7  H   UNL     1       7.599   7.315  17.432  0.00  0.00    +0.000 HD
ATOM      8  H   UNL     1       8.392   6.432  16.192  0.00  0.00    +0.000 HD
ENDBRANCH   4   6
BRANCH   3   9
ATOM      9  C   UNL     1       6.953   4.819  14.291  0.00  0.00    +0.000 C 
ATOM     10  O   UNL     1       7.929   5.508  14.010  0.00  0.00    +0.000 OA
BRANCH   9  11
ATOM     11  O   UNL     1       6.500   3.789  13.516  0.00  0.00    +0.000 OA
ATOM     12  C   UNL     1       6.864   3.877  12.140  0.00  0.00    +0.000 C 
ENDBRANCH   9  11
ENDBRANCH   3   9
BRANCH   1  13
ATOM     13  C   UNL     1       3.026   4.230  17.552  0.00  0.00    +0.000 C 
BRANCH  13  14
ATOM     14  S   UNL     1       3.188   2.567  18.273  0.00  0.00    +0.000 S 
BRANCH  14  15
ATOM     15  C   UNL     1       3.588   3.014  19.998  0.00  0.00    +0.000 C 
BRANCH  15  16
ATOM     16  C   UNL     1       2.764   4.238  20.383  0.00  0.00    +0.000 C 
BRANCH  16  18
ATOM     17  C   UNL     1       1.371   2.613  21.689  0.00  0.00    +0.000 C 
ATOM     18  C   UNL     1       1.348   3.860  20.818  0.00  0.00    +0.000 C 
ENDBRANCH  16  18
ENDBRANCH  15  16
ENDBRANCH  14  15
ENDBRANCH  13  14
ENDBRANCH   1  13
TORSDOF 8
ENDMDL
MODEL 7
REMARK VINA RESULT:      -5.7      2.534      3.344
REMARK  Name = 
REMARK  10 active torsions:
REMARK  status: ('A' for Active; 'I' for Inactive)
REMARK    1  A    between atoms: C_1  and  C_2
REMARK    2  A    between atoms: C_2  and  C_3
REMARK    3  A    between atoms: C_3  and  C_4
REMARK    4  A    between atoms: C_4  and  S_5
REMARK    5  A    between atoms: S_5  and  C_6
REMARK    6  A    between atoms: C_6  and  C_7
REMARK    7  A    between atoms: C_9  and  C_10
REMARK    8  A    between atoms: C_10  and  O_12
REMARK    9  A    between atoms: O_12  and  C_13
REMARK   10  A    between atoms: C_14  and  N_15
REMARK                            x       y       z     vdW  Elec       q    Type
REMARK                         _______ _______ _______ _____ _____    ______ ____
ROOT
ATOM      1  C   UNL     1       4.370   5.312  17.865  0.00  0.00    +0.000 A 
ATOM      2  C   UNL     1       4.693   5.228  16.526  0.00  0.00    +0.000 A 
ATOM      3  C   UNL     1       6.062   4.849  16.291  0.00  0.00    +0.000 A 
ATOM      4  C   UNL     1       6.727   4.657  17.492  0.00  0.00    +0.000 A 
ATOM      5  S   UNL     1       5.719   4.946  18.844  0.00  0.00    +0.000 S 
ENDROOT
BRANCH   4   6
ATOM      6  N   UNL     1       8.010   4.290  17.688  0.00  0.00    +0.000 N 
ATOM      7  H   UNL     1       8.744   4.998  17.719  0.00  0.00    +0.000 HD
ATOM      8  H   UNL     1       8.224   3.428  18.178  0.00  0.00    +0.000 HD
ENDBRANCH   4   6
BRANCH   3   9
ATOM      9  C   UNL     1       6.680   4.690  14.976  0.00  0.00    +0.000 C 
ATOM     10  O   UNL     1       7.689   5.288  14.612  0.00  0.00    +0.000 OA
BRANCH   9  11
ATOM     11  O   UNL     1       5.991   3.810  14.190  0.00  0.00    +0.000 OA
ATOM     12  C   UNL     1       6.442   3.743  12.838  0.00  0.00    +0.000 C 
ENDBRANCH   9  11
ENDBRANCH   3   9
BRANCH   1  13
ATOM     13  C   UNL     1       3.060   5.670  18.488  0.00  0.00    +0.000 C 
BRANCH  13  14
ATOM     14  S   UNL     1       1.818   4.353  18.295  0.00  0.00    +0.000 S 
BRANCH  14  15
ATOM     15  C   UNL     1       1.131   4.323  19.988  0.00  0.00    +0.000 C 
BRANCH  15  16
ATOM     16  C   UNL     1       2.289   4.250  20.977  0.00  0.00    +0.000 C 
BRANCH  16  18
ATOM     17  C   UNL     1       3.776   2.258  20.650  0.00  0.00    +0.000 C 
ATOM     18  C   UNL     1       2.581   2.813  21.410  0.00  0.00    +0.000 C 
ENDBRANCH  16  18
ENDBRANCH  15  16
ENDBRANCH  14  15
ENDBRANCH  13  14
ENDBRANCH   1  13
TORSDOF 8
ENDMDL
MODEL 8
REMARK VINA RESULT:      -5.7      2.516      3.384
REMARK  Name = 
REMARK  10 active torsions:
REMARK  status: ('A' for Active; 'I' for Inactive)
REMARK    1  A    between atoms: C_1  and  C_2
REMARK    2  A    between atoms: C_2  and  C_3
REMARK    3  A    between atoms: C_3  and  C_4
REMARK    4  A    between atoms: C_4  and  S_5
REMARK    5  A    between atoms: S_5  and  C_6
REMARK    6  A    between atoms: C_6  and  C_7
REMARK    7  A    between atoms: C_9  and  C_10
REMARK    8  A    between atoms: C_10  and  O_12
REMARK    9  A    between atoms: O_12  and  C_13
REMARK   10  A    between atoms: C_14  and  N_15
REMARK                            x       y       z     vdW  Elec       q    Type
REMARK                         _______ _______ _______ _____ _____    ______ ____
ROOT
ATOM      1  C   UNL     1       3.637   5.417  18.797  0.00  0.00    +0.000 A 
ATOM      2  C   UNL     1       3.884   5.803  17.495  0.00  0.00    +0.000 A 
ATOM      3  C   UNL     1       5.200   5.447  17.032  0.00  0.00    +0.000 A 
ATOM      4  C   UNL     1       5.905   4.790  18.029  0.00  0.00    +0.000 A 
ATOM      5  S   UNL     1       4.996   4.634  19.470  0.00  0.00    +0.000 S 
ENDROOT
BRANCH   4   6
ATOM      6  N   UNL     1       7.158   4.294  17.978  0.00  0.00    +0.000 N 
ATOM      7  H   UNL     1       7.484   3.657  18.706  0.00  0.00    +0.000 HD
ATOM      8  H   UNL     1       7.637   4.209  17.088  0.00  0.00    +0.000 HD
ENDBRANCH   4   6
BRANCH   3   9
ATOM      9  C   UNL     1       5.734   5.736  15.703  0.00  0.00    +0.000 C 
ATOM     10  O   UNL     1       5.421   6.716  15.033  0.00  0.00    +0.000 OA
BRANCH   9  11
ATOM     11  O   UNL     1       6.610   4.775  15.284  0.00  0.00    +0.000 OA
ATOM     12  C   UNL     1       6.134   3.964  14.212  0.00  0.00    +0.000 C 
ENDBRANCH   9  11
ENDBRANCH   3   9
BRANCH   1  13
ATOM     13  C   UNL     1       2.397   5.609  19.609  0.00  0.00    +0.000 C 
BRANCH  13  14
ATOM     14  S   UNL     1       2.312   4.467  21.023  0.00  0.00    +0.000 S 
BRANCH  14  15
ATOM     15  C   UNL     1       0.864   3.468  20.529  0.00  0.00    +0.000 C 
BRANCH  15  16
ATOM     16  C   UNL     1       1.056   3.023  19.084  0.00  0.00    +0.000 C 
BRANCH  16  18
ATOM     17  C   UNL     1       2.871   2.064  17.643  0.00  0.00    +0.000 C 
ATOM     18  C   UNL     1       2.119   1.931  18.959  0.00  0.00    +0.000 C 
ENDBRANCH  16  18
ENDBRANCH  15  16
ENDBRANCH  14  15
ENDBRANCH  13  14
ENDBRANCH   1  13
TORSDOF 8
ENDMDL
MODEL 9
REMARK VINA RESULT:      -5.7      3.772      6.439
REMARK  Name = 
REMARK  10 active torsions:
REMARK  status: ('A' for Active; 'I' for Inactive)
REMARK    1  A    between atoms: C_1  and  C_2
REMARK    2  A    between atoms: C_2  and  C_3
REMARK    3  A    between atoms: C_3  and  C_4
REMARK    4  A    between atoms: C_4  and  S_5
REMARK    5  A    between atoms: S_5  and  C_6
REMARK    6  A    between atoms: C_6  and  C_7
REMARK    7  A    between atoms: C_9  and  C_10
REMARK    8  A    between atoms: C_10  and  O_12
REMARK    9  A    between atoms: O_12  and  C_13
REMARK   10  A    between atoms: C_14  and  N_15
REMARK                            x       y       z     vdW  Elec       q    Type
REMARK                         _______ _______ _______ _____ _____    ______ ____
ROOT
ATOM      1  C   UNL     1       4.693   5.197  17.106  0.00  0.00    +0.000 A 
ATOM      2  C   UNL     1       4.673   3.981  17.758  0.00  0.00    +0.000 A 
ATOM      3  C   UNL     1       3.988   4.022  19.024  0.00  0.00    +0.000 A 
ATOM      4  C   UNL     1       3.508   5.298  19.276  0.00  0.00    +0.000 A 
ATOM      5  S   UNL     1       3.897   6.396  18.022  0.00  0.00    +0.000 S 
ENDROOT
BRANCH   4   6
ATOM      6  N   UNL     1       2.810   5.732  20.345  0.00  0.00    +0.000 N 
ATOM      7  H   UNL     1       3.265   5.808  21.255  0.00  0.00    +0.000 HD
ATOM      8  H   UNL     1       2.004   6.336  20.217  0.00  0.00    +0.000 HD
ENDBRANCH   4   6
BRANCH   3   9
ATOM      9  C   UNL     1       3.818   2.888  19.929  0.00  0.00    +0.000 C 
ATOM     10  O   UNL     1       4.739   2.180  20.327  0.00  0.00    +0.000 OA
BRANCH   9  11
ATOM     11  O   UNL     1       2.509   2.694  20.269  0.00  0.00    +0.000 OA
ATOM     12  C   UNL     1       2.269   2.579  21.670  0.00  0.00    +0.000 C 
ENDBRANCH   9  11
ENDBRANCH   3   9
BRANCH   1  13
ATOM     13  C   UNL     1       5.302   5.537  15.784  0.00  0.00    +0.000 C 
BRANCH  13  14
ATOM     14  S   UNL     1       6.952   4.800  15.572  0.00  0.00    +0.000 S 
BRANCH  14  15
ATOM     15  C   UNL     1       6.935   4.513  13.768  0.00  0.00    +0.000 C 
BRANCH  15  16
ATOM     16  C   UNL     1       5.580   3.929  13.386  0.00  0.00    +0.000 C 
BRANCH  16  18
ATOM     17  C   UNL     1       4.289   3.164  11.377  0.00  0.00    +0.000 C 
ATOM     18  C   UNL     1       5.643   3.152  12.070  0.00  0.00    +0.000 C 
ENDBRANCH  16  18
ENDBRANCH  15  16
ENDBRANCH  14  15
ENDBRANCH  13  14
ENDBRANCH   1  13
TORSDOF 8
ENDMDL
