MODEL 1
REMARK VINA RESULT:      -7.7      0.000      0.000
REMARK  Name = 
REMARK  6 active torsions:
REMARK  status: ('A' for Active; 'I' for Inactive)
REMARK    1  A    between atoms: C_2  and  C_3
REMARK    2  A    between atoms: C_7  and  O_9
REMARK    3  A    between atoms: O_9  and  C_10
REMARK    4  A    between atoms: C_10  and  C_11
REMARK    5  A    between atoms: C_14  and  O_15
REMARK    6  A    between atoms: O_15  and  C_16
REMARK                            x       y       z     vdW  Elec       q    Type
REMARK                         _______ _______ _______ _____ _____    ______ ____
ROOT
ATOM      1  C   UNL     1       2.377   7.077  19.509  0.00  0.00    +0.000 A 
ATOM      2  C   UNL     1       2.487   7.641  18.232  0.00  0.00    +0.000 A 
ATOM      3  C   UNL     1       1.845   8.845  17.933  0.00  0.00    +0.000 A 
ATOM      4  C   UNL     1       1.085   9.493  18.906  0.00  0.00    +0.000 A 
ATOM      5  C   UNL     1       1.021   8.963  20.198  0.00  0.00    +0.000 A 
ATOM      6  C   UNL     1       1.634   7.745  20.489  0.00  0.00    +0.000 A 
ENDROOT
BRANCH   1   7
ATOM      7  C   UNL     1       3.082   5.788  19.843  0.00  0.00    +0.000 C 
BRANCH   7   8
ATOM      8  O   UNL     1       4.362   5.749  19.209  0.00  0.00    +0.000 OA
BRANCH   8  13
ATOM      9  C   UNL     1       5.591   4.581  15.103  0.00  0.00    +0.000 A 
ATOM     10  C   UNL     1       5.390   5.932  15.424  0.00  0.00    +0.000 A 
ATOM     11  N   UNL     1       5.015   6.104  16.694  0.00  0.00    +0.000 NA
ATOM     12  N   UNL     1       4.977   4.837  17.216  0.00  0.00    +0.000 N 
ATOM     13  C   UNL     1       4.643   4.589  18.563  0.00  0.00    +0.000 C 
ATOM     14  O   UNL     1       4.646   3.450  19.010  0.00  0.00    +0.000 OA
ATOM     15  C   UNL     1       5.321   3.896  16.261  0.00  0.00    +0.000 A 
BRANCH   9  17
ATOM     16  N   UNL     1       6.334   3.582  12.840  0.00  0.00    +0.000 NA
ATOM     17  C   UNL     1       5.998   4.028  13.854  0.00  0.00    +0.000 C 
ENDBRANCH   9  17
ENDBRANCH   8  13
ENDBRANCH   7   8
ENDBRANCH   1   7
BRANCH   4  18
ATOM     18  O   UNL     1       0.478  10.668  18.519  0.00  0.00    +0.000 OA
BRANCH  18  19
ATOM     19  C   UNL     1      -0.875  10.688  18.260  0.00  0.00    +0.000 A 
ATOM     20  C   UNL     1      -1.621  11.641  18.958  0.00  0.00    +0.000 A 
ATOM     21  C   UNL     1      -3.005  11.712  18.783  0.00  0.00    +0.000 A 
ATOM     22  C   UNL     1      -3.644  10.835  17.907  0.00  0.00    +0.000 A 
ATOM     23  C   UNL     1      -2.899   9.911  17.179  0.00  0.00    +0.000 A 
ATOM     24  C   UNL     1      -1.514   9.861  17.331  0.00  0.00    +0.000 A 
ENDBRANCH  18  19
ENDBRANCH   4  18
TORSDOF 6
ENDMDL
MODEL 2
REMARK VINA RESULT:      -7.5      0.317      1.031
REMARK  Name = 
REMARK  6 active torsions:
REMARK  status: ('A' for Active; 'I' for Inactive)
REMARK    1  A    between atoms: C_2  and  C_3
REMARK    2  A    between atoms: C_7  and  O_9
REMARK    3  A    between atoms: O_9  and  C_10
REMARK    4  A    between atoms: C_10  and  C_11
REMARK    5  A    between atoms: C_14  and  O_15
REMARK    6  A    between atoms: O_15  and  C_16
REMARK                            x       y       z     vdW  Elec       q    Type
REMARK                         _______ _______ _______ _____ _____    ______ ____
ROOT
ATOM      1  C   UNL     1       2.223   7.312  19.505  0.00  0.00    +0.000 A 
ATOM      2  C   UNL     1       2.273   7.840  18.208  0.00  0.00    +0.000 A 
ATOM      3  C   UNL     1       1.613   9.033  17.904  0.00  0.00    +0.000 A 
ATOM      4  C   UNL     1       0.895   9.707  18.892  0.00  0.00    +0.000 A 
ATOM      5  C   UNL     1       0.892   9.214  20.200  0.00  0.00    +0.000 A 
ATOM      6  C   UNL     1       1.522   8.008  20.498  0.00  0.00    +0.000 A 
ENDROOT
BRANCH   1   7
ATOM      7  C   UNL     1       2.948   6.036  19.844  0.00  0.00    +0.000 C 
BRANCH   7   8
ATOM      8  O   UNL     1       4.115   5.902  19.030  0.00  0.00    +0.000 OA
BRANCH   8  13
ATOM      9  C   UNL     1       5.535   4.590  15.030  0.00  0.00    +0.000 A 
ATOM     10  C   UNL     1       5.595   5.944  15.394  0.00  0.00    +0.000 A 
ATOM     11  N   UNL     1       5.119   6.164  16.622  0.00  0.00    +0.000 NA
ATOM     12  N   UNL     1       4.747   4.925  17.074  0.00  0.00    +0.000 N 
ATOM     13  C   UNL     1       4.212   4.724  18.363  0.00  0.00    +0.000 C 
ATOM     14  O   UNL     1       3.916   3.603  18.751  0.00  0.00    +0.000 OA
ATOM     15  C   UNL     1       4.989   3.953  16.117  0.00  0.00    +0.000 A 
BRANCH   9  17
ATOM     16  N   UNL     1       6.304   3.505  12.817  0.00  0.00    +0.000 NA
ATOM     17  C   UNL     1       5.956   3.990  13.808  0.00  0.00    +0.000 C 
ENDBRANCH   9  17
ENDBRANCH   8  13
ENDBRANCH   7   8
ENDBRANCH   1   7
BRANCH   4  18
ATOM     18  O   UNL     1       0.267  10.869  18.498  0.00  0.00    +0.000 OA
BRANCH  18  19
ATOM     19  C   UNL     1      -1.096  10.876  18.295  0.00  0.00    +0.000 A 
ATOM     20  C   UNL     1      -1.583   9.964  17.357  0.00  0.00    +0.000 A 
ATOM     21  C   UNL     1      -2.948   9.923  17.063  0.00  0.00    +0.000 A 
ATOM     22  C   UNL     1      -3.828  10.791  17.711  0.00  0.00    +0.000 A 
ATOM     23  C   UNL     1      -3.351  11.674  18.676  0.00  0.00    +0.000 A 
ATOM     24  C   UNL     1      -1.993  11.692  18.991  0.00  0.00    +0.000 A 
ENDBRANCH  18  19
ENDBRANCH   4  18
TORSDOF 6
ENDMDL
MODEL 3
REMARK VINA RESULT:      -7.4      4.243      7.945
REMARK  Name = 
REMARK  6 active torsions:
REMARK  status: ('A' for Active; 'I' for Inactive)
REMARK    1  A    between atoms: C_2  and  C_3
REMARK    2  A    between atoms: C_7  and  O_9
REMARK    3  A    between atoms: O_9  and  C_10
REMARK    4  A    between atoms: C_10  and  C_11
REMARK    5  A    between atoms: C_14  and  O_15
REMARK    6  A    between atoms: O_15  and  C_16
REMARK                            x       y       z     vdW  Elec       q    Type
REMARK                         _______ _______ _______ _____ _____    ______ ____
ROOT
ATOM      1  C   UNL     1       0.888  10.053  19.825  0.00  0.00    +0.000 A 
ATOM      2  C   UNL     1       1.454   9.719  18.587  0.00  0.00    +0.000 A 
ATOM      3  C   UNL     1       2.098   8.493  18.412  0.00  0.00    +0.000 A 
ATOM      4  C   UNL     1       2.186   7.591  19.472  0.00  0.00    +0.000 A 
ATOM      5  C   UNL     1       1.571   7.896  20.690  0.00  0.00    +0.000 A 
ATOM      6  C   UNL     1       0.957   9.132  20.877  0.00  0.00    +0.000 A 
ENDROOT
BRANCH   1   7
ATOM      7  C   UNL     1       0.176  11.367  20.015  0.00  0.00    +0.000 C 
BRANCH   7   8
ATOM      8  O   UNL     1      -1.150  11.289  19.488  0.00  0.00    +0.000 OA
BRANCH   8  13
ATOM      9  C   UNL     1      -3.091  10.253  15.629  0.00  0.00    +0.000 A 
ATOM     10  C   UNL     1      -3.120   9.349  16.701  0.00  0.00    +0.000 A 
ATOM     11  N   UNL     1      -2.482   9.814  17.778  0.00  0.00    +0.000 NA
ATOM     12  N   UNL     1      -2.033  11.053  17.404  0.00  0.00    +0.000 N 
ATOM     13  C   UNL     1      -1.322  11.893  18.285  0.00  0.00    +0.000 C 
ATOM     14  O   UNL     1      -0.959  13.006  17.933  0.00  0.00    +0.000 OA
ATOM     15  C   UNL     1      -2.391  11.338  16.097  0.00  0.00    +0.000 A 
BRANCH   9  17
ATOM     16  N   UNL     1      -4.145   9.975  13.287  0.00  0.00    +0.000 NA
ATOM     17  C   UNL     1      -3.670  10.099  14.336  0.00  0.00    +0.000 C 
ENDBRANCH   9  17
ENDBRANCH   8  13
ENDBRANCH   7   8
ENDBRANCH   1   7
BRANCH   4  18
ATOM     18  O   UNL     1       2.849   6.411  19.211  0.00  0.00    +0.000 OA
BRANCH  18  19
ATOM     19  C   UNL     1       2.200   5.208  19.384  0.00  0.00    +0.000 A 
ATOM     20  C   UNL     1       1.928   4.483  18.221  0.00  0.00    +0.000 A 
ATOM     21  C   UNL     1       1.245   3.267  18.298  0.00  0.00    +0.000 A 
ATOM     22  C   UNL     1       0.838   2.772  19.537  0.00  0.00    +0.000 A 
ATOM     23  C   UNL     1       1.142   3.472  20.701  0.00  0.00    +0.000 A 
ATOM     24  C   UNL     1       1.852   4.670  20.626  0.00  0.00    +0.000 A 
ENDBRANCH  18  19
ENDBRANCH   4  18
TORSDOF 6
ENDMDL
MODEL 4
REMARK VINA RESULT:      -7.4      4.564      9.174
REMARK  Name = 
REMARK  6 active torsions:
REMARK  status: ('A' for Active; 'I' for Inactive)
REMARK    1  A    between atoms: C_2  and  C_3
REMARK    2  A    between atoms: C_7  and  O_9
REMARK    3  A    between atoms: O_9  and  C_10
REMARK    4  A    between atoms: C_10  and  C_11
REMARK    5  A    between atoms: C_14  and  O_15
REMARK    6  A    between atoms: O_15  and  C_16
REMARK                            x       y       z     vdW  Elec       q    Type
REMARK                         _______ _______ _______ _____ _____    ______ ____
ROOT
ATOM      1  C   UNL     1       1.166   9.838  18.890  0.00  0.00    +0.000 A 
ATOM      2  C   UNL     1       1.077   9.140  20.102  0.00  0.00    +0.000 A 
ATOM      3  C   UNL     1       1.741   7.924  20.269  0.00  0.00    +0.000 A 
ATOM      4  C   UNL     1       2.498   7.391  19.225  0.00  0.00    +0.000 A 
ATOM      5  C   UNL     1       2.637   8.112  18.036  0.00  0.00    +0.000 A 
ATOM      6  C   UNL     1       1.948   9.310  17.856  0.00  0.00    +0.000 A 
ENDROOT
BRANCH   1   7
ATOM      7  C   UNL     1       0.466  11.159  18.710  0.00  0.00    +0.000 C 
BRANCH   7   8
ATOM      8  O   UNL     1      -0.891  10.948  18.314  0.00  0.00    +0.000 OA
BRANCH   8  13
ATOM      9  C   UNL     1      -5.202  11.979  18.031  0.00  0.00    +0.000 A 
ATOM     10  C   UNL     1      -4.549  11.368  16.951  0.00  0.00    +0.000 A 
ATOM     11  N   UNL     1      -3.257  11.137  17.200  0.00  0.00    +0.000 NA
ATOM     12  N   UNL     1      -3.065  11.601  18.475  0.00  0.00    +0.000 N 
ATOM     13  C   UNL     1      -1.817  11.515  19.126  0.00  0.00    +0.000 C 
ATOM     14  O   UNL     1      -1.682  11.911  20.276  0.00  0.00    +0.000 OA
ATOM     15  C   UNL     1      -4.237  12.121  18.997  0.00  0.00    +0.000 A 
BRANCH   9  17
ATOM     16  N   UNL     1      -7.686  12.669  18.198  0.00  0.00    +0.000 NA
ATOM     17  C   UNL     1      -6.572  12.363  18.124  0.00  0.00    +0.000 C 
ENDBRANCH   9  17
ENDBRANCH   8  13
ENDBRANCH   7   8
ENDBRANCH   1   7
BRANCH   4  18
ATOM     18  O   UNL     1       3.109   6.182  19.476  0.00  0.00    +0.000 OA
BRANCH  18  19
ATOM     19  C   UNL     1       2.359   5.026  19.496  0.00  0.00    +0.000 A 
ATOM     20  C   UNL     1       2.079   4.452  18.254  0.00  0.00    +0.000 A 
ATOM     21  C   UNL     1       1.298   3.297  18.177  0.00  0.00    +0.000 A 
ATOM     22  C   UNL     1       0.800   2.711  19.341  0.00  0.00    +0.000 A 
ATOM     23  C   UNL     1       1.110   3.258  20.584  0.00  0.00    +0.000 A 
ATOM     24  C   UNL     1       1.916   4.393  20.661  0.00  0.00    +0.000 A 
ENDBRANCH  18  19
ENDBRANCH   4  18
TORSDOF 6
ENDMDL
MODEL 5
REMARK VINA RESULT:      -7.4      4.724      9.285
REMARK  Name = 
REMARK  6 active torsions:
REMARK  status: ('A' for Active; 'I' for Inactive)
REMARK    1  A    between atoms: C_2  and  C_3
REMARK    2  A    between atoms: C_7  and  O_9
REMARK    3  A    between atoms: O_9  and  C_10
REMARK    4  A    between atoms: C_10  and  C_11
REMARK    5  A    between atoms: C_14  and  O_15
REMARK    6  A    between atoms: O_15  and  C_16
REMARK                            x       y       z     vdW  Elec       q    Type
REMARK                         _______ _______ _______ _____ _____    ______ ____
ROOT
ATOM      1  C   UNL     1       1.002   9.859  18.927  0.00  0.00    +0.000 A 
ATOM      2  C   UNL     1       0.967   9.220  20.173  0.00  0.00    +0.000 A 
ATOM      3  C   UNL     1       1.656   8.023  20.373  0.00  0.00    +0.000 A 
ATOM      4  C   UNL     1       2.383   7.451  19.330  0.00  0.00    +0.000 A 
ATOM      5  C   UNL     1       2.469   8.116  18.103  0.00  0.00    +0.000 A 
ATOM      6  C   UNL     1       1.755   9.294  17.891  0.00  0.00    +0.000 A 
ENDROOT
BRANCH   1   7
ATOM      7  C   UNL     1       0.276  11.161  18.710  0.00  0.00    +0.000 C 
BRANCH   7   8
ATOM      8  O   UNL     1      -1.058  11.070  19.214  0.00  0.00    +0.000 OA
BRANCH   8  13
ATOM      9  C   UNL     1      -5.276  12.356  18.677  0.00  0.00    +0.000 A 
ATOM     10  C   UNL     1      -4.564  12.728  19.827  0.00  0.00    +0.000 A 
ATOM     11  N   UNL     1      -3.317  12.249  19.832  0.00  0.00    +0.000 NA
ATOM     12  N   UNL     1      -3.210  11.556  18.655  0.00  0.00    +0.000 N 
ATOM     13  C   UNL     1      -2.017  10.913  18.268  0.00  0.00    +0.000 C 
ATOM     14  O   UNL     1      -1.941  10.325  17.197  0.00  0.00    +0.000 OA
ATOM     15  C   UNL     1      -4.394  11.606  17.939  0.00  0.00    +0.000 A 
BRANCH   9  17
ATOM     16  N   UNL     1      -7.709  12.952  18.046  0.00  0.00    +0.000 NA
ATOM     17  C   UNL     1      -6.618  12.688  18.330  0.00  0.00    +0.000 C 
ENDBRANCH   9  17
ENDBRANCH   8  13
ENDBRANCH   7   8
ENDBRANCH   1   7
BRANCH   4  18
ATOM     18  O   UNL     1       3.022   6.263  19.615  0.00  0.00    +0.000 OA
BRANCH  18  19
ATOM     19  C   UNL     1       2.309   5.084  19.615  0.00  0.00    +0.000 A 
ATOM     20  C   UNL     1       2.022   4.538  18.362  0.00  0.00    +0.000 A 
ATOM     21  C   UNL     1       1.276   3.362  18.265  0.00  0.00    +0.000 A 
ATOM     22  C   UNL     1       0.819   2.727  19.420  0.00  0.00    +0.000 A 
ATOM     23  C   UNL     1       1.136   3.247  20.672  0.00  0.00    +0.000 A 
ATOM     24  C   UNL     1       1.908   4.404  20.769  0.00  0.00    +0.000 A 
ENDBRANCH  18  19
ENDBRANCH   4  18
TORSDOF 6
ENDMDL
MODEL 6
REMARK VINA RESULT:      -7.3      4.674      9.304
REMARK  Name = 
REMARK  6 active torsions:
REMARK  status: ('A' for Active; 'I' for Inactive)
REMARK    1  A    between atoms: C_2  and  C_3
REMARK    2  A    between atoms: C_7  and  O_9
REMARK    3  A    between atoms: O_9  and  C_10
REMARK    4  A    between atoms: C_10  and  C_11
REMARK    5  A    between atoms: C_14  and  O_15
REMARK    6  A    between atoms: O_15  and  C_16
REMARK                            x       y       z     vdW  Elec       q    Type
REMARK                         _______ _______ _______ _____ _____    ______ ____
ROOT
ATOM      1  C   UNL     1       1.213   9.612  18.816  0.00  0.00    +0.000 A 
ATOM      2  C   UNL     1       1.860   8.897  17.800  0.00  0.00    +0.000 A 
ATOM      3  C   UNL     1       2.468   7.671  18.075  0.00  0.00    +0.000 A 
ATOM      4  C   UNL     1       2.439   7.150  19.368  0.00  0.00    +0.000 A 
ATOM      5  C   UNL     1       1.743   7.831  20.371  0.00  0.00    +0.000 A 
ATOM      6  C   UNL     1       1.164   9.071  20.106  0.00  0.00    +0.000 A 
ENDROOT
BRANCH   1   7
ATOM      7  C   UNL     1       0.539  10.927  18.521  0.00  0.00    +0.000 C 
BRANCH   7   8
ATOM      8  O   UNL     1       0.365  11.672  19.728  0.00  0.00    +0.000 OA
BRANCH   8  13
ATOM      9  C   UNL     1      -2.614  12.034  23.004  0.00  0.00    +0.000 A 
ATOM     10  C   UNL     1      -1.402  11.361  23.221  0.00  0.00    +0.000 A 
ATOM     11  N   UNL     1      -0.630  11.337  22.131  0.00  0.00    +0.000 NA
ATOM     12  N   UNL     1      -1.351  12.015  21.183  0.00  0.00    +0.000 N 
ATOM     13  C   UNL     1      -0.860  12.234  19.880  0.00  0.00    +0.000 C 
ATOM     14  O   UNL     1      -1.513  12.869  19.063  0.00  0.00    +0.000 OA
ATOM     15  C   UNL     1      -2.564  12.445  21.695  0.00  0.00    +0.000 A 
BRANCH   9  17
ATOM     16  N   UNL     1      -4.524  12.447  24.692  0.00  0.00    +0.000 NA
ATOM     17  C   UNL     1      -3.670  12.260  23.933  0.00  0.00    +0.000 C 
ENDBRANCH   9  17
ENDBRANCH   8  13
ENDBRANCH   7   8
ENDBRANCH   1   7
BRANCH   4  18
ATOM     18  O   UNL     1       3.074   5.940  19.549  0.00  0.00    +0.000 OA
BRANCH  18  19
ATOM     19  C   UNL     1       2.375   4.766  19.377  0.00  0.00    +0.000 A 
ATOM     20  C   UNL     1       2.661   4.045  18.215  0.00  0.00    +0.000 A 
ATOM     21  C   UNL     1       1.976   2.859  17.941  0.00  0.00    +0.000 A 
ATOM     22  C   UNL     1       1.010   2.389  18.830  0.00  0.00    +0.000 A 
ATOM     23  C   UNL     1       0.751   3.084  20.009  0.00  0.00    +0.000 A 
ATOM     24  C   UNL     1       1.457   4.251  20.296  0.00  0.00    +0.000 A 
ENDBRANCH  18  19
ENDBRANCH   4  18
TORSDOF 6
ENDMDL
MODEL 7
REMARK VINA RESULT:      -7.3      4.662      9.277
REMARK  Name = 
REMARK  6 active torsions:
REMARK  status: ('A' for Active; 'I' for Inactive)
REMARK    1  A    between atoms: C_2  and  C_3
REMARK    2  A    between atoms: C_7  and  O_9
REMARK    3  A    between atoms: O_9  and  C_10
REMARK    4  A    between atoms: C_10  and  C_11
REMARK    5  A    between atoms: C_14  and  O_15
REMARK    6  A    between atoms: O_15  and  C_16
REMARK                            x       y       z     vdW  Elec       q    Type
REMARK                         _______ _______ _______ _____ _____    ______ ____
ROOT
ATOM      1  C   UNL     1       1.177   9.576  18.954  0.00  0.00    +0.000 A 
ATOM      2  C   UNL     1       1.873   8.900  17.943  0.00  0.00    +0.000 A 
ATOM      3  C   UNL     1       2.492   7.677  18.207  0.00  0.00    +0.000 A 
ATOM      4  C   UNL     1       2.424   7.119  19.484  0.00  0.00    +0.000 A 
ATOM      5  C   UNL     1       1.681   7.761  20.479  0.00  0.00    +0.000 A 
ATOM      6  C   UNL     1       1.091   8.998  20.227  0.00  0.00    +0.000 A 
ENDROOT
BRANCH   1   7
ATOM      7  C   UNL     1       0.492  10.887  18.671  0.00  0.00    +0.000 C 
BRANCH   7   8
ATOM      8  O   UNL     1       0.519  11.718  19.834  0.00  0.00    +0.000 OA
BRANCH   8  13
ATOM      9  C   UNL     1      -2.530  12.045  23.049  0.00  0.00    +0.000 A 
ATOM     10  C   UNL     1      -1.451  11.158  23.184  0.00  0.00    +0.000 A 
ATOM     11  N   UNL     1      -0.638  11.178  22.124  0.00  0.00    +0.000 NA
ATOM     12  N   UNL     1      -1.194  12.105  21.282  0.00  0.00    +0.000 N 
ATOM     13  C   UNL     1      -0.609  12.442  20.044  0.00  0.00    +0.000 C 
ATOM     14  O   UNL     1      -1.112  13.294  19.325  0.00  0.00    +0.000 OA
ATOM     15  C   UNL     1      -2.349  12.641  21.826  0.00  0.00    +0.000 A 
BRANCH   9  17
ATOM     16  N   UNL     1      -4.442  12.490  24.726  0.00  0.00    +0.000 NA
ATOM     17  C   UNL     1      -3.583  12.292  23.976  0.00  0.00    +0.000 C 
ENDBRANCH   9  17
ENDBRANCH   8  13
ENDBRANCH   7   8
ENDBRANCH   1   7
BRANCH   4  18
ATOM     18  O   UNL     1       3.074   5.916  19.655  0.00  0.00    +0.000 OA
BRANCH  18  19
ATOM     19  C   UNL     1       2.443   4.741  19.308  0.00  0.00    +0.000 A 
ATOM     20  C   UNL     1       1.427   4.312  20.164  0.00  0.00    +0.000 A 
ATOM     21  C   UNL     1       0.755   3.115  19.909  0.00  0.00    +0.000 A 
ATOM     22  C   UNL     1       1.094   2.348  18.793  0.00  0.00    +0.000 A 
ATOM     23  C   UNL     1       2.079   2.793  17.915  0.00  0.00    +0.000 A 
ATOM     24  C   UNL     1       2.727   4.003  18.155  0.00  0.00    +0.000 A 
ENDBRANCH  18  19
ENDBRANCH   4  18
TORSDOF 6
ENDMDL
MODEL 8
REMARK VINA RESULT:      -7.2      4.276      8.862
REMARK  Name = 
REMARK  6 active torsions:
REMARK  status: ('A' for Active; 'I' for Inactive)
REMARK    1  A    between atoms: C_2  and  C_3
REMARK    2  A    between atoms: C_7  and  O_9
REMARK    3  A    between atoms: O_9  and  C_10
REMARK    4  A    between atoms: C_10  and  C_11
REMARK    5  A    between atoms: C_14  and  O_15
REMARK    6  A    between atoms: O_15  and  C_16
REMARK                            x       y       z     vdW  Elec       q    Type
REMARK                         _______ _______ _______ _____ _____    ______ ____
ROOT
ATOM      1  C   UNL     1       1.491   9.336  18.685  0.00  0.00    +0.000 A 
ATOM      2  C   UNL     1       2.190   8.604  17.717  0.00  0.00    +0.000 A 
ATOM      3  C   UNL     1       2.776   7.379  18.043  0.00  0.00    +0.000 A 
ATOM      4  C   UNL     1       2.673   6.877  19.340  0.00  0.00    +0.000 A 
ATOM      5  C   UNL     1       1.926   7.577  20.293  0.00  0.00    +0.000 A 
ATOM      6  C   UNL     1       1.368   8.814  19.978  0.00  0.00    +0.000 A 
ENDROOT
BRANCH   1   7
ATOM      7  C   UNL     1       0.841  10.649  18.334  0.00  0.00    +0.000 C 
BRANCH   7   8
ATOM      8  O   UNL     1      -0.493  10.429  17.871  0.00  0.00    +0.000 OA
BRANCH   8  13
ATOM      9  C   UNL     1      -4.721  11.733  17.473  0.00  0.00    +0.000 A 
ATOM     10  C   UNL     1      -3.996  11.327  16.343  0.00  0.00    +0.000 A 
ATOM     11  N   UNL     1      -2.741  10.978  16.639  0.00  0.00    +0.000 NA
ATOM     12  N   UNL     1      -2.647  11.154  17.995  0.00  0.00    +0.000 N 
ATOM     13  C   UNL     1      -1.467  10.864  18.710  0.00  0.00    +0.000 C 
ATOM     14  O   UNL     1      -1.420  11.002  19.924  0.00  0.00    +0.000 OA
ATOM     15  C   UNL     1      -3.841  11.617  18.521  0.00  0.00    +0.000 A 
BRANCH   9  17
ATOM     16  N   UNL     1      -7.181  12.509  17.593  0.00  0.00    +0.000 NA
ATOM     17  C   UNL     1      -6.078  12.164  17.537  0.00  0.00    +0.000 C 
ENDBRANCH   9  17
ENDBRANCH   8  13
ENDBRANCH   7   8
ENDBRANCH   1   7
BRANCH   4  18
ATOM     18  O   UNL     1       3.292   5.668  19.574  0.00  0.00    +0.000 OA
BRANCH  18  19
ATOM     19  C   UNL     1       2.612   4.493  19.338  0.00  0.00    +0.000 A 
ATOM     20  C   UNL     1       1.633   4.150  20.273  0.00  0.00    +0.000 A 
ATOM     21  C   UNL     1       0.916   2.960  20.132  0.00  0.00    +0.000 A 
ATOM     22  C   UNL     1       1.173   2.114  19.053  0.00  0.00    +0.000 A 
ATOM     23  C   UNL     1       2.120   2.472  18.097  0.00  0.00    +0.000 A 
ATOM     24  C   UNL     1       2.813   3.675  18.222  0.00  0.00    +0.000 A 
ENDBRANCH  18  19
ENDBRANCH   4  18
TORSDOF 6
ENDMDL
MODEL 9
REMARK VINA RESULT:      -7.1      6.130      8.948
REMARK  Name = 
REMARK  6 active torsions:
REMARK  status: ('A' for Active; 'I' for Inactive)
REMARK    1  A    between atoms: C_2  and  C_3
REMARK    2  A    between atoms: C_7  and  O_9
REMARK    3  A    between atoms: O_9  and  C_10
REMARK    4  A    between atoms: C_10  and  C_11
REMARK    5  A    between atoms: C_14  and  O_15
REMARK    6  A    between atoms: O_15  and  C_16
REMARK                            x       y       z     vdW  Elec       q    Type
REMARK                         _______ _______ _______ _____ _____    ______ ____
ROOT
ATOM      1  C   UNL     1       7.649   7.813  17.926  0.00  0.00    +0.000 A 
ATOM      2  C   UNL     1       8.200   6.929  18.862  0.00  0.00    +0.000 A 
ATOM      3  C   UNL     1       7.585   5.703  19.126  0.00  0.00    +0.000 A 
ATOM      4  C   UNL     1       6.412   5.352  18.459  0.00  0.00    +0.000 A 
ATOM      5  C   UNL     1       5.892   6.205  17.481  0.00  0.00    +0.000 A 
ATOM      6  C   UNL     1       6.486   7.443  17.240  0.00  0.00    +0.000 A 
ENDROOT
BRANCH   1   7
ATOM      7  C   UNL     1       8.318   9.128  17.624  0.00  0.00    +0.000 C 
BRANCH   7   8
ATOM      8  O   UNL     1       8.978   9.624  18.790  0.00  0.00    +0.000 OA
BRANCH   8  13
ATOM      9  C   UNL     1       9.725  13.249  21.247  0.00  0.00    +0.000 A 
ATOM     10  C   UNL     1       8.993  12.175  21.775  0.00  0.00    +0.000 A 
ATOM     11  N   UNL     1       8.854  11.174  20.901  0.00  0.00    +0.000 NA
ATOM     12  N   UNL     1       9.516  11.601  19.781  0.00  0.00    +0.000 N 
ATOM     13  C   UNL     1       9.623  10.805  18.622  0.00  0.00    +0.000 C 
ATOM     14  O   UNL     1      10.246  11.201  17.646  0.00  0.00    +0.000 OA
ATOM     15  C   UNL     1      10.051  12.865  19.970  0.00  0.00    +0.000 A 
BRANCH   9  17
ATOM     16  N   UNL     1      10.362  15.466  22.409  0.00  0.00    +0.000 NA
ATOM     17  C   UNL     1      10.073  14.473  21.889  0.00  0.00    +0.000 C 
ENDBRANCH   9  17
ENDBRANCH   8  13
ENDBRANCH   7   8
ENDBRANCH   1   7
BRANCH   4  18
ATOM     18  O   UNL     1       5.869   4.129  18.790  0.00  0.00    +0.000 OA
BRANCH  18  19
ATOM     19  C   UNL     1       4.523   3.903  18.600  0.00  0.00    +0.000 A 
ATOM     20  C   UNL     1       3.671   4.392  19.592  0.00  0.00    +0.000 A 
ATOM     21  C   UNL     1       2.293   4.180  19.499  0.00  0.00    +0.000 A 
ATOM     22  C   UNL     1       1.766   3.484  18.411  0.00  0.00    +0.000 A 
ATOM     23  C   UNL     1       2.609   3.030  17.399  0.00  0.00    +0.000 A 
ATOM     24  C   UNL     1       3.980   3.269  17.478  0.00  0.00    +0.000 A 
ENDBRANCH  18  19
ENDBRANCH   4  18
TORSDOF 6
ENDMDL
