MODEL 1
REMARK VINA RESULT:      -6.9      0.000      0.000
REMARK  Name = 
REMARK  5 active torsions:
REMARK  status: ('A' for Active; 'I' for Inactive)
REMARK    1  A    between atoms: C_2  and  O_3
REMARK    2  A    between atoms: C_2  and  C_4
REMARK    3  A    between atoms: C_7  and  N_8
REMARK    4  A    between atoms: C_12  and  C_13
REMARK    5  A    between atoms: C_23  and  O_24
REMARK                            x       y       z     vdW  Elec       q    Type
REMARK                         _______ _______ _______ _____ _____    ______ ____
ROOT
ATOM      1  N   UNL     1       1.246   9.514  19.631  0.00  0.00    +0.000 N 
ATOM      2  C   UNL     1       1.863   8.930  18.528  0.00  0.00    +0.000 C 
ATOM      3  O   UNL     1       2.068   9.445  17.435  0.00  0.00    +0.000 OA
ATOM      4  C   UNL     1       2.264   7.533  18.846  0.00  0.00    +0.000 C 
ATOM      5  C   UNL     1       2.864   6.746  17.942  0.00  0.00    +0.000 C 
ATOM      6  S   UNL     1       1.811   7.130  20.450  0.00  0.00    +0.000 S 
ATOM      7  C   UNL     1       1.090   8.710  20.752  0.00  0.00    +0.000 C 
ATOM      8  S   UNL     1       0.270   9.021  22.176  0.00  0.00    +0.000 S 
ENDROOT
BRANCH   1  12
ATOM      9  C   UNL     1      -0.137  13.506  19.259  0.00  0.00    +0.000 A 
ATOM     10  C   UNL     1       1.062  13.232  19.931  0.00  0.00    +0.000 A 
ATOM     11  C   UNL     1       1.514  11.916  20.072  0.00  0.00    +0.000 A 
ATOM     12  C   UNL     1       0.772  10.853  19.539  0.00  0.00    +0.000 A 
ATOM     13  C   UNL     1      -0.430  11.126  18.869  0.00  0.00    +0.000 A 
ATOM     14  C   UNL     1      -0.883  12.441  18.744  0.00  0.00    +0.000 A 
BRANCH   9  16
ATOM     15  O   UNL     1       0.110  15.748  18.499  0.00  0.00    +0.000 OA
ATOM     16  C   UNL     1      -0.543  14.934  19.132  0.00  0.00    +0.000 C 
BRANCH  16  17
ATOM     17  O   UNL     1      -1.724  15.234  19.711  0.00  0.00    +0.000 OA
ATOM     18  H   UNL     1      -2.193  15.963  19.248  0.00  0.00    +0.000 HD
ENDBRANCH  16  17
ENDBRANCH   9  16
BRANCH  14  19
ATOM     19  O   UNL     1      -2.066  12.687  18.096  0.00  0.00    +0.000 OA
ATOM     20  H   UNL     1      -1.982  13.518  17.591  0.00  0.00    +0.000 HD
ENDBRANCH  14  19
ENDBRANCH   1  12
BRANCH   5  21
ATOM     21  C   UNL     1       3.173   5.329  18.145  0.00  0.00    +0.000 A 
ATOM     22  C   UNL     1       2.240   4.368  17.741  0.00  0.00    +0.000 A 
ATOM     23  C   UNL     1       2.488   3.013  17.955  0.00  0.00    +0.000 A 
ATOM     24  C   UNL     1       3.671   2.610  18.573  0.00  0.00    +0.000 A 
ATOM     25  C   UNL     1       4.608   3.565  18.971  0.00  0.00    +0.000 A 
ATOM     26  C   UNL     1       4.363   4.923  18.757  0.00  0.00    +0.000 A 
ENDBRANCH   5  21
TORSDOF 5
ENDMDL
MODEL 2
REMARK VINA RESULT:      -6.8      3.545      8.474
REMARK  Name = 
REMARK  5 active torsions:
REMARK  status: ('A' for Active; 'I' for Inactive)
REMARK    1  A    between atoms: C_2  and  O_3
REMARK    2  A    between atoms: C_2  and  C_4
REMARK    3  A    between atoms: C_7  and  N_8
REMARK    4  A    between atoms: C_12  and  C_13
REMARK    5  A    between atoms: C_23  and  O_24
REMARK                            x       y       z     vdW  Elec       q    Type
REMARK                         _______ _______ _______ _____ _____    ______ ____
ROOT
ATOM      1  N   UNL     1       3.231   6.451  18.643  0.00  0.00    +0.000 N 
ATOM      2  C   UNL     1       2.756   7.754  18.528  0.00  0.00    +0.000 C 
ATOM      3  O   UNL     1       3.022   8.564  17.648  0.00  0.00    +0.000 OA
ATOM      4  C   UNL     1       1.840   8.066  19.657  0.00  0.00    +0.000 C 
ATOM      5  C   UNL     1       1.260   9.267  19.787  0.00  0.00    +0.000 C 
ATOM      6  S   UNL     1       1.706   6.719  20.711  0.00  0.00    +0.000 S 
ATOM      7  C   UNL     1       2.816   5.736  19.757  0.00  0.00    +0.000 C 
ATOM      8  S   UNL     1       3.302   4.228  20.294  0.00  0.00    +0.000 S 
ENDROOT
BRANCH   1  12
ATOM      9  C   UNL     1       5.906   5.034  15.671  0.00  0.00    +0.000 A 
ATOM     10  C   UNL     1       4.654   4.428  15.845  0.00  0.00    +0.000 A 
ATOM     11  C   UNL     1       3.776   4.879  16.835  0.00  0.00    +0.000 A 
ATOM     12  C   UNL     1       4.137   5.948  17.666  0.00  0.00    +0.000 A 
ATOM     13  C   UNL     1       5.391   6.554  17.496  0.00  0.00    +0.000 A 
ATOM     14  C   UNL     1       6.270   6.089  16.516  0.00  0.00    +0.000 A 
BRANCH   9  16
ATOM     15  O   UNL     1       7.798   5.080  14.229  0.00  0.00    +0.000 OA
ATOM     16  C   UNL     1       6.779   4.510  14.584  0.00  0.00    +0.000 C 
BRANCH  16  17
ATOM     17  O   UNL     1       6.390   3.322  14.076  0.00  0.00    +0.000 OA
ATOM     18  H   UNL     1       6.707   2.563  14.614  0.00  0.00    +0.000 HD
ENDBRANCH  16  17
ENDBRANCH   9  16
BRANCH  14  19
ATOM     19  O   UNL     1       7.495   6.686  16.372  0.00  0.00    +0.000 OA
ATOM     20  H   UNL     1       7.926   6.335  15.569  0.00  0.00    +0.000 HD
ENDBRANCH  14  19
ENDBRANCH   1  12
BRANCH   5  21
ATOM     21  C   UNL     1       0.450   9.683  20.934  0.00  0.00    +0.000 A 
ATOM     22  C   UNL     1      -0.412  10.777  20.795  0.00  0.00    +0.000 A 
ATOM     23  C   UNL     1      -1.168  11.220  21.879  0.00  0.00    +0.000 A 
ATOM     24  C   UNL     1      -1.068  10.572  23.110  0.00  0.00    +0.000 A 
ATOM     25  C   UNL     1      -0.214   9.477  23.252  0.00  0.00    +0.000 A 
ATOM     26  C   UNL     1       0.543   9.029  22.166  0.00  0.00    +0.000 A 
ENDBRANCH   5  21
TORSDOF 5
ENDMDL
MODEL 3
REMARK VINA RESULT:      -6.8      0.783      1.477
REMARK  Name = 
REMARK  5 active torsions:
REMARK  status: ('A' for Active; 'I' for Inactive)
REMARK    1  A    between atoms: C_2  and  O_3
REMARK    2  A    between atoms: C_2  and  C_4
REMARK    3  A    between atoms: C_7  and  N_8
REMARK    4  A    between atoms: C_12  and  C_13
REMARK    5  A    between atoms: C_23  and  O_24
REMARK                            x       y       z     vdW  Elec       q    Type
REMARK                         _______ _______ _______ _____ _____    ______ ____
ROOT
ATOM      1  N   UNL     1       1.176   9.864  19.560  0.00  0.00    +0.000 N 
ATOM      2  C   UNL     1       1.785   9.204  18.497  0.00  0.00    +0.000 C 
ATOM      3  O   UNL     1       2.050   9.667  17.393  0.00  0.00    +0.000 OA
ATOM      4  C   UNL     1       2.092   7.799  18.873  0.00  0.00    +0.000 C 
ATOM      5  C   UNL     1       2.667   6.945  18.015  0.00  0.00    +0.000 C 
ATOM      6  S   UNL     1       1.572   7.481  20.477  0.00  0.00    +0.000 S 
ATOM      7  C   UNL     1       0.942   9.112  20.703  0.00  0.00    +0.000 C 
ATOM      8  S   UNL     1       0.104   9.522  22.092  0.00  0.00    +0.000 S 
ENDROOT
BRANCH   1  12
ATOM      9  C   UNL     1      -0.005  13.922  19.210  0.00  0.00    +0.000 A 
ATOM     10  C   UNL     1      -0.851  12.898  18.766  0.00  0.00    +0.000 A 
ATOM     11  C   UNL     1      -0.459  11.559  18.862  0.00  0.00    +0.000 A 
ATOM     12  C   UNL     1       0.787  11.225  19.409  0.00  0.00    +0.000 A 
ATOM     13  C   UNL     1       1.637  12.250  19.851  0.00  0.00    +0.000 A 
ATOM     14  C   UNL     1       1.246  13.585  19.738  0.00  0.00    +0.000 A 
BRANCH   9  16
ATOM     15  O   UNL     1       0.106  16.182  18.472  0.00  0.00    +0.000 OA
ATOM     16  C   UNL     1      -0.499  15.323  19.092  0.00  0.00    +0.000 C 
BRANCH  16  17
ATOM     17  O   UNL     1      -1.702  15.543  19.664  0.00  0.00    +0.000 OA
ATOM     18  H   UNL     1      -2.437  15.509  19.013  0.00  0.00    +0.000 HD
ENDBRANCH  16  17
ENDBRANCH   9  16
BRANCH  14  19
ATOM     19  O   UNL     1       2.095  14.574  20.166  0.00  0.00    +0.000 OA
ATOM     20  H   UNL     1       1.673  15.056  20.902  0.00  0.00    +0.000 HD
ENDBRANCH  14  19
ENDBRANCH   1  12
BRANCH   5  21
ATOM     21  C   UNL     1       2.883   5.520  18.275  0.00  0.00    +0.000 A 
ATOM     22  C   UNL     1       1.905   4.603  17.876  0.00  0.00    +0.000 A 
ATOM     23  C   UNL     1       2.065   3.243  18.142  0.00  0.00    +0.000 A 
ATOM     24  C   UNL     1       3.203   2.793  18.810  0.00  0.00    +0.000 A 
ATOM     25  C   UNL     1       4.184   3.704  19.205  0.00  0.00    +0.000 A 
ATOM     26  C   UNL     1       4.028   5.066  18.937  0.00  0.00    +0.000 A 
ENDBRANCH   5  21
TORSDOF 5
ENDMDL
MODEL 4
REMARK VINA RESULT:      -6.7      4.065      4.813
REMARK  Name = 
REMARK  5 active torsions:
REMARK  status: ('A' for Active; 'I' for Inactive)
REMARK    1  A    between atoms: C_2  and  O_3
REMARK    2  A    between atoms: C_2  and  C_4
REMARK    3  A    between atoms: C_7  and  N_8
REMARK    4  A    between atoms: C_12  and  C_13
REMARK    5  A    between atoms: C_23  and  O_24
REMARK                            x       y       z     vdW  Elec       q    Type
REMARK                         _______ _______ _______ _____ _____    ______ ____
ROOT
ATOM      1  N   UNL     1      -0.926  11.299  21.751  0.00  0.00    +0.000 N 
ATOM      2  C   UNL     1      -0.116  10.285  22.254  0.00  0.00    +0.000 C 
ATOM      3  O   UNL     1       0.226  10.121  23.420  0.00  0.00    +0.000 OA
ATOM      4  C   UNL     1       0.308   9.376  21.157  0.00  0.00    +0.000 C 
ATOM      5  C   UNL     1       1.109   8.324  21.379  0.00  0.00    +0.000 C 
ATOM      6  S   UNL     1      -0.334   9.906  19.657  0.00  0.00    +0.000 S 
ATOM      7  C   UNL     1      -1.140  11.297  20.380  0.00  0.00    +0.000 C 
ATOM      8  S   UNL     1      -1.915  12.431  19.424  0.00  0.00    +0.000 S 
ENDROOT
BRANCH   1  12
ATOM      9  C   UNL     1      -2.514  14.282  24.314  0.00  0.00    +0.000 A 
ATOM     10  C   UNL     1      -1.287  14.483  23.668  0.00  0.00    +0.000 A 
ATOM     11  C   UNL     1      -0.750  13.496  22.836  0.00  0.00    +0.000 A 
ATOM     12  C   UNL     1      -1.436  12.291  22.636  0.00  0.00    +0.000 A 
ATOM     13  C   UNL     1      -2.663  12.086  23.285  0.00  0.00    +0.000 A 
ATOM     14  C   UNL     1      -3.187  13.070  24.126  0.00  0.00    +0.000 A 
BRANCH   9  16
ATOM     15  O   UNL     1      -2.313  16.025  25.922  0.00  0.00    +0.000 OA
ATOM     16  C   UNL     1      -3.030  15.387  25.169  0.00  0.00    +0.000 C 
BRANCH  16  17
ATOM     17  O   UNL     1      -4.338  15.669  24.990  0.00  0.00    +0.000 OA
ATOM     18  H   UNL     1      -4.891  14.859  24.937  0.00  0.00    +0.000 HD
ENDBRANCH  16  17
ENDBRANCH   9  16
BRANCH  14  19
ATOM     19  O   UNL     1      -4.381  12.847  24.760  0.00  0.00    +0.000 OA
ATOM     20  H   UNL     1      -4.451  11.898  24.979  0.00  0.00    +0.000 HD
ENDBRANCH  14  19
ENDBRANCH   1  12
BRANCH   5  21
ATOM     21  C   UNL     1       1.665   7.464  20.332  0.00  0.00    +0.000 A 
ATOM     22  C   UNL     1       1.687   6.079  20.533  0.00  0.00    +0.000 A 
ATOM     23  C   UNL     1       2.244   5.237  19.572  0.00  0.00    +0.000 A 
ATOM     24  C   UNL     1       2.781   5.773  18.402  0.00  0.00    +0.000 A 
ATOM     25  C   UNL     1       2.756   7.154  18.195  0.00  0.00    +0.000 A 
ATOM     26  C   UNL     1       2.198   8.000  19.155  0.00  0.00    +0.000 A 
ENDBRANCH   5  21
TORSDOF 5
ENDMDL
MODEL 5
REMARK VINA RESULT:      -6.6      3.901      4.784
REMARK  Name = 
REMARK  5 active torsions:
REMARK  status: ('A' for Active; 'I' for Inactive)
REMARK    1  A    between atoms: C_2  and  O_3
REMARK    2  A    between atoms: C_2  and  C_4
REMARK    3  A    between atoms: C_7  and  N_8
REMARK    4  A    between atoms: C_12  and  C_13
REMARK    5  A    between atoms: C_23  and  O_24
REMARK                            x       y       z     vdW  Elec       q    Type
REMARK                         _______ _______ _______ _____ _____    ______ ____
ROOT
ATOM      1  N   UNL     1      -0.874  11.279  21.592  0.00  0.00    +0.000 N 
ATOM      2  C   UNL     1      -0.092  10.260  22.129  0.00  0.00    +0.000 C 
ATOM      3  O   UNL     1       0.217  10.108  23.306  0.00  0.00    +0.000 OA
ATOM      4  C   UNL     1       0.348   9.330  21.056  0.00  0.00    +0.000 C 
ATOM      5  C   UNL     1       1.127   8.271  21.312  0.00  0.00    +0.000 C 
ATOM      6  S   UNL     1      -0.247   9.850  19.533  0.00  0.00    +0.000 S 
ATOM      7  C   UNL     1      -1.052  11.262  20.215  0.00  0.00    +0.000 C 
ATOM      8  S   UNL     1      -1.784  12.393  19.225  0.00  0.00    +0.000 S 
ENDROOT
BRANCH   1  12
ATOM      9  C   UNL     1      -2.357  14.257  24.222  0.00  0.00    +0.000 A 
ATOM     10  C   UNL     1      -3.126  13.122  23.932  0.00  0.00    +0.000 A 
ATOM     11  C   UNL     1      -2.649  12.145  23.051  0.00  0.00    +0.000 A 
ATOM     12  C   UNL     1      -1.392  12.290  22.449  0.00  0.00    +0.000 A 
ATOM     13  C   UNL     1      -0.623  13.428  22.736  0.00  0.00    +0.000 A 
ATOM     14  C   UNL     1      -1.110  14.406  23.604  0.00  0.00    +0.000 A 
BRANCH   9  16
ATOM     15  O   UNL     1      -2.238  15.821  26.012  0.00  0.00    +0.000 OA
ATOM     16  C   UNL     1      -2.923  15.244  25.184  0.00  0.00    +0.000 C 
BRANCH  16  17
ATOM     17  O   UNL     1      -4.238  15.499  25.016  0.00  0.00    +0.000 OA
ATOM     18  H   UNL     1      -4.469  15.671  24.076  0.00  0.00    +0.000 HD
ENDBRANCH  16  17
ENDBRANCH   9  16
BRANCH  14  19
ATOM     19  O   UNL     1      -0.349  15.516  23.864  0.00  0.00    +0.000 OA
ATOM     20  H   UNL     1      -0.742  16.000  24.616  0.00  0.00    +0.000 HD
ENDBRANCH  14  19
ENDBRANCH   1  12
BRANCH   5  21
ATOM     21  C   UNL     1       1.697   7.389  20.292  0.00  0.00    +0.000 A 
ATOM     22  C   UNL     1       1.712   6.008  20.521  0.00  0.00    +0.000 A 
ATOM     23  C   UNL     1       2.282   5.145  19.586  0.00  0.00    +0.000 A 
ATOM     24  C   UNL     1       2.840   5.657  18.416  0.00  0.00    +0.000 A 
ATOM     25  C   UNL     1       2.823   7.033  18.180  0.00  0.00    +0.000 A 
ATOM     26  C   UNL     1       2.251   7.900  19.114  0.00  0.00    +0.000 A 
ENDBRANCH   5  21
TORSDOF 5
ENDMDL
MODEL 6
REMARK VINA RESULT:      -6.6      0.839      1.847
REMARK  Name = 
REMARK  5 active torsions:
REMARK  status: ('A' for Active; 'I' for Inactive)
REMARK    1  A    between atoms: C_2  and  O_3
REMARK    2  A    between atoms: C_2  and  C_4
REMARK    3  A    between atoms: C_7  and  N_8
REMARK    4  A    between atoms: C_12  and  C_13
REMARK    5  A    between atoms: C_23  and  O_24
REMARK                            x       y       z     vdW  Elec       q    Type
REMARK                         _______ _______ _______ _____ _____    ______ ____
ROOT
ATOM      1  N   UNL     1       1.093   9.777  19.684  0.00  0.00    +0.000 N 
ATOM      2  C   UNL     1       1.713   9.214  18.573  0.00  0.00    +0.000 C 
ATOM      3  O   UNL     1       1.901   9.744  17.483  0.00  0.00    +0.000 OA
ATOM      4  C   UNL     1       2.143   7.823  18.875  0.00  0.00    +0.000 C 
ATOM      5  C   UNL     1       2.752   7.056  17.960  0.00  0.00    +0.000 C 
ATOM      6  S   UNL     1       1.708   7.397  20.479  0.00  0.00    +0.000 S 
ATOM      7  C   UNL     1       0.960   8.961  20.799  0.00  0.00    +0.000 C 
ATOM      8  S   UNL     1       0.144   9.243  22.231  0.00  0.00    +0.000 S 
ENDROOT
BRANCH   1  12
ATOM      9  C   UNL     1      -0.401  13.744  19.559  0.00  0.00    +0.000 A 
ATOM     10  C   UNL     1      -1.240  12.662  19.261  0.00  0.00    +0.000 A 
ATOM     11  C   UNL     1      -0.748  11.353  19.283  0.00  0.00    +0.000 A 
ATOM     12  C   UNL     1       0.593  11.108  19.608  0.00  0.00    +0.000 A 
ATOM     13  C   UNL     1       1.435  12.190  19.903  0.00  0.00    +0.000 A 
ATOM     14  C   UNL     1       0.942  13.496  19.865  0.00  0.00    +0.000 A 
BRANCH   9  16
ATOM     15  O   UNL     1      -1.764  15.506  20.399  0.00  0.00    +0.000 OA
ATOM     16  C   UNL     1      -1.002  15.107  19.534  0.00  0.00    +0.000 C 
BRANCH  16  17
ATOM     17  O   UNL     1      -0.578  15.887  18.517  0.00  0.00    +0.000 OA
ATOM     18  H   UNL     1      -1.196  16.630  18.333  0.00  0.00    +0.000 HD
ENDBRANCH  16  17
ENDBRANCH   9  16
BRANCH  14  19
ATOM     19  O   UNL     1       1.782  14.542  20.146  0.00  0.00    +0.000 OA
ATOM     20  H   UNL     1       1.311  15.380  19.975  0.00  0.00    +0.000 HD
ENDBRANCH  14  19
ENDBRANCH   1  12
BRANCH   5  21
ATOM     21  C   UNL     1       3.089   5.643  18.148  0.00  0.00    +0.000 A 
ATOM     22  C   UNL     1       4.349   5.309  18.656  0.00  0.00    +0.000 A 
ATOM     23  C   UNL     1       4.713   3.972  18.811  0.00  0.00    +0.000 A 
ATOM     24  C   UNL     1       3.821   2.961  18.459  0.00  0.00    +0.000 A 
ATOM     25  C   UNL     1       2.560   3.290  17.956  0.00  0.00    +0.000 A 
ATOM     26  C   UNL     1       2.192   4.628  17.802  0.00  0.00    +0.000 A 
ENDBRANCH   5  21
TORSDOF 5
ENDMDL
MODEL 7
REMARK VINA RESULT:      -6.4      3.591      8.448
REMARK  Name = 
REMARK  5 active torsions:
REMARK  status: ('A' for Active; 'I' for Inactive)
REMARK    1  A    between atoms: C_2  and  O_3
REMARK    2  A    between atoms: C_2  and  C_4
REMARK    3  A    between atoms: C_7  and  N_8
REMARK    4  A    between atoms: C_12  and  C_13
REMARK    5  A    between atoms: C_23  and  O_24
REMARK                            x       y       z     vdW  Elec       q    Type
REMARK                         _______ _______ _______ _____ _____    ______ ____
ROOT
ATOM      1  N   UNL     1       3.009   6.638  18.514  0.00  0.00    +0.000 N 
ATOM      2  C   UNL     1       2.492   7.923  18.384  0.00  0.00    +0.000 C 
ATOM      3  O   UNL     1       2.687   8.709  17.463  0.00  0.00    +0.000 OA
ATOM      4  C   UNL     1       1.631   8.251  19.551  0.00  0.00    +0.000 C 
ATOM      5  C   UNL     1       1.026   9.441  19.673  0.00  0.00    +0.000 C 
ATOM      6  S   UNL     1       1.592   6.938  20.654  0.00  0.00    +0.000 S 
ATOM      7  C   UNL     1       2.675   5.951  19.674  0.00  0.00    +0.000 C 
ATOM      8  S   UNL     1       3.231   4.476  20.232  0.00  0.00    +0.000 S 
ENDROOT
BRANCH   1  12
ATOM      9  C   UNL     1       5.659   5.103  15.580  0.00  0.00    +0.000 A 
ATOM     10  C   UNL     1       5.364   6.472  15.622  0.00  0.00    +0.000 A 
ATOM     11  C   UNL     1       4.477   6.981  16.575  0.00  0.00    +0.000 A 
ATOM     12  C   UNL     1       3.873   6.125  17.506  0.00  0.00    +0.000 A 
ATOM     13  C   UNL     1       4.164   4.753  17.464  0.00  0.00    +0.000 A 
ATOM     14  C   UNL     1       5.039   4.249  16.500  0.00  0.00    +0.000 A 
BRANCH   9  16
ATOM     15  O   UNL     1       7.670   5.227  14.314  0.00  0.00    +0.000 OA
ATOM     16  C   UNL     1       6.627   4.638  14.548  0.00  0.00    +0.000 C 
BRANCH  16  17
ATOM     17  O   UNL     1       6.291   3.477  13.947  0.00  0.00    +0.000 OA
ATOM     18  H   UNL     1       7.070   3.015  13.564  0.00  0.00    +0.000 HD
ENDBRANCH  16  17
ENDBRANCH   9  16
BRANCH  14  19
ATOM     19  O   UNL     1       5.302   2.904  16.467  0.00  0.00    +0.000 OA
ATOM     20  H   UNL     1       4.561   2.448  16.024  0.00  0.00    +0.000 HD
ENDBRANCH  14  19
ENDBRANCH   1  12
BRANCH   5  21
ATOM     21  C   UNL     1       0.268   9.874  20.849  0.00  0.00    +0.000 A 
ATOM     22  C   UNL     1      -0.543  11.010  20.751  0.00  0.00    +0.000 A 
ATOM     23  C   UNL     1      -1.247  11.470  21.863  0.00  0.00    +0.000 A 
ATOM     24  C   UNL     1      -1.144  10.797  23.080  0.00  0.00    +0.000 A 
ATOM     25  C   UNL     1      -0.340   9.660  23.181  0.00  0.00    +0.000 A 
ATOM     26  C   UNL     1       0.364   9.196  22.068  0.00  0.00    +0.000 A 
ENDBRANCH   5  21
TORSDOF 5
ENDMDL
MODEL 8
REMARK VINA RESULT:      -6.3      3.647      8.602
REMARK  Name = 
REMARK  5 active torsions:
REMARK  status: ('A' for Active; 'I' for Inactive)
REMARK    1  A    between atoms: C_2  and  O_3
REMARK    2  A    between atoms: C_2  and  C_4
REMARK    3  A    between atoms: C_7  and  N_8
REMARK    4  A    between atoms: C_12  and  C_13
REMARK    5  A    between atoms: C_23  and  O_24
REMARK                            x       y       z     vdW  Elec       q    Type
REMARK                         _______ _______ _______ _____ _____    ______ ____
ROOT
ATOM      1  N   UNL     1       0.089  10.224  19.872  0.00  0.00    +0.000 N 
ATOM      2  C   UNL     1       0.262  10.686  21.174  0.00  0.00    +0.000 C 
ATOM      3  O   UNL     1       1.155  10.378  21.956  0.00  0.00    +0.000 OA
ATOM      4  C   UNL     1      -0.819  11.645  21.526  0.00  0.00    +0.000 C 
ATOM      5  C   UNL     1      -0.888  12.222  22.733  0.00  0.00    +0.000 C 
ATOM      6  S   UNL     1      -1.906  11.830  20.211  0.00  0.00    +0.000 S 
ATOM      7  C   UNL     1      -1.029  10.689  19.194  0.00  0.00    +0.000 C 
ATOM      8  S   UNL     1      -1.629  10.236  17.700  0.00  0.00    +0.000 S 
ENDROOT
BRANCH   1  12
ATOM      9  C   UNL     1       2.913   7.458  18.335  0.00  0.00    +0.000 A 
ATOM     10  C   UNL     1       2.542   8.582  17.585  0.00  0.00    +0.000 A 
ATOM     11  C   UNL     1       1.598   9.488  18.079  0.00  0.00    +0.000 A 
ATOM     12  C   UNL     1       1.013   9.283  19.336  0.00  0.00    +0.000 A 
ATOM     13  C   UNL     1       1.380   8.156  20.087  0.00  0.00    +0.000 A 
ATOM     14  C   UNL     1       2.312   7.248  19.581  0.00  0.00    +0.000 A 
BRANCH   9  16
ATOM     15  O   UNL     1       5.030   6.946  17.375  0.00  0.00    +0.000 OA
ATOM     16  C   UNL     1       3.939   6.549  17.751  0.00  0.00    +0.000 C 
BRANCH  16  17
ATOM     17  O   UNL     1       3.590   5.245  17.738  0.00  0.00    +0.000 OA
ATOM     18  H   UNL     1       3.952   4.770  16.958  0.00  0.00    +0.000 HD
ENDBRANCH  16  17
ENDBRANCH   9  16
BRANCH  14  19
ATOM     19  O   UNL     1       2.651   6.147  20.324  0.00  0.00    +0.000 OA
ATOM     20  H   UNL     1       3.384   5.679  19.880  0.00  0.00    +0.000 HD
ENDBRANCH  14  19
ENDBRANCH   1  12
BRANCH   5  21
ATOM     21  C   UNL     1      -1.988  13.075  23.188  0.00  0.00    +0.000 A 
ATOM     22  C   UNL     1      -3.163  12.475  23.656  0.00  0.00    +0.000 A 
ATOM     23  C   UNL     1      -4.241  13.260  24.060  0.00  0.00    +0.000 A 
ATOM     24  C   UNL     1      -4.154  14.650  23.999  0.00  0.00    +0.000 A 
ATOM     25  C   UNL     1      -2.982  15.253  23.537  0.00  0.00    +0.000 A 
ATOM     26  C   UNL     1      -1.899  14.469  23.134  0.00  0.00    +0.000 A 
ENDBRANCH   5  21
TORSDOF 5
ENDMDL
MODEL 9
REMARK VINA RESULT:      -6.3      1.311      1.805
REMARK  Name = 
REMARK  5 active torsions:
REMARK  status: ('A' for Active; 'I' for Inactive)
REMARK    1  A    between atoms: C_2  and  O_3
REMARK    2  A    between atoms: C_2  and  C_4
REMARK    3  A    between atoms: C_7  and  N_8
REMARK    4  A    between atoms: C_12  and  C_13
REMARK    5  A    between atoms: C_23  and  O_24
REMARK                            x       y       z     vdW  Elec       q    Type
REMARK                         _______ _______ _______ _____ _____    ______ ____
ROOT
ATOM      1  N   UNL     1       0.685  10.244  20.317  0.00  0.00    +0.000 N 
ATOM      2  C   UNL     1       1.222   9.859  19.092  0.00  0.00    +0.000 C 
ATOM      3  O   UNL     1       1.273  10.526  18.064  0.00  0.00    +0.000 OA
ATOM      4  C   UNL     1       1.752   8.473  19.177  0.00  0.00    +0.000 C 
ATOM      5  C   UNL     1       2.309   7.861  18.122  0.00  0.00    +0.000 C 
ATOM      6  S   UNL     1       1.501   7.831  20.748  0.00  0.00    +0.000 S 
ATOM      7  C   UNL     1       0.706   9.293  21.328  0.00  0.00    +0.000 C 
ATOM      8  S   UNL     1       0.021   9.348  22.853  0.00  0.00    +0.000 S 
ENDROOT
BRANCH   1  12
ATOM      9  C   UNL     1      -1.019  14.116  20.622  0.00  0.00    +0.000 A 
ATOM     10  C   UNL     1       0.305  13.891  21.021  0.00  0.00    +0.000 A 
ATOM     11  C   UNL     1       0.867  12.613  20.940  0.00  0.00    +0.000 A 
ATOM     12  C   UNL     1       0.110  11.539  20.454  0.00  0.00    +0.000 A 
ATOM     13  C   UNL     1      -1.217  11.760  20.056  0.00  0.00    +0.000 A 
ATOM     14  C   UNL     1      -1.777  13.036  20.154  0.00  0.00    +0.000 A 
BRANCH   9  16
ATOM     15  O   UNL     1      -1.470  16.165  21.745  0.00  0.00    +0.000 OA
ATOM     16  C   UNL     1      -1.541  15.507  20.720  0.00  0.00    +0.000 C 
BRANCH  16  17
ATOM     17  O   UNL     1      -2.032  16.004  19.565  0.00  0.00    +0.000 OA
ATOM     18  H   UNL     1      -1.421  15.865  18.808  0.00  0.00    +0.000 HD
ENDBRANCH  16  17
ENDBRANCH   9  16
BRANCH  14  19
ATOM     19  O   UNL     1      -3.079  13.232  19.771  0.00  0.00    +0.000 OA
ATOM     20  H   UNL     1      -3.664  12.749  20.386  0.00  0.00    +0.000 HD
ENDBRANCH  14  19
ENDBRANCH   1  12
BRANCH   5  21
ATOM     21  C   UNL     1       2.737   6.461  18.100  0.00  0.00    +0.000 A 
ATOM     22  C   UNL     1       4.104   6.170  18.172  0.00  0.00    +0.000 A 
ATOM     23  C   UNL     1       4.546   4.848  18.116  0.00  0.00    +0.000 A 
ATOM     24  C   UNL     1       3.624   3.810  17.987  0.00  0.00    +0.000 A 
ATOM     25  C   UNL     1       2.259   4.096  17.920  0.00  0.00    +0.000 A 
ATOM     26  C   UNL     1       1.814   5.419  17.978  0.00  0.00    +0.000 A 
ENDBRANCH   5  21
TORSDOF 5
ENDMDL
