MODEL 1
REMARK VINA RESULT:      -8.0      0.000      0.000
REMARK  Name = 
REMARK  11 active torsions:
REMARK  status: ('A' for Active; 'I' for Inactive)
REMARK    1  A    between atoms: C_1  and  C_2
REMARK    2  A    between atoms: C_6  and  C_7
REMARK    3  A    between atoms: C_10  and  N_11
REMARK    4  A    between atoms: C_12  and  C_14
REMARK    5  A    between atoms: C_14  and  C_15
REMARK    6  A    between atoms: C_15  and  C_16
REMARK    7  A    between atoms: C_16  and  C_17
REMARK    8  A    between atoms: C_17  and  C_18
REMARK    9  A    between atoms: C_18  and  C_19
REMARK   10  A    between atoms: C_19  and  C_20
REMARK   11  A    between atoms: N_22  and  O_23
REMARK                            x       y       z     vdW  Elec       q    Type
REMARK                         _______ _______ _______ _____ _____    ______ ____
ROOT
ATOM      1  N   UNL     1       3.442   3.728  18.614  0.00  0.00    +0.000 N 
ATOM      2  C   UNL     1       2.280   3.251  18.032  0.00  0.00    +0.000 C 
ATOM      3  O   UNL     1       1.943   3.473  16.870  0.00  0.00    +0.000 OA
ATOM      4  H   UNL     1       3.635   3.486  19.576  0.00  0.00    +0.000 HD
ENDROOT
BRANCH   1  14
ATOM      5  C   UNL     1       6.272   3.882  14.513  0.00  0.00    +0.000 C 
ATOM      6  C   UNL     1       5.876   4.639  15.785  0.00  0.00    +0.000 C 
ATOM      7  C   UNL     1       5.201   5.981  15.424  0.00  0.00    +0.000 C 
ATOM      8  C   UNL     1       4.809   6.749  16.695  0.00  0.00    +0.000 C 
ATOM      9  C   UNL     1       6.055   7.009  17.548  0.00  0.00    +0.000 C 
ATOM     10  C   UNL     1       6.719   5.671  17.947  0.00  0.00    +0.000 C 
ATOM     11  C   UNL     1       7.969   5.946  18.790  0.00  0.00    +0.000 C 
ATOM     12  C   UNL     1       7.117   4.918  16.657  0.00  0.00    +0.000 C 
ATOM     13  C   UNL     1       5.689   4.813  18.735  0.00  0.00    +0.000 C 
ATOM     14  C   UNL     1       4.419   4.538  17.875  0.00  0.00    +0.000 C 
ATOM     15  C   UNL     1       3.811   5.914  17.503  0.00  0.00    +0.000 C 
ATOM     16  C   UNL     1       4.885   3.791  16.602  0.00  0.00    +0.000 C 
ENDBRANCH   1  14
BRANCH   2  17
ATOM     17  C   UNL     1       1.377   2.468  18.947  0.00  0.00    +0.000 C 
BRANCH  17  18
ATOM     18  C   UNL     1       1.406   3.090  20.338  0.00  0.00    +0.000 C 
BRANCH  18  19
ATOM     19  C   UNL     1       0.722   4.453  20.357  0.00  0.00    +0.000 C 
BRANCH  19  20
ATOM     20  C   UNL     1       1.633   5.515  20.977  0.00  0.00    +0.000 C 
BRANCH  20  21
ATOM     21  C   UNL     1       1.844   6.675  20.007  0.00  0.00    +0.000 C 
BRANCH  21  22
ATOM     22  C   UNL     1       1.516   8.024  20.641  0.00  0.00    +0.000 C 
BRANCH  22  23
ATOM     23  C   UNL     1       1.313   9.088  19.583  0.00  0.00    +0.000 C 
ATOM     24  O   UNL     1       0.591  10.074  19.714  0.00  0.00    +0.000 OA
ATOM     25  N   UNL     1       2.019   8.864  18.427  0.00  0.00    +0.000 N 
ATOM     26  H   UNL     1       2.646   8.088  18.255  0.00  0.00    +0.000 HD
BRANCH  25  27
ATOM     27  O   UNL     1       1.877   9.831  17.408  0.00  0.00    +0.000 OA
ATOM     28  H   UNL     1       2.731   9.751  16.927  0.00  0.00    +0.000 HD
ENDBRANCH  25  27
ENDBRANCH  22  23
ENDBRANCH  21  22
ENDBRANCH  20  21
ENDBRANCH  19  20
ENDBRANCH  18  19
ENDBRANCH  17  18
ENDBRANCH   2  17
TORSDOF 9
ENDMDL
MODEL 2
REMARK VINA RESULT:      -7.9      4.507      6.973
REMARK  Name = 
REMARK  11 active torsions:
REMARK  status: ('A' for Active; 'I' for Inactive)
REMARK    1  A    between atoms: C_1  and  C_2
REMARK    2  A    between atoms: C_6  and  C_7
REMARK    3  A    between atoms: C_10  and  N_11
REMARK    4  A    between atoms: C_12  and  C_14
REMARK    5  A    between atoms: C_14  and  C_15
REMARK    6  A    between atoms: C_15  and  C_16
REMARK    7  A    between atoms: C_16  and  C_17
REMARK    8  A    between atoms: C_17  and  C_18
REMARK    9  A    between atoms: C_18  and  C_19
REMARK   10  A    between atoms: C_19  and  C_20
REMARK   11  A    between atoms: N_22  and  O_23
REMARK                            x       y       z     vdW  Elec       q    Type
REMARK                         _______ _______ _______ _____ _____    ______ ____
ROOT
ATOM      1  N   UNL     1       4.805   5.864  17.852  0.00  0.00    +0.000 N 
ATOM      2  C   UNL     1       5.969   5.741  17.113  0.00  0.00    +0.000 C 
ATOM      3  O   UNL     1       6.476   4.669  16.789  0.00  0.00    +0.000 OA
ATOM      4  H   UNL     1       4.462   6.790  18.064  0.00  0.00    +0.000 HD
ENDROOT
BRANCH   1  14
ATOM      5  C   UNL     1       0.780   4.451  20.433  0.00  0.00    +0.000 C 
ATOM      6  C   UNL     1       1.978   3.953  19.618  0.00  0.00    +0.000 C 
ATOM      7  C   UNL     1       1.497   3.191  18.363  0.00  0.00    +0.000 C 
ATOM      8  C   UNL     1       2.694   2.681  17.546  0.00  0.00    +0.000 C 
ATOM      9  C   UNL     1       3.557   1.758  18.413  0.00  0.00    +0.000 C 
ATOM     10  C   UNL     1       4.075   2.520  19.654  0.00  0.00    +0.000 C 
ATOM     11  C   UNL     1       4.927   1.582  20.517  0.00  0.00    +0.000 C 
ATOM     12  C   UNL     1       2.858   3.015  20.469  0.00  0.00    +0.000 C 
ATOM     13  C   UNL     1       4.900   3.751  19.181  0.00  0.00    +0.000 C 
ATOM     14  C   UNL     1       4.030   4.699  18.303  0.00  0.00    +0.000 C 
ATOM     15  C   UNL     1       3.537   3.875  17.087  0.00  0.00    +0.000 C 
ATOM     16  C   UNL     1       2.832   5.153  19.171  0.00  0.00    +0.000 C 
ENDBRANCH   1  14
BRANCH   2  17
ATOM     17  C   UNL     1       6.650   7.038  16.767  0.00  0.00    +0.000 C 
BRANCH  17  18
ATOM     18  C   UNL     1       7.609   7.420  17.889  0.00  0.00    +0.000 C 
BRANCH  18  19
ATOM     19  C   UNL     1       8.049   8.876  17.778  0.00  0.00    +0.000 C 
BRANCH  19  20
ATOM     20  C   UNL     1       8.949   9.267  18.951  0.00  0.00    +0.000 C 
BRANCH  20  21
ATOM     21  C   UNL     1       9.173  10.777  18.976  0.00  0.00    +0.000 C 
BRANCH  21  22
ATOM     22  C   UNL     1      10.644  11.145  18.802  0.00  0.00    +0.000 C 
BRANCH  22  23
ATOM     23  C   UNL     1      10.829  12.129  17.667  0.00  0.00    +0.000 C 
ATOM     24  O   UNL     1       9.943  12.858  17.224  0.00  0.00    +0.000 OA
ATOM     25  N   UNL     1      12.100  12.151  17.151  0.00  0.00    +0.000 N 
ATOM     26  H   UNL     1      12.883  11.597  17.476  0.00  0.00    +0.000 HD
BRANCH  25  27
ATOM     27  O   UNL     1      12.333  13.059  16.096  0.00  0.00    +0.000 OA
ATOM     28  H   UNL     1      13.037  12.603  15.582  0.00  0.00    +0.000 HD
ENDBRANCH  25  27
ENDBRANCH  22  23
ENDBRANCH  21  22
ENDBRANCH  20  21
ENDBRANCH  19  20
ENDBRANCH  18  19
ENDBRANCH  17  18
ENDBRANCH   2  17
TORSDOF 9
ENDMDL
MODEL 3
REMARK VINA RESULT:      -7.9      1.357      1.591
REMARK  Name = 
REMARK  11 active torsions:
REMARK  status: ('A' for Active; 'I' for Inactive)
REMARK    1  A    between atoms: C_1  and  C_2
REMARK    2  A    between atoms: C_6  and  C_7
REMARK    3  A    between atoms: C_10  and  N_11
REMARK    4  A    between atoms: C_12  and  C_14
REMARK    5  A    between atoms: C_14  and  C_15
REMARK    6  A    between atoms: C_15  and  C_16
REMARK    7  A    between atoms: C_16  and  C_17
REMARK    8  A    between atoms: C_17  and  C_18
REMARK    9  A    between atoms: C_18  and  C_19
REMARK   10  A    between atoms: C_19  and  C_20
REMARK   11  A    between atoms: N_22  and  O_23
REMARK                            x       y       z     vdW  Elec       q    Type
REMARK                         _______ _______ _______ _____ _____    ______ ____
ROOT
ATOM      1  N   UNL     1       3.692   3.367  18.410  0.00  0.00    +0.000 N 
ATOM      2  C   UNL     1       2.388   3.148  18.003  0.00  0.00    +0.000 C 
ATOM      3  O   UNL     1       1.843   3.733  17.069  0.00  0.00    +0.000 OA
ATOM      4  H   UNL     1       4.053   2.831  19.186  0.00  0.00    +0.000 HD
ENDROOT
BRANCH   1  14
ATOM      5  C   UNL     1       6.555   4.043  14.384  0.00  0.00    +0.000 C 
ATOM      6  C   UNL     1       6.051   4.687  15.679  0.00  0.00    +0.000 C 
ATOM      7  C   UNL     1       5.229   5.957  15.364  0.00  0.00    +0.000 C 
ATOM      8  C   UNL     1       4.728   6.614  16.659  0.00  0.00    +0.000 C 
ATOM      9  C   UNL     1       5.920   6.976  17.551  0.00  0.00    +0.000 C 
ATOM     10  C   UNL     1       6.729   5.708  17.904  0.00  0.00    +0.000 C 
ATOM     11  C   UNL     1       7.924   6.087  18.787  0.00  0.00    +0.000 C 
ATOM     12  C   UNL     1       7.235   5.068  16.590  0.00  0.00    +0.000 C 
ATOM     13  C   UNL     1       5.794   4.699  18.630  0.00  0.00    +0.000 C 
ATOM     14  C   UNL     1       4.581   4.319  17.729  0.00  0.00    +0.000 C 
ATOM     15  C   UNL     1       3.821   5.631  17.406  0.00  0.00    +0.000 C 
ATOM     16  C   UNL     1       5.152   3.692  16.435  0.00  0.00    +0.000 C 
ENDBRANCH   1  14
BRANCH   2  17
ATOM     17  C   UNL     1       1.611   2.163  18.837  0.00  0.00    +0.000 C 
BRANCH  17  18
ATOM     18  C   UNL     1       1.648   2.600  20.297  0.00  0.00    +0.000 C 
BRANCH  18  19
ATOM     19  C   UNL     1       0.847   3.879  20.519  0.00  0.00    +0.000 C 
BRANCH  19  20
ATOM     20  C   UNL     1       1.775   5.068  20.775  0.00  0.00    +0.000 C 
BRANCH  20  21
ATOM     21  C   UNL     1       1.314   6.289  19.982  0.00  0.00    +0.000 C 
BRANCH  21  22
ATOM     22  C   UNL     1       2.018   7.567  20.430  0.00  0.00    +0.000 C 
BRANCH  22  23
ATOM     23  C   UNL     1       1.124   8.395  21.329  0.00  0.00    +0.000 C 
ATOM     24  O   UNL     1      -0.060   8.638  21.102  0.00  0.00    +0.000 OA
ATOM     25  N   UNL     1       1.752   8.869  22.453  0.00  0.00    +0.000 N 
ATOM     26  H   UNL     1       2.714   8.693  22.715  0.00  0.00    +0.000 HD
BRANCH  25  27
ATOM     27  O   UNL     1       0.963   9.639  23.335  0.00  0.00    +0.000 OA
ATOM     28  H   UNL     1       1.199   9.258  24.210  0.00  0.00    +0.000 HD
ENDBRANCH  25  27
ENDBRANCH  22  23
ENDBRANCH  21  22
ENDBRANCH  20  21
ENDBRANCH  19  20
ENDBRANCH  18  19
ENDBRANCH  17  18
ENDBRANCH   2  17
TORSDOF 9
ENDMDL
MODEL 4
REMARK VINA RESULT:      -7.8      1.236      1.686
REMARK  Name = 
REMARK  11 active torsions:
REMARK  status: ('A' for Active; 'I' for Inactive)
REMARK    1  A    between atoms: C_1  and  C_2
REMARK    2  A    between atoms: C_6  and  C_7
REMARK    3  A    between atoms: C_10  and  N_11
REMARK    4  A    between atoms: C_12  and  C_14
REMARK    5  A    between atoms: C_14  and  C_15
REMARK    6  A    between atoms: C_15  and  C_16
REMARK    7  A    between atoms: C_16  and  C_17
REMARK    8  A    between atoms: C_17  and  C_18
REMARK    9  A    between atoms: C_18  and  C_19
REMARK   10  A    between atoms: C_19  and  C_20
REMARK   11  A    between atoms: N_22  and  O_23
REMARK                            x       y       z     vdW  Elec       q    Type
REMARK                         _______ _______ _______ _____ _____    ______ ____
ROOT
ATOM      1  N   UNL     1       4.334   3.090  18.065  0.00  0.00    +0.000 N 
ATOM      2  C   UNL     1       3.054   2.699  17.712  0.00  0.00    +0.000 C 
ATOM      3  O   UNL     1       2.354   3.279  16.885  0.00  0.00    +0.000 OA
ATOM      4  H   UNL     1       4.834   2.545  18.752  0.00  0.00    +0.000 HD
ENDROOT
BRANCH   1  14
ATOM      5  C   UNL     1       6.885   4.606  14.058  0.00  0.00    +0.000 C 
ATOM      6  C   UNL     1       6.310   5.041  15.410  0.00  0.00    +0.000 C 
ATOM      7  C   UNL     1       5.254   6.152  15.214  0.00  0.00    +0.000 C 
ATOM      8  C   UNL     1       4.680   6.599  16.567  0.00  0.00    +0.000 C 
ATOM      9  C   UNL     1       5.811   7.113  17.464  0.00  0.00    +0.000 C 
ATOM     10  C   UNL     1       6.856   6.000  17.698  0.00  0.00    +0.000 C 
ATOM     11  C   UNL     1       7.986   6.531  18.588  0.00  0.00    +0.000 C 
ATOM     12  C   UNL     1       7.431   5.571  16.328  0.00  0.00    +0.000 C 
ATOM     13  C   UNL     1       6.152   4.778  18.356  0.00  0.00    +0.000 C 
ATOM     14  C   UNL     1       5.004   4.244  17.449  0.00  0.00    +0.000 C 
ATOM     15  C   UNL     1       4.000   5.407  17.246  0.00  0.00    +0.000 C 
ATOM     16  C   UNL     1       5.641   3.838  16.098  0.00  0.00    +0.000 C 
ENDBRANCH   1  14
BRANCH   2  17
ATOM     17  C   UNL     1       2.512   1.517  18.470  0.00  0.00    +0.000 C 
BRANCH  17  18
ATOM     18  C   UNL     1       1.610   2.010  19.595  0.00  0.00    +0.000 C 
BRANCH  18  19
ATOM     19  C   UNL     1       2.423   2.560  20.764  0.00  0.00    +0.000 C 
BRANCH  19  20
ATOM     20  C   UNL     1       1.676   3.698  21.462  0.00  0.00    +0.000 C 
BRANCH  20  21
ATOM     21  C   UNL     1       1.315   4.796  20.464  0.00  0.00    +0.000 C 
BRANCH  21  22
ATOM     22  C   UNL     1       2.516   5.669  20.108  0.00  0.00    +0.000 C 
BRANCH  22  23
ATOM     23  C   UNL     1       2.126   7.130  20.045  0.00  0.00    +0.000 C 
ATOM     24  O   UNL     1       2.198   7.829  19.036  0.00  0.00    +0.000 OA
ATOM     25  N   UNL     1       1.672   7.636  21.237  0.00  0.00    +0.000 N 
ATOM     26  H   UNL     1       1.568   7.119  22.101  0.00  0.00    +0.000 HD
BRANCH  25  27
ATOM     27  O   UNL     1       1.284   8.994  21.235  0.00  0.00    +0.000 OA
ATOM     28  H   UNL     1       0.472   8.976  20.680  0.00  0.00    +0.000 HD
ENDBRANCH  25  27
ENDBRANCH  22  23
ENDBRANCH  21  22
ENDBRANCH  20  21
ENDBRANCH  19  20
ENDBRANCH  18  19
ENDBRANCH  17  18
ENDBRANCH   2  17
TORSDOF 9
ENDMDL
MODEL 5
REMARK VINA RESULT:      -7.7      3.112      7.060
REMARK  Name = 
REMARK  11 active torsions:
REMARK  status: ('A' for Active; 'I' for Inactive)
REMARK    1  A    between atoms: C_1  and  C_2
REMARK    2  A    between atoms: C_6  and  C_7
REMARK    3  A    between atoms: C_10  and  N_11
REMARK    4  A    between atoms: C_12  and  C_14
REMARK    5  A    between atoms: C_14  and  C_15
REMARK    6  A    between atoms: C_15  and  C_16
REMARK    7  A    between atoms: C_16  and  C_17
REMARK    8  A    between atoms: C_17  and  C_18
REMARK    9  A    between atoms: C_18  and  C_19
REMARK   10  A    between atoms: C_19  and  C_20
REMARK   11  A    between atoms: N_22  and  O_23
REMARK                            x       y       z     vdW  Elec       q    Type
REMARK                         _______ _______ _______ _____ _____    ______ ____
ROOT
ATOM      1  N   UNL     1       5.355   4.057  18.185  0.00  0.00    +0.000 N 
ATOM      2  C   UNL     1       6.409   4.768  18.732  0.00  0.00    +0.000 C 
ATOM      3  O   UNL     1       6.295   5.592  19.637  0.00  0.00    +0.000 OA
ATOM      4  H   UNL     1       5.550   3.396  17.446  0.00  0.00    +0.000 HD
ENDROOT
BRANCH   1  14
ATOM      5  C   UNL     1       2.051   7.286  20.059  0.00  0.00    +0.000 C 
ATOM      6  C   UNL     1       2.268   5.833  19.625  0.00  0.00    +0.000 C 
ATOM      7  C   UNL     1       1.322   5.473  18.457  0.00  0.00    +0.000 C 
ATOM      8  C   UNL     1       1.528   4.014  18.023  0.00  0.00    +0.000 C 
ATOM      9  C   UNL     1       1.266   3.079  19.208  0.00  0.00    +0.000 C 
ATOM     10  C   UNL     1       2.231   3.405  20.370  0.00  0.00    +0.000 C 
ATOM     11  C   UNL     1       1.951   2.470  21.551  0.00  0.00    +0.000 C 
ATOM     12  C   UNL     1       2.002   4.872  20.802  0.00  0.00    +0.000 C 
ATOM     13  C   UNL     1       3.695   3.249  19.867  0.00  0.00    +0.000 C 
ATOM     14  C   UNL     1       3.974   4.200  18.665  0.00  0.00    +0.000 C 
ATOM     15  C   UNL     1       2.971   3.829  17.544  0.00  0.00    +0.000 C 
ATOM     16  C   UNL     1       3.723   5.645  19.159  0.00  0.00    +0.000 C 
ENDBRANCH   1  14
BRANCH   2  17
ATOM     17  C   UNL     1       7.750   4.523  18.094  0.00  0.00    +0.000 C 
BRANCH  17  18
ATOM     18  C   UNL     1       7.622   4.662  16.582  0.00  0.00    +0.000 C 
BRANCH  18  19
ATOM     19  C   UNL     1       6.737   5.844  16.200  0.00  0.00    +0.000 C 
BRANCH  19  20
ATOM     20  C   UNL     1       5.763   5.462  15.084  0.00  0.00    +0.000 C 
BRANCH  20  21
ATOM     21  C   UNL     1       6.115   4.091  14.510  0.00  0.00    +0.000 C 
BRANCH  21  22
ATOM     22  C   UNL     1       5.341   3.786  13.231  0.00  0.00    +0.000 C 
BRANCH  22  23
ATOM     23  C   UNL     1       6.237   3.145  12.192  0.00  0.00    +0.000 C 
ATOM     24  O   UNL     1       7.167   3.716  11.625  0.00  0.00    +0.000 OA
ATOM     25  N   UNL     1       5.926   1.837  11.921  0.00  0.00    +0.000 N 
ATOM     26  H   UNL     1       5.190   1.297  12.361  0.00  0.00    +0.000 HD
BRANCH  25  27
ATOM     27  O   UNL     1       6.736   1.184  10.967  0.00  0.00    +0.000 OA
ATOM     28  H   UNL     1       7.175   1.940  10.516  0.00  0.00    +0.000 HD
ENDBRANCH  25  27
ENDBRANCH  22  23
ENDBRANCH  21  22
ENDBRANCH  20  21
ENDBRANCH  19  20
ENDBRANCH  18  19
ENDBRANCH  17  18
ENDBRANCH   2  17
TORSDOF 9
ENDMDL
MODEL 6
REMARK VINA RESULT:      -7.5      2.933      6.984
REMARK  Name = 
REMARK  11 active torsions:
REMARK  status: ('A' for Active; 'I' for Inactive)
REMARK    1  A    between atoms: C_1  and  C_2
REMARK    2  A    between atoms: C_6  and  C_7
REMARK    3  A    between atoms: C_10  and  N_11
REMARK    4  A    between atoms: C_12  and  C_14
REMARK    5  A    between atoms: C_14  and  C_15
REMARK    6  A    between atoms: C_15  and  C_16
REMARK    7  A    between atoms: C_16  and  C_17
REMARK    8  A    between atoms: C_17  and  C_18
REMARK    9  A    between atoms: C_18  and  C_19
REMARK   10  A    between atoms: C_19  and  C_20
REMARK   11  A    between atoms: N_22  and  O_23
REMARK                            x       y       z     vdW  Elec       q    Type
REMARK                         _______ _______ _______ _____ _____    ______ ____
ROOT
ATOM      1  N   UNL     1       5.304   4.340  17.911  0.00  0.00    +0.000 N 
ATOM      2  C   UNL     1       6.447   4.747  18.578  0.00  0.00    +0.000 C 
ATOM      3  O   UNL     1       6.460   5.207  19.718  0.00  0.00    +0.000 OA
ATOM      4  H   UNL     1       5.396   3.969  16.977  0.00  0.00    +0.000 HD
ENDROOT
BRANCH   1  14
ATOM      5  C   UNL     1       1.991   7.348  20.109  0.00  0.00    +0.000 C 
ATOM      6  C   UNL     1       2.262   5.910  19.654  0.00  0.00    +0.000 C 
ATOM      7  C   UNL     1       1.231   5.479  18.588  0.00  0.00    +0.000 C 
ATOM      8  C   UNL     1       1.492   4.034  18.135  0.00  0.00    +0.000 C 
ATOM      9  C   UNL     1       1.415   3.092  19.341  0.00  0.00    +0.000 C 
ATOM     10  C   UNL     1       2.468   3.491  20.399  0.00  0.00    +0.000 C 
ATOM     11  C   UNL     1       2.372   2.547  21.603  0.00  0.00    +0.000 C 
ATOM     12  C   UNL     1       2.182   4.941  20.852  0.00  0.00    +0.000 C 
ATOM     13  C   UNL     1       3.881   3.432  19.752  0.00  0.00    +0.000 C 
ATOM     14  C   UNL     1       3.972   4.392  18.528  0.00  0.00    +0.000 C 
ATOM     15  C   UNL     1       2.889   3.944  17.513  0.00  0.00    +0.000 C 
ATOM     16  C   UNL     1       3.673   5.819  19.045  0.00  0.00    +0.000 C 
ENDBRANCH   1  14
BRANCH   2  17
ATOM     17  C   UNL     1       7.722   4.658  17.782  0.00  0.00    +0.000 C 
BRANCH  17  18
ATOM     18  C   UNL     1       7.395   4.254  16.349  0.00  0.00    +0.000 C 
BRANCH  18  19
ATOM     19  C   UNL     1       7.087   5.470  15.481  0.00  0.00    +0.000 C 
BRANCH  19  20
ATOM     20  C   UNL     1       5.828   5.240  14.642  0.00  0.00    +0.000 C 
BRANCH  20  21
ATOM     21  C   UNL     1       5.763   3.794  14.156  0.00  0.00    +0.000 C 
BRANCH  21  22
ATOM     22  C   UNL     1       6.378   3.623  12.770  0.00  0.00    +0.000 C 
BRANCH  22  23
ATOM     23  C   UNL     1       5.441   2.873  11.847  0.00  0.00    +0.000 C 
ATOM     24  O   UNL     1       5.664   1.758  11.381  0.00  0.00    +0.000 OA
ATOM     25  N   UNL     1       4.283   3.552  11.560  0.00  0.00    +0.000 N 
ATOM     26  H   UNL     1       4.022   4.461  11.921  0.00  0.00    +0.000 HD
BRANCH  25  27
ATOM     27  O   UNL     1       3.365   2.896  10.712  0.00  0.00    +0.000 OA
ATOM     28  H   UNL     1       2.596   3.508  10.726  0.00  0.00    +0.000 HD
ENDBRANCH  25  27
ENDBRANCH  22  23
ENDBRANCH  21  22
ENDBRANCH  20  21
ENDBRANCH  19  20
ENDBRANCH  18  19
ENDBRANCH  17  18
ENDBRANCH   2  17
TORSDOF 9
ENDMDL
MODEL 7
REMARK VINA RESULT:      -7.4      0.742      1.011
REMARK  Name = 
REMARK  11 active torsions:
REMARK  status: ('A' for Active; 'I' for Inactive)
REMARK    1  A    between atoms: C_1  and  C_2
REMARK    2  A    between atoms: C_6  and  C_7
REMARK    3  A    between atoms: C_10  and  N_11
REMARK    4  A    between atoms: C_12  and  C_14
REMARK    5  A    between atoms: C_14  and  C_15
REMARK    6  A    between atoms: C_15  and  C_16
REMARK    7  A    between atoms: C_16  and  C_17
REMARK    8  A    between atoms: C_17  and  C_18
REMARK    9  A    between atoms: C_18  and  C_19
REMARK   10  A    between atoms: C_19  and  C_20
REMARK   11  A    between atoms: N_22  and  O_23
REMARK                            x       y       z     vdW  Elec       q    Type
REMARK                         _______ _______ _______ _____ _____    ______ ____
ROOT
ATOM      1  N   UNL     1       3.940   3.253  18.409  0.00  0.00    +0.000 N 
ATOM      2  C   UNL     1       2.667   2.909  17.990  0.00  0.00    +0.000 C 
ATOM      3  O   UNL     1       2.097   3.405  17.019  0.00  0.00    +0.000 OA
ATOM      4  H   UNL     1       4.326   2.784  19.216  0.00  0.00    +0.000 HD
ENDROOT
BRANCH   1  14
ATOM      5  C   UNL     1       6.635   4.055  14.292  0.00  0.00    +0.000 C 
ATOM      6  C   UNL     1       6.146   4.676  15.604  0.00  0.00    +0.000 C 
ATOM      7  C   UNL     1       5.259   5.909  15.319  0.00  0.00    +0.000 C 
ATOM      8  C   UNL     1       4.774   6.543  16.631  0.00  0.00    +0.000 C 
ATOM      9  C   UNL     1       5.978   6.957  17.483  0.00  0.00    +0.000 C 
ATOM     10  C   UNL     1       6.853   5.725  17.807  0.00  0.00    +0.000 C 
ATOM     11  C   UNL     1       8.058   6.156  18.650  0.00  0.00    +0.000 C 
ATOM     12  C   UNL     1       7.343   5.109  16.476  0.00  0.00    +0.000 C 
ATOM     13  C   UNL     1       5.987   4.676  18.561  0.00  0.00    +0.000 C 
ATOM     14  C   UNL     1       4.763   4.244  17.701  0.00  0.00    +0.000 C 
ATOM     15  C   UNL     1       3.936   5.521  17.405  0.00  0.00    +0.000 C 
ATOM     16  C   UNL     1       5.318   3.642  16.388  0.00  0.00    +0.000 C 
ENDBRANCH   1  14
BRANCH   2  17
ATOM     17  C   UNL     1       1.955   1.903  18.854  0.00  0.00    +0.000 C 
BRANCH  17  18
ATOM     18  C   UNL     1       1.497   2.578  20.141  0.00  0.00    +0.000 C 
BRANCH  18  19
ATOM     19  C   UNL     1       1.189   4.055  19.920  0.00  0.00    +0.000 C 
BRANCH  19  20
ATOM     20  C   UNL     1       1.934   4.928  20.932  0.00  0.00    +0.000 C 
BRANCH  20  21
ATOM     21  C   UNL     1       1.555   6.396  20.757  0.00  0.00    +0.000 C 
BRANCH  21  22
ATOM     22  C   UNL     1       2.432   7.099  19.724  0.00  0.00    +0.000 C 
BRANCH  22  23
ATOM     23  C   UNL     1       1.730   8.311  19.148  0.00  0.00    +0.000 C 
ATOM     24  O   UNL     1       1.654   8.568  17.948  0.00  0.00    +0.000 OA
ATOM     25  N   UNL     1       1.165   9.128  20.094  0.00  0.00    +0.000 N 
ATOM     26  H   UNL     1       1.171   8.972  21.095  0.00  0.00    +0.000 HD
BRANCH  25  27
ATOM     27  O   UNL     1       0.487  10.269  19.613  0.00  0.00    +0.000 OA
ATOM     28  H   UNL     1       1.170  10.691  19.045  0.00  0.00    +0.000 HD
ENDBRANCH  25  27
ENDBRANCH  22  23
ENDBRANCH  21  22
ENDBRANCH  20  21
ENDBRANCH  19  20
ENDBRANCH  18  19
ENDBRANCH  17  18
ENDBRANCH   2  17
TORSDOF 9
ENDMDL
MODEL 8
REMARK VINA RESULT:      -7.3      3.307      7.583
REMARK  Name = 
REMARK  11 active torsions:
REMARK  status: ('A' for Active; 'I' for Inactive)
REMARK    1  A    between atoms: C_1  and  C_2
REMARK    2  A    between atoms: C_6  and  C_7
REMARK    3  A    between atoms: C_10  and  N_11
REMARK    4  A    between atoms: C_12  and  C_14
REMARK    5  A    between atoms: C_14  and  C_15
REMARK    6  A    between atoms: C_15  and  C_16
REMARK    7  A    between atoms: C_16  and  C_17
REMARK    8  A    between atoms: C_17  and  C_18
REMARK    9  A    between atoms: C_18  and  C_19
REMARK   10  A    between atoms: C_19  and  C_20
REMARK   11  A    between atoms: N_22  and  O_23
REMARK                            x       y       z     vdW  Elec       q    Type
REMARK                         _______ _______ _______ _____ _____    ______ ____
ROOT
ATOM      1  N   UNL     1       5.307   4.171  18.449  0.00  0.00    +0.000 N 
ATOM      2  C   UNL     1       5.951   5.169  17.737  0.00  0.00    +0.000 C 
ATOM      3  O   UNL     1       5.419   6.216  17.373  0.00  0.00    +0.000 OA
ATOM      4  H   UNL     1       5.832   3.348  18.709  0.00  0.00    +0.000 HD
ENDROOT
BRANCH   1  14
ATOM      5  C   UNL     1       1.900   7.292  20.321  0.00  0.00    +0.000 C 
ATOM      6  C   UNL     1       2.147   5.862  19.831  0.00  0.00    +0.000 C 
ATOM      7  C   UNL     1       1.256   5.551  18.607  0.00  0.00    +0.000 C 
ATOM      8  C   UNL     1       1.491   4.115  18.116  0.00  0.00    +0.000 C 
ATOM      9  C   UNL     1       1.184   3.125  19.245  0.00  0.00    +0.000 C 
ATOM     10  C   UNL     1       2.095   3.402  20.462  0.00  0.00    +0.000 C 
ATOM     11  C   UNL     1       1.770   2.412  21.586  0.00  0.00    +0.000 C 
ATOM     12  C   UNL     1       1.836   4.846  20.950  0.00  0.00    +0.000 C 
ATOM     13  C   UNL     1       3.581   3.278  20.018  0.00  0.00    +0.000 C 
ATOM     14  C   UNL     1       3.905   4.284  18.874  0.00  0.00    +0.000 C 
ATOM     15  C   UNL     1       2.955   3.959  17.693  0.00  0.00    +0.000 C 
ATOM     16  C   UNL     1       3.622   5.704  19.422  0.00  0.00    +0.000 C 
ENDBRANCH   1  14
BRANCH   2  17
ATOM     17  C   UNL     1       7.376   4.869  17.355  0.00  0.00    +0.000 C 
BRANCH  17  18
ATOM     18  C   UNL     1       7.428   4.450  15.891  0.00  0.00    +0.000 C 
BRANCH  18  19
ATOM     19  C   UNL     1       6.165   3.701  15.477  0.00  0.00    +0.000 C 
BRANCH  19  20
ATOM     20  C   UNL     1       5.613   4.246  14.159  0.00  0.00    +0.000 C 
BRANCH  20  21
ATOM     21  C   UNL     1       6.528   3.869  12.996  0.00  0.00    +0.000 C 
BRANCH  21  22
ATOM     22  C   UNL     1       5.773   3.159  11.875  0.00  0.00    +0.000 C 
BRANCH  22  23
ATOM     23  C   UNL     1       6.512   1.918  11.423  0.00  0.00    +0.000 C 
ATOM     24  O   UNL     1       7.636   1.917  10.924  0.00  0.00    +0.000 OA
ATOM     25  N   UNL     1       5.813   0.753  11.617  0.00  0.00    +0.000 N 
ATOM     26  H   UNL     1       4.895   0.674  12.038  0.00  0.00    +0.000 HD
BRANCH  25  27
ATOM     27  O   UNL     1       6.458  -0.439  11.223  0.00  0.00    +0.000 OA
ATOM     28  H   UNL     1       6.243  -1.046  11.967  0.00  0.00    +0.000 HD
ENDBRANCH  25  27
ENDBRANCH  22  23
ENDBRANCH  21  22
ENDBRANCH  20  21
ENDBRANCH  19  20
ENDBRANCH  18  19
ENDBRANCH  17  18
ENDBRANCH   2  17
TORSDOF 9
ENDMDL
MODEL 9
REMARK VINA RESULT:      -7.3      2.651      4.402
REMARK  Name = 
REMARK  11 active torsions:
REMARK  status: ('A' for Active; 'I' for Inactive)
REMARK    1  A    between atoms: C_1  and  C_2
REMARK    2  A    between atoms: C_6  and  C_7
REMARK    3  A    between atoms: C_10  and  N_11
REMARK    4  A    between atoms: C_12  and  C_14
REMARK    5  A    between atoms: C_14  and  C_15
REMARK    6  A    between atoms: C_15  and  C_16
REMARK    7  A    between atoms: C_16  and  C_17
REMARK    8  A    between atoms: C_17  and  C_18
REMARK    9  A    between atoms: C_18  and  C_19
REMARK   10  A    between atoms: C_19  and  C_20
REMARK   11  A    between atoms: N_22  and  O_23
REMARK                            x       y       z     vdW  Elec       q    Type
REMARK                         _______ _______ _______ _____ _____    ______ ____
ROOT
ATOM      1  N   UNL     1       3.569   5.618  17.713  0.00  0.00    +0.000 N 
ATOM      2  C   UNL     1       2.795   4.486  17.525  0.00  0.00    +0.000 C 
ATOM      3  O   UNL     1       3.224   3.413  17.106  0.00  0.00    +0.000 OA
ATOM      4  H   UNL     1       3.126   6.454  18.068  0.00  0.00    +0.000 HD
ENDROOT
BRANCH   1  14
ATOM      5  C   UNL     1       7.629   8.513  17.701  0.00  0.00    +0.000 C 
ATOM      6  C   UNL     1       7.104   7.097  17.439  0.00  0.00    +0.000 C 
ATOM      7  C   UNL     1       7.771   6.089  18.402  0.00  0.00    +0.000 C 
ATOM      8  C   UNL     1       7.256   4.666  18.138  0.00  0.00    +0.000 C 
ATOM      9  C   UNL     1       7.552   4.270  16.688  0.00  0.00    +0.000 C 
ATOM     10  C   UNL     1       6.860   5.249  15.714  0.00  0.00    +0.000 C 
ATOM     11  C   UNL     1       7.173   4.847  14.268  0.00  0.00    +0.000 C 
ATOM     12  C   UNL     1       7.398   6.673  15.985  0.00  0.00    +0.000 C 
ATOM     13  C   UNL     1       5.328   5.229  15.982  0.00  0.00    +0.000 C 
ATOM     14  C   UNL     1       5.015   5.636  17.453  0.00  0.00    +0.000 C 
ATOM     15  C   UNL     1       5.743   4.624  18.374  0.00  0.00    +0.000 C 
ATOM     16  C   UNL     1       5.582   7.062  17.661  0.00  0.00    +0.000 C 
ENDBRANCH   1  14
BRANCH   2  17
ATOM     17  C   UNL     1       1.326   4.658  17.808  0.00  0.00    +0.000 C 
BRANCH  17  18
ATOM     18  C   UNL     1       0.795   3.407  18.497  0.00  0.00    +0.000 C 
BRANCH  18  19
ATOM     19  C   UNL     1       0.638   3.620  20.000  0.00  0.00    +0.000 C 
BRANCH  19  20
ATOM     20  C   UNL     1       1.587   4.709  20.501  0.00  0.00    +0.000 C 
BRANCH  20  21
ATOM     21  C   UNL     1       2.706   4.100  21.344  0.00  0.00    +0.000 C 
BRANCH  21  22
ATOM     22  C   UNL     1       2.705   2.575  21.288  0.00  0.00    +0.000 C 
BRANCH  22  23
ATOM     23  C   UNL     1       3.801   2.064  20.377  0.00  0.00    +0.000 C 
ATOM     24  O   UNL     1       5.004   2.190  20.593  0.00  0.00    +0.000 OA
ATOM     25  N   UNL     1       3.337   1.427  19.253  0.00  0.00    +0.000 N 
ATOM     26  H   UNL     1       2.364   1.268  19.019  0.00  0.00    +0.000 HD
BRANCH  25  27
ATOM     27  O   UNL     1       4.314   0.919  18.371  0.00  0.00    +0.000 OA
ATOM     28  H   UNL     1       3.896   1.065  17.493  0.00  0.00    +0.000 HD
ENDBRANCH  25  27
ENDBRANCH  22  23
ENDBRANCH  21  22
ENDBRANCH  20  21
ENDBRANCH  19  20
ENDBRANCH  18  19
ENDBRANCH  17  18
ENDBRANCH   2  17
TORSDOF 9
ENDMDL
