MODEL 1
REMARK VINA RESULT:      -8.1      0.000      0.000
REMARK  Name = 
REMARK  7 active torsions:
REMARK  status: ('A' for Active; 'I' for Inactive)
REMARK    1  A    between atoms: C_1  and  O_2
REMARK    2  A    between atoms: O_2  and  C_3
REMARK    3  A    between atoms: C_6  and  C_7
REMARK    4  A    between atoms: C_7  and  N_8
REMARK    5  A    between atoms: C_9  and  C_11
REMARK    6  A    between atoms: C_15  and  C_16
REMARK    7  A    between atoms: C_19  and  C_20
REMARK                            x       y       z     vdW  Elec       q    Type
REMARK                         _______ _______ _______ _____ _____    ______ ____
ROOT
ATOM      1  C   UNL     1       0.307  10.097  22.095  0.00  0.00    +0.000 C 
ATOM      2  C   UNL     1      -0.838  10.467  23.021  0.00  0.00    +0.000 C 
ATOM      3  N   UNL     1      -0.797  11.934  23.108  0.00  0.00    +0.000 NA
ATOM      4  C   UNL     1      -0.161  12.431  21.871  0.00  0.00    +0.000 C 
ATOM      5  C   UNL     1       0.310  11.217  21.045  0.00  0.00    +0.000 C 
ATOM      6  H   UNL     1      -0.223  12.206  23.908  0.00  0.00    +0.000 HD
ENDROOT
BRANCH   5   7
ATOM      7  C   UNL     1      -0.529  11.015  19.789  0.00  0.00    +0.000 A 
ATOM      8  C   UNL     1      -0.056  10.184  18.761  0.00  0.00    +0.000 A 
ATOM      9  C   UNL     1      -0.810   9.979  17.598  0.00  0.00    +0.000 A 
ATOM     10  C   UNL     1      -2.056  10.598  17.435  0.00  0.00    +0.000 A 
ATOM     11  C   UNL     1      -2.516  11.447  18.446  0.00  0.00    +0.000 A 
ATOM     12  C   UNL     1      -1.757  11.661  19.597  0.00  0.00    +0.000 A 
BRANCH  10  13
ATOM     13  C   UNL     1      -2.906  10.368  16.211  0.00  0.00    +0.000 C 
ATOM     14  F   UNL     1      -2.706   9.152  15.629  0.00  0.00    +0.000 F 
ATOM     15  F   UNL     1      -4.240  10.435  16.482  0.00  0.00    +0.000 F 
ATOM     16  F   UNL     1      -2.678  11.289  15.233  0.00  0.00    +0.000 F 
ENDBRANCH  10  13
ENDBRANCH   5   7
BRANCH   1  18
ATOM     17  N   UNL     1       1.467   8.194  21.157  0.00  0.00    +0.000 N 
ATOM     18  C   UNL     1       0.247   8.672  21.587  0.00  0.00    +0.000 C 
ATOM     19  O   UNL     1      -0.779   7.997  21.593  0.00  0.00    +0.000 OA
ATOM     20  H   UNL     1       2.287   8.774  21.243  0.00  0.00    +0.000 HD
BRANCH  17  21
ATOM     21  C   UNL     1       1.657   6.814  20.770  0.00  0.00    +0.000 C 
BRANCH  21  25
ATOM     22  C   UNL     1       4.305   6.510  17.350  0.00  0.00    +0.000 A 
ATOM     23  C   UNL     1       3.343   7.519  17.413  0.00  0.00    +0.000 A 
ATOM     24  C   UNL     1       2.472   7.607  18.508  0.00  0.00    +0.000 A 
ATOM     25  C   UNL     1       2.548   6.681  19.556  0.00  0.00    +0.000 A 
ATOM     26  C   UNL     1       3.480   5.638  19.453  0.00  0.00    +0.000 A 
ATOM     27  C   UNL     1       4.350   5.553  18.360  0.00  0.00    +0.000 A 
BRANCH  22  29
ATOM     28  C   UNL     1       5.952   5.387  16.063  0.00  0.00    +0.000 C 
ATOM     29  O   UNL     1       5.102   6.518  16.235  0.00  0.00    +0.000 OA
ENDBRANCH  22  29
ENDBRANCH  21  25
ENDBRANCH  17  21
ENDBRANCH   1  18
TORSDOF 6
ENDMDL
MODEL 2
REMARK VINA RESULT:      -8.0      4.478      8.019
REMARK  Name = 
REMARK  7 active torsions:
REMARK  status: ('A' for Active; 'I' for Inactive)
REMARK    1  A    between atoms: C_1  and  O_2
REMARK    2  A    between atoms: O_2  and  C_3
REMARK    3  A    between atoms: C_6  and  C_7
REMARK    4  A    between atoms: C_7  and  N_8
REMARK    5  A    between atoms: C_9  and  C_11
REMARK    6  A    between atoms: C_15  and  C_16
REMARK    7  A    between atoms: C_19  and  C_20
REMARK                            x       y       z     vdW  Elec       q    Type
REMARK                         _______ _______ _______ _____ _____    ______ ____
ROOT
ATOM      1  C   UNL     1       1.710   3.813  19.480  0.00  0.00    +0.000 C 
ATOM      2  C   UNL     1       2.294   2.457  19.834  0.00  0.00    +0.000 C 
ATOM      3  N   UNL     1       2.276   1.695  18.578  0.00  0.00    +0.000 NA
ATOM      4  C   UNL     1       2.323   2.671  17.471  0.00  0.00    +0.000 C 
ATOM      5  C   UNL     1       2.250   4.090  18.070  0.00  0.00    +0.000 C 
ATOM      6  H   UNL     1       1.403   1.168  18.518  0.00  0.00    +0.000 HD
ENDROOT
BRANCH   5   7
ATOM      7  C   UNL     1       3.575   4.833  17.951  0.00  0.00    +0.000 A 
ATOM      8  C   UNL     1       3.599   6.137  17.432  0.00  0.00    +0.000 A 
ATOM      9  C   UNL     1       4.803   6.844  17.316  0.00  0.00    +0.000 A 
ATOM     10  C   UNL     1       6.014   6.264  17.715  0.00  0.00    +0.000 A 
ATOM     11  C   UNL     1       5.996   4.955  18.206  0.00  0.00    +0.000 A 
ATOM     12  C   UNL     1       4.797   4.249  18.309  0.00  0.00    +0.000 A 
BRANCH  10  13
ATOM     13  C   UNL     1       7.320   7.012  17.635  0.00  0.00    +0.000 C 
ATOM     14  F   UNL     1       7.176   8.367  17.671  0.00  0.00    +0.000 F 
ATOM     15  F   UNL     1       8.163   6.701  18.661  0.00  0.00    +0.000 F 
ATOM     16  F   UNL     1       8.010   6.743  16.492  0.00  0.00    +0.000 F 
ENDBRANCH  10  13
ENDBRANCH   5   7
BRANCH   1  18
ATOM     17  N   UNL     1       1.497   6.124  20.159  0.00  0.00    +0.000 N 
ATOM     18  C   UNL     1       1.946   4.875  20.533  0.00  0.00    +0.000 C 
ATOM     19  O   UNL     1       2.454   4.639  21.626  0.00  0.00    +0.000 OA
ATOM     20  H   UNL     1       1.026   6.239  19.275  0.00  0.00    +0.000 HD
BRANCH  17  21
ATOM     21  C   UNL     1       1.495   7.244  21.072  0.00  0.00    +0.000 C 
BRANCH  21  25
ATOM     22  C   UNL     1       1.033  11.057  19.060  0.00  0.00    +0.000 A 
ATOM     23  C   UNL     1       0.657  10.911  20.395  0.00  0.00    +0.000 A 
ATOM     24  C   UNL     1       0.786   9.675  21.043  0.00  0.00    +0.000 A 
ATOM     25  C   UNL     1       1.290   8.561  20.359  0.00  0.00    +0.000 A 
ATOM     26  C   UNL     1       1.610   8.706  19.001  0.00  0.00    +0.000 A 
ATOM     27  C   UNL     1       1.483   9.942  18.358  0.00  0.00    +0.000 A 
BRANCH  22  29
ATOM     28  C   UNL     1      -0.480  12.775  18.437  0.00  0.00    +0.000 C 
ATOM     29  O   UNL     1       0.864  12.308  18.527  0.00  0.00    +0.000 OA
ENDBRANCH  22  29
ENDBRANCH  21  25
ENDBRANCH  17  21
ENDBRANCH   1  18
TORSDOF 6
ENDMDL
MODEL 3
REMARK VINA RESULT:      -8.0      0.176      1.189
REMARK  Name = 
REMARK  7 active torsions:
REMARK  status: ('A' for Active; 'I' for Inactive)
REMARK    1  A    between atoms: C_1  and  O_2
REMARK    2  A    between atoms: O_2  and  C_3
REMARK    3  A    between atoms: C_6  and  C_7
REMARK    4  A    between atoms: C_7  and  N_8
REMARK    5  A    between atoms: C_9  and  C_11
REMARK    6  A    between atoms: C_15  and  C_16
REMARK    7  A    between atoms: C_19  and  C_20
REMARK                            x       y       z     vdW  Elec       q    Type
REMARK                         _______ _______ _______ _____ _____    ______ ____
ROOT
ATOM      1  C   UNL     1       0.324  10.096  22.077  0.00  0.00    +0.000 C 
ATOM      2  C   UNL     1      -0.810  10.469  23.017  0.00  0.00    +0.000 C 
ATOM      3  N   UNL     1      -0.764  11.935  23.105  0.00  0.00    +0.000 NA
ATOM      4  C   UNL     1      -0.141  12.432  21.861  0.00  0.00    +0.000 C 
ATOM      5  C   UNL     1       0.317  11.217  21.029  0.00  0.00    +0.000 C 
ATOM      6  H   UNL     1      -0.181  12.205  23.898  0.00  0.00    +0.000 HD
ENDROOT
BRANCH   5   7
ATOM      7  C   UNL     1      -0.537  11.019  19.782  0.00  0.00    +0.000 A 
ATOM      8  C   UNL     1      -0.062  10.218  18.732  0.00  0.00    +0.000 A 
ATOM      9  C   UNL     1      -0.829  10.016  17.577  0.00  0.00    +0.000 A 
ATOM     10  C   UNL     1      -2.090  10.610  17.444  0.00  0.00    +0.000 A 
ATOM     11  C   UNL     1      -2.554  11.431  18.477  0.00  0.00    +0.000 A 
ATOM     12  C   UNL     1      -1.782  11.641  19.620  0.00  0.00    +0.000 A 
BRANCH  10  13
ATOM     13  C   UNL     1      -2.954  10.383  16.230  0.00  0.00    +0.000 C 
ATOM     14  F   UNL     1      -4.290  10.451  16.490  0.00  0.00    +0.000 F 
ATOM     15  F   UNL     1      -2.722  11.296  15.245  0.00  0.00    +0.000 F 
ATOM     16  F   UNL     1      -2.749   9.162  15.660  0.00  0.00    +0.000 F 
ENDBRANCH  10  13
ENDBRANCH   5   7
BRANCH   1  18
ATOM     17  N   UNL     1       1.473   8.182  21.149  0.00  0.00    +0.000 N 
ATOM     18  C   UNL     1       0.253   8.672  21.569  0.00  0.00    +0.000 C 
ATOM     19  O   UNL     1      -0.779   8.007  21.565  0.00  0.00    +0.000 OA
ATOM     20  H   UNL     1       2.298   8.754  21.242  0.00  0.00    +0.000 HD
BRANCH  17  21
ATOM     21  C   UNL     1       1.653   6.800  20.763  0.00  0.00    +0.000 C 
BRANCH  21  25
ATOM     22  C   UNL     1       4.260   6.305  17.335  0.00  0.00    +0.000 A 
ATOM     23  C   UNL     1       4.336   5.425  18.414  0.00  0.00    +0.000 A 
ATOM     24  C   UNL     1       3.509   5.595  19.534  0.00  0.00    +0.000 A 
ATOM     25  C   UNL     1       2.594   6.655  19.590  0.00  0.00    +0.000 A 
ATOM     26  C   UNL     1       2.568   7.565  18.523  0.00  0.00    +0.000 A 
ATOM     27  C   UNL     1       3.394   7.392  17.407  0.00  0.00    +0.000 A 
BRANCH  22  29
ATOM     28  C   UNL     1       6.344   5.409  16.636  0.00  0.00    +0.000 C 
ATOM     29  O   UNL     1       5.115   6.046  16.295  0.00  0.00    +0.000 OA
ENDBRANCH  22  29
ENDBRANCH  21  25
ENDBRANCH  17  21
ENDBRANCH   1  18
TORSDOF 6
ENDMDL
MODEL 4
REMARK VINA RESULT:      -8.0      4.609      7.969
REMARK  Name = 
REMARK  7 active torsions:
REMARK  status: ('A' for Active; 'I' for Inactive)
REMARK    1  A    between atoms: C_1  and  O_2
REMARK    2  A    between atoms: O_2  and  C_3
REMARK    3  A    between atoms: C_6  and  C_7
REMARK    4  A    between atoms: C_7  and  N_8
REMARK    5  A    between atoms: C_9  and  C_11
REMARK    6  A    between atoms: C_15  and  C_16
REMARK    7  A    between atoms: C_19  and  C_20
REMARK                            x       y       z     vdW  Elec       q    Type
REMARK                         _______ _______ _______ _____ _____    ______ ____
ROOT
ATOM      1  C   UNL     1       1.796   3.677  19.407  0.00  0.00    +0.000 C 
ATOM      2  C   UNL     1       2.421   2.335  19.746  0.00  0.00    +0.000 C 
ATOM      3  N   UNL     1       2.456   1.600  18.474  0.00  0.00    +0.000 NA
ATOM      4  C   UNL     1       2.491   2.601  17.388  0.00  0.00    +0.000 C 
ATOM      5  C   UNL     1       2.355   4.003  18.015  0.00  0.00    +0.000 C 
ATOM      6  H   UNL     1       1.605   1.044  18.385  0.00  0.00    +0.000 HD
ENDROOT
BRANCH   5   7
ATOM      7  C   UNL     1       3.654   4.796  17.939  0.00  0.00    +0.000 A 
ATOM      8  C   UNL     1       4.846   4.227  18.415  0.00  0.00    +0.000 A 
ATOM      9  C   UNL     1       6.055   4.932  18.352  0.00  0.00    +0.000 A 
ATOM     10  C   UNL     1       6.103   6.223  17.813  0.00  0.00    +0.000 A 
ATOM     11  C   UNL     1       4.912   6.802  17.363  0.00  0.00    +0.000 A 
ATOM     12  C   UNL     1       3.707   6.103  17.439  0.00  0.00    +0.000 A 
BRANCH  10  13
ATOM     13  C   UNL     1       7.393   6.993  17.699  0.00  0.00    +0.000 C 
ATOM     14  F   UNL     1       8.284   6.714  18.693  0.00  0.00    +0.000 F 
ATOM     15  F   UNL     1       8.051   6.742  16.532  0.00  0.00    +0.000 F 
ATOM     16  F   UNL     1       7.206   8.342  17.738  0.00  0.00    +0.000 F 
ENDBRANCH  10  13
ENDBRANCH   5   7
BRANCH   1  18
ATOM     17  N   UNL     1       1.595   5.989  20.087  0.00  0.00    +0.000 N 
ATOM     18  C   UNL     1       1.972   4.724  20.487  0.00  0.00    +0.000 C 
ATOM     19  O   UNL     1       2.375   4.465  21.618  0.00  0.00    +0.000 OA
ATOM     20  H   UNL     1       1.206   6.125  19.166  0.00  0.00    +0.000 HD
BRANCH  17  21
ATOM     21  C   UNL     1       1.548   7.103  21.007  0.00  0.00    +0.000 C 
BRANCH  21  25
ATOM     22  C   UNL     1       1.113  10.929  19.014  0.00  0.00    +0.000 A 
ATOM     23  C   UNL     1       0.612  10.741  20.302  0.00  0.00    +0.000 A 
ATOM     24  C   UNL     1       0.733   9.499  20.941  0.00  0.00    +0.000 A 
ATOM     25  C   UNL     1       1.354   8.422  20.295  0.00  0.00    +0.000 A 
ATOM     26  C   UNL     1       1.802   8.608  18.979  0.00  0.00    +0.000 A 
ATOM     27  C   UNL     1       1.682   9.848  18.344  0.00  0.00    +0.000 A 
BRANCH  22  29
ATOM     28  C   UNL     1       2.118  12.967  18.331  0.00  0.00    +0.000 C 
ATOM     29  O   UNL     1       0.940  12.181  18.484  0.00  0.00    +0.000 OA
ENDBRANCH  22  29
ENDBRANCH  21  25
ENDBRANCH  17  21
ENDBRANCH   1  18
TORSDOF 6
ENDMDL
MODEL 5
REMARK VINA RESULT:      -8.0      4.419      8.057
REMARK  Name = 
REMARK  7 active torsions:
REMARK  status: ('A' for Active; 'I' for Inactive)
REMARK    1  A    between atoms: C_1  and  O_2
REMARK    2  A    between atoms: O_2  and  C_3
REMARK    3  A    between atoms: C_6  and  C_7
REMARK    4  A    between atoms: C_7  and  N_8
REMARK    5  A    between atoms: C_9  and  C_11
REMARK    6  A    between atoms: C_15  and  C_16
REMARK    7  A    between atoms: C_19  and  C_20
REMARK                            x       y       z     vdW  Elec       q    Type
REMARK                         _______ _______ _______ _____ _____    ______ ____
ROOT
ATOM      1  C   UNL     1       1.691   3.830  19.506  0.00  0.00    +0.000 C 
ATOM      2  C   UNL     1       2.265   2.464  19.837  0.00  0.00    +0.000 C 
ATOM      3  N   UNL     1       2.218   1.715  18.573  0.00  0.00    +0.000 NA
ATOM      4  C   UNL     1       2.259   2.702  17.475  0.00  0.00    +0.000 C 
ATOM      5  C   UNL     1       2.212   4.115  18.090  0.00  0.00    +0.000 C 
ATOM      6  H   UNL     1       1.339   1.198  18.522  0.00  0.00    +0.000 HD
ENDROOT
BRANCH   5   7
ATOM      7  C   UNL     1       3.543   4.845  17.956  0.00  0.00    +0.000 A 
ATOM      8  C   UNL     1       3.567   6.174  17.505  0.00  0.00    +0.000 A 
ATOM      9  C   UNL     1       4.777   6.868  17.377  0.00  0.00    +0.000 A 
ATOM     10  C   UNL     1       5.993   6.252  17.698  0.00  0.00    +0.000 A 
ATOM     11  C   UNL     1       5.973   4.919  18.122  0.00  0.00    +0.000 A 
ATOM     12  C   UNL     1       4.768   4.225  18.236  0.00  0.00    +0.000 A 
BRANCH  10  13
ATOM     13  C   UNL     1       7.307   6.984  17.605  0.00  0.00    +0.000 C 
ATOM     14  F   UNL     1       8.163   6.700  18.628  0.00  0.00    +0.000 F 
ATOM     15  F   UNL     1       7.988   6.693  16.461  0.00  0.00    +0.000 F 
ATOM     16  F   UNL     1       7.155   8.338  17.614  0.00  0.00    +0.000 F 
ENDBRANCH  10  13
ENDBRANCH   5   7
BRANCH   1  18
ATOM     17  N   UNL     1       1.556   6.145  20.191  0.00  0.00    +0.000 N 
ATOM     18  C   UNL     1       1.956   4.878  20.565  0.00  0.00    +0.000 C 
ATOM     19  O   UNL     1       2.443   4.620  21.662  0.00  0.00    +0.000 OA
ATOM     20  H   UNL     1       1.099   6.280  19.303  0.00  0.00    +0.000 HD
BRANCH  17  21
ATOM     21  C   UNL     1       1.587   7.261  21.109  0.00  0.00    +0.000 C 
BRANCH  21  25
ATOM     22  C   UNL     1       0.229  10.897  19.177  0.00  0.00    +0.000 A 
ATOM     23  C   UNL     1       1.062  10.006  18.502  0.00  0.00    +0.000 A 
ATOM     24  C   UNL     1       1.520   8.839  19.131  0.00  0.00    +0.000 A 
ATOM     25  C   UNL     1       1.153   8.551  20.452  0.00  0.00    +0.000 A 
ATOM     26  C   UNL     1       0.362   9.484  21.139  0.00  0.00    +0.000 A 
ATOM     27  C   UNL     1      -0.095  10.646  20.508  0.00  0.00    +0.000 A 
BRANCH  22  29
ATOM     28  C   UNL     1      -1.518  12.037  18.044  0.00  0.00    +0.000 C 
ATOM     29  O   UNL     1      -0.157  12.005  18.468  0.00  0.00    +0.000 OA
ENDBRANCH  22  29
ENDBRANCH  21  25
ENDBRANCH  17  21
ENDBRANCH   1  18
TORSDOF 6
ENDMDL
MODEL 6
REMARK VINA RESULT:      -7.8      4.535      7.821
REMARK  Name = 
REMARK  7 active torsions:
REMARK  status: ('A' for Active; 'I' for Inactive)
REMARK    1  A    between atoms: C_1  and  O_2
REMARK    2  A    between atoms: O_2  and  C_3
REMARK    3  A    between atoms: C_6  and  C_7
REMARK    4  A    between atoms: C_7  and  N_8
REMARK    5  A    between atoms: C_9  and  C_11
REMARK    6  A    between atoms: C_15  and  C_16
REMARK    7  A    between atoms: C_19  and  C_20
REMARK                            x       y       z     vdW  Elec       q    Type
REMARK                         _______ _______ _______ _____ _____    ______ ____
ROOT
ATOM      1  C   UNL     1       1.491   3.900  19.516  0.00  0.00    +0.000 C 
ATOM      2  C   UNL     1       2.058   2.536  19.867  0.00  0.00    +0.000 C 
ATOM      3  N   UNL     1       2.019   1.773  18.612  0.00  0.00    +0.000 NA
ATOM      4  C   UNL     1       2.071   2.747  17.503  0.00  0.00    +0.000 C 
ATOM      5  C   UNL     1       2.024   4.167  18.101  0.00  0.00    +0.000 C 
ATOM      6  H   UNL     1       1.139   1.258  18.560  0.00  0.00    +0.000 HD
ENDROOT
BRANCH   5   7
ATOM      7  C   UNL     1       3.358   4.891  17.970  0.00  0.00    +0.000 A 
ATOM      8  C   UNL     1       4.553   4.203  18.236  0.00  0.00    +0.000 A 
ATOM      9  C   UNL     1       5.793   4.845  18.119  0.00  0.00    +0.000 A 
ATOM     10  C   UNL     1       5.870   6.188  17.733  0.00  0.00    +0.000 A 
ATOM     11  C   UNL     1       4.680   6.883  17.494  0.00  0.00    +0.000 A 
ATOM     12  C   UNL     1       3.445   6.245  17.625  0.00  0.00    +0.000 A 
BRANCH  10  13
ATOM     13  C   UNL     1       7.191   6.895  17.563  0.00  0.00    +0.000 C 
ATOM     14  F   UNL     1       7.879   6.506  16.453  0.00  0.00    +0.000 F 
ATOM     15  F   UNL     1       7.051   8.246  17.457  0.00  0.00    +0.000 F 
ATOM     16  F   UNL     1       8.035   6.690  18.613  0.00  0.00    +0.000 F 
ENDBRANCH  10  13
ENDBRANCH   5   7
BRANCH   1  18
ATOM     17  N   UNL     1       1.161   6.172  20.274  0.00  0.00    +0.000 N 
ATOM     18  C   UNL     1       1.751   4.959  20.566  0.00  0.00    +0.000 C 
ATOM     19  O   UNL     1       2.390   4.749  21.592  0.00  0.00    +0.000 OA
ATOM     20  H   UNL     1       0.590   6.262  19.448  0.00  0.00    +0.000 HD
BRANCH  17  21
ATOM     21  C   UNL     1       1.165   7.272  21.212  0.00  0.00    +0.000 C 
BRANCH  21  25
ATOM     22  C   UNL     1       1.133  11.103  19.181  0.00  0.00    +0.000 A 
ATOM     23  C   UNL     1       1.505   9.944  18.500  0.00  0.00    +0.000 A 
ATOM     24  C   UNL     1       1.536   8.707  19.159  0.00  0.00    +0.000 A 
ATOM     25  C   UNL     1       1.200   8.614  20.516  0.00  0.00    +0.000 A 
ATOM     26  C   UNL     1       0.883   9.795  21.203  0.00  0.00    +0.000 A 
ATOM     27  C   UNL     1       0.851  11.027  20.542  0.00  0.00    +0.000 A 
BRANCH  22  29
ATOM     28  C   UNL     1       2.413  12.851  18.213  0.00  0.00    +0.000 C 
ATOM     29  O   UNL     1       1.138  12.256  18.440  0.00  0.00    +0.000 OA
ENDBRANCH  22  29
ENDBRANCH  21  25
ENDBRANCH  17  21
ENDBRANCH   1  18
TORSDOF 6
ENDMDL
MODEL 7
REMARK VINA RESULT:      -7.8      3.982      8.344
REMARK  Name = 
REMARK  7 active torsions:
REMARK  status: ('A' for Active; 'I' for Inactive)
REMARK    1  A    between atoms: C_1  and  O_2
REMARK    2  A    between atoms: O_2  and  C_3
REMARK    3  A    between atoms: C_6  and  C_7
REMARK    4  A    between atoms: C_7  and  N_8
REMARK    5  A    between atoms: C_9  and  C_11
REMARK    6  A    between atoms: C_15  and  C_16
REMARK    7  A    between atoms: C_19  and  C_20
REMARK                            x       y       z     vdW  Elec       q    Type
REMARK                         _______ _______ _______ _____ _____    ______ ____
ROOT
ATOM      1  C   UNL     1       6.313   6.283  16.965  0.00  0.00    +0.000 C 
ATOM      2  C   UNL     1       6.940   5.305  15.987  0.00  0.00    +0.000 C 
ATOM      3  N   UNL     1       7.929   4.558  16.777  0.00  0.00    +0.000 NA
ATOM      4  C   UNL     1       7.483   4.591  18.184  0.00  0.00    +0.000 C 
ATOM      5  C   UNL     1       6.235   5.491  18.278  0.00  0.00    +0.000 C 
ATOM      6  H   UNL     1       8.835   5.022  16.705  0.00  0.00    +0.000 HD
ENDROOT
BRANCH   5   7
ATOM      7  C   UNL     1       4.967   4.690  18.549  0.00  0.00    +0.000 A 
ATOM      8  C   UNL     1       4.287   4.852  19.766  0.00  0.00    +0.000 A 
ATOM      9  C   UNL     1       3.117   4.130  20.039  0.00  0.00    +0.000 A 
ATOM     10  C   UNL     1       2.599   3.229  19.101  0.00  0.00    +0.000 A 
ATOM     11  C   UNL     1       3.290   3.045  17.899  0.00  0.00    +0.000 A 
ATOM     12  C   UNL     1       4.462   3.756  17.636  0.00  0.00    +0.000 A 
BRANCH  10  13
ATOM     13  C   UNL     1       1.324   2.465  19.351  0.00  0.00    +0.000 C 
ATOM     14  F   UNL     1       0.791   2.681  20.587  0.00  0.00    +0.000 F 
ATOM     15  F   UNL     1       0.340   2.786  18.463  0.00  0.00    +0.000 F 
ATOM     16  F   UNL     1       1.491   1.117  19.249  0.00  0.00    +0.000 F 
ENDBRANCH  10  13
ENDBRANCH   5   7
BRANCH   1  18
ATOM     17  N   UNL     1       4.197   7.337  17.474  0.00  0.00    +0.000 N 
ATOM     18  C   UNL     1       5.034   6.917  16.461  0.00  0.00    +0.000 C 
ATOM     19  O   UNL     1       4.784   7.075  15.269  0.00  0.00    +0.000 OA
ATOM     20  H   UNL     1       4.491   7.241  18.434  0.00  0.00    +0.000 HD
BRANCH  17  21
ATOM     21  C   UNL     1       2.995   8.095  17.211  0.00  0.00    +0.000 C 
BRANCH  21  25
ATOM     22  C   UNL     1       0.810   8.893  20.871  0.00  0.00    +0.000 A 
ATOM     23  C   UNL     1       1.563   7.726  20.736  0.00  0.00    +0.000 A 
ATOM     24  C   UNL     1       2.254   7.455  19.546  0.00  0.00    +0.000 A 
ATOM     25  C   UNL     1       2.196   8.350  18.469  0.00  0.00    +0.000 A 
ATOM     26  C   UNL     1       1.390   9.490  18.597  0.00  0.00    +0.000 A 
ATOM     27  C   UNL     1       0.703   9.759  19.786  0.00  0.00    +0.000 A 
BRANCH  22  29
ATOM     28  C   UNL     1      -0.430  10.326  22.299  0.00  0.00    +0.000 C 
ATOM     29  O   UNL     1       0.176   9.055  22.075  0.00  0.00    +0.000 OA
ENDBRANCH  22  29
ENDBRANCH  21  25
ENDBRANCH  17  21
ENDBRANCH   1  18
TORSDOF 6
ENDMDL
MODEL 8
REMARK VINA RESULT:      -7.7      4.069      8.236
REMARK  Name = 
REMARK  7 active torsions:
REMARK  status: ('A' for Active; 'I' for Inactive)
REMARK    1  A    between atoms: C_1  and  O_2
REMARK    2  A    between atoms: O_2  and  C_3
REMARK    3  A    between atoms: C_6  and  C_7
REMARK    4  A    between atoms: C_7  and  N_8
REMARK    5  A    between atoms: C_9  and  C_11
REMARK    6  A    between atoms: C_15  and  C_16
REMARK    7  A    between atoms: C_19  and  C_20
REMARK                            x       y       z     vdW  Elec       q    Type
REMARK                         _______ _______ _______ _____ _____    ______ ____
ROOT
ATOM      1  C   UNL     1       6.283   6.247  17.048  0.00  0.00    +0.000 C 
ATOM      2  C   UNL     1       6.950   5.223  16.147  0.00  0.00    +0.000 C 
ATOM      3  N   UNL     1       7.914   4.526  17.009  0.00  0.00    +0.000 NA
ATOM      4  C   UNL     1       7.419   4.632  18.397  0.00  0.00    +0.000 C 
ATOM      5  C   UNL     1       6.163   5.527  18.399  0.00  0.00    +0.000 C 
ATOM      6  H   UNL     1       8.820   4.993  16.944  0.00  0.00    +0.000 HD
ENDROOT
BRANCH   5   7
ATOM      7  C   UNL     1       4.892   4.732  18.669  0.00  0.00    +0.000 A 
ATOM      8  C   UNL     1       4.502   3.717  17.780  0.00  0.00    +0.000 A 
ATOM      9  C   UNL     1       3.340   2.968  18.008  0.00  0.00    +0.000 A 
ATOM     10  C   UNL     1       2.538   3.215  19.129  0.00  0.00    +0.000 A 
ATOM     11  C   UNL     1       2.910   4.244  20.001  0.00  0.00    +0.000 A 
ATOM     12  C   UNL     1       4.061   4.997  19.764  0.00  0.00    +0.000 A 
BRANCH  10  13
ATOM     13  C   UNL     1       1.302   2.404  19.420  0.00  0.00    +0.000 C 
ATOM     14  F   UNL     1       0.693   2.739  20.593  0.00  0.00    +0.000 F 
ATOM     15  F   UNL     1       0.349   2.540  18.455  0.00  0.00    +0.000 F 
ATOM     16  F   UNL     1       1.558   1.068  19.504  0.00  0.00    +0.000 F 
ENDBRANCH  10  13
ENDBRANCH   5   7
BRANCH   1  18
ATOM     17  N   UNL     1       4.121   7.261  17.428  0.00  0.00    +0.000 N 
ATOM     18  C   UNL     1       5.019   6.844  16.467  0.00  0.00    +0.000 C 
ATOM     19  O   UNL     1       4.830   6.979  15.262  0.00  0.00    +0.000 OA
ATOM     20  H   UNL     1       4.365   7.186  18.403  0.00  0.00    +0.000 HD
BRANCH  17  21
ATOM     21  C   UNL     1       2.918   7.987  17.090  0.00  0.00    +0.000 C 
BRANCH  21  25
ATOM     22  C   UNL     1       0.752   9.411  20.565  0.00  0.00    +0.000 A 
ATOM     23  C   UNL     1       0.803  10.177  19.400  0.00  0.00    +0.000 A 
ATOM     24  C   UNL     1       1.519   9.729  18.281  0.00  0.00    +0.000 A 
ATOM     25  C   UNL     1       2.203   8.506  18.316  0.00  0.00    +0.000 A 
ATOM     26  C   UNL     1       2.192   7.774  19.512  0.00  0.00    +0.000 A 
ATOM     27  C   UNL     1       1.474   8.222  20.626  0.00  0.00    +0.000 A 
BRANCH  22  29
ATOM     28  C   UNL     1       0.246   9.374  22.883  0.00  0.00    +0.000 C 
ATOM     29  O   UNL     1       0.024   9.945  21.597  0.00  0.00    +0.000 OA
ENDBRANCH  22  29
ENDBRANCH  21  25
ENDBRANCH  17  21
ENDBRANCH   1  18
TORSDOF 6
ENDMDL
MODEL 9
REMARK VINA RESULT:      -7.7      3.998      8.268
REMARK  Name = 
REMARK  7 active torsions:
REMARK  status: ('A' for Active; 'I' for Inactive)
REMARK    1  A    between atoms: C_1  and  O_2
REMARK    2  A    between atoms: O_2  and  C_3
REMARK    3  A    between atoms: C_6  and  C_7
REMARK    4  A    between atoms: C_7  and  N_8
REMARK    5  A    between atoms: C_9  and  C_11
REMARK    6  A    between atoms: C_15  and  C_16
REMARK    7  A    between atoms: C_19  and  C_20
REMARK                            x       y       z     vdW  Elec       q    Type
REMARK                         _______ _______ _______ _____ _____    ______ ____
ROOT
ATOM      1  C   UNL     1       6.236   6.302  16.736  0.00  0.00    +0.000 C 
ATOM      2  C   UNL     1       6.748   5.307  15.710  0.00  0.00    +0.000 C 
ATOM      3  N   UNL     1       7.765   4.518  16.420  0.00  0.00    +0.000 NA
ATOM      4  C   UNL     1       7.430   4.561  17.858  0.00  0.00    +0.000 C 
ATOM      5  C   UNL     1       6.228   5.508  18.049  0.00  0.00    +0.000 C 
ATOM      6  H   UNL     1       8.680   4.948  16.279  0.00  0.00    +0.000 HD
ENDROOT
BRANCH   5   7
ATOM      7  C   UNL     1       4.955   4.754  18.416  0.00  0.00    +0.000 A 
ATOM      8  C   UNL     1       4.518   4.732  19.750  0.00  0.00    +0.000 A 
ATOM      9  C   UNL     1       3.349   4.049  20.112  0.00  0.00    +0.000 A 
ATOM     10  C   UNL     1       2.589   3.373  19.151  0.00  0.00    +0.000 A 
ATOM     11  C   UNL     1       3.037   3.370  17.826  0.00  0.00    +0.000 A 
ATOM     12  C   UNL     1       4.209   4.039  17.470  0.00  0.00    +0.000 A 
BRANCH  10  13
ATOM     13  C   UNL     1       1.308   2.660  19.504  0.00  0.00    +0.000 C 
ATOM     14  F   UNL     1       0.297   3.501  19.862  0.00  0.00    +0.000 F 
ATOM     15  F   UNL     1       0.823   1.915  18.471  0.00  0.00    +0.000 F 
ATOM     16  F   UNL     1       1.459   1.797  20.547  0.00  0.00    +0.000 F 
ENDBRANCH  10  13
ENDBRANCH   5   7
BRANCH   1  18
ATOM     17  N   UNL     1       4.159   7.343  17.409  0.00  0.00    +0.000 N 
ATOM     18  C   UNL     1       4.947   6.987  16.334  0.00  0.00    +0.000 C 
ATOM     19  O   UNL     1       4.650   7.235  15.168  0.00  0.00    +0.000 OA
ATOM     20  H   UNL     1       4.491   7.174  18.346  0.00  0.00    +0.000 HD
BRANCH  17  21
ATOM     21  C   UNL     1       2.959   8.134  17.253  0.00  0.00    +0.000 C 
BRANCH  21  25
ATOM     22  C   UNL     1       0.745   8.598  20.952  0.00  0.00    +0.000 A 
ATOM     23  C   UNL     1       0.693   9.584  19.967  0.00  0.00    +0.000 A 
ATOM     24  C   UNL     1       1.424   9.447  18.779  0.00  0.00    +0.000 A 
ATOM     25  C   UNL     1       2.225   8.318  18.561  0.00  0.00    +0.000 A 
ATOM     26  C   UNL     1       2.314   7.362  19.583  0.00  0.00    +0.000 A 
ATOM     27  C   UNL     1       1.582   7.500  20.767  0.00  0.00    +0.000 A 
BRANCH  22  29
ATOM     28  C   UNL     1      -0.358  10.195  22.317  0.00  0.00    +0.000 C 
ATOM     29  O   UNL     1      -0.007   8.836  22.073  0.00  0.00    +0.000 OA
ENDBRANCH  22  29
ENDBRANCH  21  25
ENDBRANCH  17  21
ENDBRANCH   1  18
TORSDOF 6
ENDMDL
