MODEL 1
REMARK VINA RESULT:      -8.6      0.000      0.000
REMARK  Name = 
REMARK  4 active torsions:
REMARK  status: ('A' for Active; 'I' for Inactive)
REMARK    1  A    between atoms: C_2  and  C_24
REMARK    2  A    between atoms: N_3  and  C_4
REMARK    3  A    between atoms: C_7  and  N_8
REMARK    4  A    between atoms: C_12  and  C_14
REMARK                            x       y       z     vdW  Elec       q    Type
REMARK                         _______ _______ _______ _____ _____    ______ ____
ROOT
ATOM      1  C   UNL     1      -2.039  11.409  18.875  0.00  0.00    +0.000 A 
ATOM      2  C   UNL     1      -1.560  10.681  17.788  0.00  0.00    +0.000 A 
ATOM      3  C   UNL     1      -0.407   9.911  17.910  0.00  0.00    +0.000 A 
ATOM      4  C   UNL     1       0.312   9.856  19.103  0.00  0.00    +0.000 A 
ATOM      5  C   UNL     1      -0.153  10.636  20.169  0.00  0.00    +0.000 A 
ATOM      6  C   UNL     1      -1.312  11.413  20.057  0.00  0.00    +0.000 A 
ENDROOT
BRANCH   4   7
ATOM      7  N   UNL     1       1.428   9.058  19.199  0.00  0.00    +0.000 N 
ATOM      8  C   UNL     1       1.736   8.251  20.390  0.00  0.00    +0.000 C 
ATOM      9  C   UNL     1       1.841   6.756  20.037  0.00  0.00    +0.000 C 
ATOM     10  N   UNL     1       2.722   6.548  18.881  0.00  0.00    +0.000 N 
ATOM     11  C   UNL     1       3.770   5.641  18.981  0.00  0.00    +0.000 C 
ATOM     12  O   UNL     1       3.916   4.908  19.958  0.00  0.00    +0.000 OA
ATOM     13  C   UNL     1       2.309   7.313  17.696  0.00  0.00    +0.000 C 
ATOM     14  C   UNL     1       2.273   8.819  18.014  0.00  0.00    +0.000 C 
BRANCH  11  15
ATOM     15  C   UNL     1       4.765   5.522  17.886  0.00  0.00    +0.000 A 
ATOM     16  C   UNL     1       5.943   6.280  17.867  0.00  0.00    +0.000 A 
ATOM     17  C   UNL     1       6.829   6.169  16.796  0.00  0.00    +0.000 A 
ATOM     18  C   UNL     1       6.578   5.248  15.780  0.00  0.00    +0.000 A 
ATOM     19  C   UNL     1       5.447   4.433  15.834  0.00  0.00    +0.000 A 
ATOM     20  C   UNL     1       4.539   4.571  16.883  0.00  0.00    +0.000 A 
ENDBRANCH  11  15
ENDBRANCH   4   7
BRANCH   1  23
ATOM     21  O   UNL     1      -4.695  10.468  18.152  0.00  0.00    +0.000 OA
ATOM     22  C   UNL     1      -4.447  11.635  18.437  0.00  0.00    +0.000 C 
ATOM     23  N   UNL     1      -3.234  12.149  18.829  0.00  0.00    +0.000 N 
ATOM     24  H   UNL     1      -3.218  13.070  19.246  0.00  0.00    +0.000 HD
BRANCH  22  25
ATOM     25  C   UNL     1      -5.569  12.591  18.381  0.00  0.00    +0.000 A 
ATOM     26  C   UNL     1      -5.998  13.311  19.521  0.00  0.00    +0.000 A 
ATOM     27  C   UNL     1      -6.866  14.397  19.372  0.00  0.00    +0.000 A 
ATOM     28  C   UNL     1      -7.227  14.742  18.087  0.00  0.00    +0.000 A 
ATOM     29  C   UNL     1      -6.848  13.998  16.991  0.00  0.00    +0.000 A 
ATOM     30  C   UNL     1      -6.049  12.896  17.104  0.00  0.00    +0.000 A 
ATOM     31  O   UNL     1      -7.240  14.564  15.818  0.00  0.00    +0.000 OA
ATOM     32  C   UNL     1      -7.568  15.878  16.303  0.00  0.00    +0.000 C 
ATOM     33  O   UNL     1      -7.879  15.879  17.714  0.00  0.00    +0.000 OA
ENDBRANCH  22  25
ENDBRANCH   1  23
TORSDOF 4
ENDMDL
MODEL 2
REMARK VINA RESULT:      -8.6      3.444      4.259
REMARK  Name = 
REMARK  4 active torsions:
REMARK  status: ('A' for Active; 'I' for Inactive)
REMARK    1  A    between atoms: C_2  and  C_24
REMARK    2  A    between atoms: N_3  and  C_4
REMARK    3  A    between atoms: C_7  and  N_8
REMARK    4  A    between atoms: C_12  and  C_14
REMARK                            x       y       z     vdW  Elec       q    Type
REMARK                         _______ _______ _______ _____ _____    ______ ____
ROOT
ATOM      1  C   UNL     1      -0.281  10.017  20.774  0.00  0.00    +0.000 A 
ATOM      2  C   UNL     1       0.471  10.137  19.607  0.00  0.00    +0.000 A 
ATOM      3  C   UNL     1       1.381   9.147  19.252  0.00  0.00    +0.000 A 
ATOM      4  C   UNL     1       1.585   8.021  20.050  0.00  0.00    +0.000 A 
ATOM      5  C   UNL     1       0.861   7.944  21.246  0.00  0.00    +0.000 A 
ATOM      6  C   UNL     1      -0.058   8.934  21.612  0.00  0.00    +0.000 A 
ENDROOT
BRANCH   4   7
ATOM      7  N   UNL     1       2.468   7.044  19.651  0.00  0.00    +0.000 N 
ATOM      8  C   UNL     1       2.386   5.652  20.120  0.00  0.00    +0.000 C 
ATOM      9  C   UNL     1       2.220   4.677  18.940  0.00  0.00    +0.000 C 
ATOM     10  N   UNL     1       3.217   4.940  17.894  0.00  0.00    +0.000 N 
ATOM     11  C   UNL     1       4.009   3.896  17.434  0.00  0.00    +0.000 C 
ATOM     12  O   UNL     1       3.825   2.729  17.775  0.00  0.00    +0.000 OA
ATOM     13  C   UNL     1       3.187   6.326  17.405  0.00  0.00    +0.000 C 
ATOM     14  C   UNL     1       3.427   7.311  18.564  0.00  0.00    +0.000 C 
BRANCH  11  15
ATOM     15  C   UNL     1       5.125   4.162  16.490  0.00  0.00    +0.000 A 
ATOM     16  C   UNL     1       4.956   4.093  15.101  0.00  0.00    +0.000 A 
ATOM     17  C   UNL     1       6.042   4.306  14.253  0.00  0.00    +0.000 A 
ATOM     18  C   UNL     1       7.281   4.660  14.787  0.00  0.00    +0.000 A 
ATOM     19  C   UNL     1       7.435   4.809  16.165  0.00  0.00    +0.000 A 
ATOM     20  C   UNL     1       6.360   4.556  17.017  0.00  0.00    +0.000 A 
ENDBRANCH  11  15
ENDBRANCH   4   7
BRANCH   1  23
ATOM     21  O   UNL     1      -0.450  11.535  23.250  0.00  0.00    +0.000 OA
ATOM     22  C   UNL     1      -1.291  11.603  22.358  0.00  0.00    +0.000 C 
ATOM     23  N   UNL     1      -1.262  10.953  21.147  0.00  0.00    +0.000 N 
ATOM     24  H   UNL     1      -1.894  11.266  20.423  0.00  0.00    +0.000 HD
BRANCH  22  25
ATOM     25  C   UNL     1      -2.445  12.490  22.592  0.00  0.00    +0.000 A 
ATOM     26  C   UNL     1      -2.812  13.501  21.672  0.00  0.00    +0.000 A 
ATOM     27  C   UNL     1      -4.056  14.128  21.787  0.00  0.00    +0.000 A 
ATOM     28  C   UNL     1      -4.895  13.683  22.787  0.00  0.00    +0.000 A 
ATOM     29  C   UNL     1      -4.503  12.739  23.710  0.00  0.00    +0.000 A 
ATOM     30  C   UNL     1      -3.273  12.147  23.665  0.00  0.00    +0.000 A 
ATOM     31  O   UNL     1      -5.512  12.385  24.551  0.00  0.00    +0.000 OA
ATOM     32  C   UNL     1      -6.619  12.938  23.816  0.00  0.00    +0.000 C 
ATOM     33  O   UNL     1      -6.211  14.006  22.932  0.00  0.00    +0.000 OA
ENDBRANCH  22  25
ENDBRANCH   1  23
TORSDOF 4
ENDMDL
MODEL 3
REMARK VINA RESULT:      -8.1      3.735      4.324
REMARK  Name = 
REMARK  4 active torsions:
REMARK  status: ('A' for Active; 'I' for Inactive)
REMARK    1  A    between atoms: C_2  and  C_24
REMARK    2  A    between atoms: N_3  and  C_4
REMARK    3  A    between atoms: C_7  and  N_8
REMARK    4  A    between atoms: C_12  and  C_14
REMARK                            x       y       z     vdW  Elec       q    Type
REMARK                         _______ _______ _______ _____ _____    ______ ____
ROOT
ATOM      1  C   UNL     1      -0.472  10.365  20.884  0.00  0.00    +0.000 A 
ATOM      2  C   UNL     1       0.278  10.366  19.711  0.00  0.00    +0.000 A 
ATOM      3  C   UNL     1       1.158   9.323  19.437  0.00  0.00    +0.000 A 
ATOM      4  C   UNL     1       1.332   8.262  20.327  0.00  0.00    +0.000 A 
ATOM      5  C   UNL     1       0.611   8.305  21.525  0.00  0.00    +0.000 A 
ATOM      6  C   UNL     1      -0.278   9.349  21.809  0.00  0.00    +0.000 A 
ENDROOT
BRANCH   4   7
ATOM      7  N   UNL     1       2.185   7.230  20.010  0.00  0.00    +0.000 N 
ATOM      8  C   UNL     1       2.001   5.858  20.508  0.00  0.00    +0.000 C 
ATOM      9  C   UNL     1       1.856   4.859  19.347  0.00  0.00    +0.000 C 
ATOM     10  N   UNL     1       2.928   5.039  18.359  0.00  0.00    +0.000 N 
ATOM     11  C   UNL     1       3.690   3.943  17.976  0.00  0.00    +0.000 C 
ATOM     12  O   UNL     1       3.424   2.798  18.336  0.00  0.00    +0.000 OA
ATOM     13  C   UNL     1       3.001   6.410  17.832  0.00  0.00    +0.000 C 
ATOM     14  C   UNL     1       3.222   7.415  18.978  0.00  0.00    +0.000 C 
BRANCH  11  15
ATOM     15  C   UNL     1       4.874   4.123  17.098  0.00  0.00    +0.000 A 
ATOM     16  C   UNL     1       4.786   4.030  15.703  0.00  0.00    +0.000 A 
ATOM     17  C   UNL     1       5.931   4.161  14.919  0.00  0.00    +0.000 A 
ATOM     18  C   UNL     1       7.153   4.460  15.521  0.00  0.00    +0.000 A 
ATOM     19  C   UNL     1       7.233   4.634  16.902  0.00  0.00    +0.000 A 
ATOM     20  C   UNL     1       6.096   4.462  17.691  0.00  0.00    +0.000 A 
ENDBRANCH  11  15
ENDBRANCH   4   7
BRANCH   1  23
ATOM     21  O   UNL     1      -0.517  12.176  23.160  0.00  0.00    +0.000 OA
ATOM     22  C   UNL     1      -1.393  12.150  22.301  0.00  0.00    +0.000 C 
ATOM     23  N   UNL     1      -1.424  11.358  21.178  0.00  0.00    +0.000 N 
ATOM     24  H   UNL     1      -2.082  11.591  20.448  0.00  0.00    +0.000 HD
BRANCH  22  25
ATOM     25  C   UNL     1      -2.525  13.080  22.471  0.00  0.00    +0.000 A 
ATOM     26  C   UNL     1      -3.869  12.653  22.362  0.00  0.00    +0.000 A 
ATOM     27  C   UNL     1      -4.902  13.488  22.798  0.00  0.00    +0.000 A 
ATOM     28  C   UNL     1      -4.541  14.692  23.365  0.00  0.00    +0.000 A 
ATOM     29  C   UNL     1      -3.233  15.120  23.412  0.00  0.00    +0.000 A 
ATOM     30  C   UNL     1      -2.202  14.356  22.942  0.00  0.00    +0.000 A 
ATOM     31  O   UNL     1      -3.093  16.292  24.089  0.00  0.00    +0.000 OA
ATOM     32  C   UNL     1      -4.377  16.328  24.738  0.00  0.00    +0.000 C 
ATOM     33  O   UNL     1      -5.367  15.542  24.037  0.00  0.00    +0.000 OA
ENDBRANCH  22  25
ENDBRANCH   1  23
TORSDOF 4
ENDMDL
MODEL 4
REMARK VINA RESULT:      -8.1      3.721      4.259
REMARK  Name = 
REMARK  4 active torsions:
REMARK  status: ('A' for Active; 'I' for Inactive)
REMARK    1  A    between atoms: C_2  and  C_24
REMARK    2  A    between atoms: N_3  and  C_4
REMARK    3  A    between atoms: C_7  and  N_8
REMARK    4  A    between atoms: C_12  and  C_14
REMARK                            x       y       z     vdW  Elec       q    Type
REMARK                         _______ _______ _______ _____ _____    ______ ____
ROOT
ATOM      1  C   UNL     1      -0.287  10.034  21.057  0.00  0.00    +0.000 A 
ATOM      2  C   UNL     1      -0.001   8.932  21.859  0.00  0.00    +0.000 A 
ATOM      3  C   UNL     1       0.876   7.947  21.414  0.00  0.00    +0.000 A 
ATOM      4  C   UNL     1       1.477   8.017  20.157  0.00  0.00    +0.000 A 
ATOM      5  C   UNL     1       1.136   9.104  19.343  0.00  0.00    +0.000 A 
ATOM      6  C   UNL     1       0.256  10.101  19.782  0.00  0.00    +0.000 A 
ENDROOT
BRANCH   4   7
ATOM      7  N   UNL     1       2.365   7.044  19.762  0.00  0.00    +0.000 N 
ATOM      8  C   UNL     1       2.271   5.645  20.209  0.00  0.00    +0.000 C 
ATOM      9  C   UNL     1       2.128   4.688  19.012  0.00  0.00    +0.000 C 
ATOM     10  N   UNL     1       3.146   4.963  17.990  0.00  0.00    +0.000 N 
ATOM     11  C   UNL     1       3.945   3.924  17.531  0.00  0.00    +0.000 C 
ATOM     12  O   UNL     1       3.751   2.753  17.852  0.00  0.00    +0.000 OA
ATOM     13  C   UNL     1       3.128   6.356  17.521  0.00  0.00    +0.000 C 
ATOM     14  C   UNL     1       3.347   7.323  18.699  0.00  0.00    +0.000 C 
BRANCH  11  15
ATOM     15  C   UNL     1       5.080   4.201  16.615  0.00  0.00    +0.000 A 
ATOM     16  C   UNL     1       6.327   4.633  17.086  0.00  0.00    +0.000 A 
ATOM     17  C   UNL     1       7.352   4.924  16.186  0.00  0.00    +0.000 A 
ATOM     18  C   UNL     1       7.158   4.713  14.821  0.00  0.00    +0.000 A 
ATOM     19  C   UNL     1       5.946   4.206  14.353  0.00  0.00    +0.000 A 
ATOM     20  C   UNL     1       4.906   3.953  15.248  0.00  0.00    +0.000 A 
ENDBRANCH  11  15
ENDBRANCH   4   7
BRANCH   1  23
ATOM     21  O   UNL     1       0.525  12.669  21.985  0.00  0.00    +0.000 OA
ATOM     22  C   UNL     1      -0.645  12.298  21.945  0.00  0.00    +0.000 C 
ATOM     23  N   UNL     1      -1.112  11.091  21.482  0.00  0.00    +0.000 N 
ATOM     24  H   UNL     1      -2.101  11.001  21.298  0.00  0.00    +0.000 HD
BRANCH  22  25
ATOM     25  C   UNL     1      -1.667  13.251  22.418  0.00  0.00    +0.000 A 
ATOM     26  C   UNL     1      -1.659  14.612  22.031  0.00  0.00    +0.000 A 
ATOM     27  C   UNL     1      -2.782  15.409  22.269  0.00  0.00    +0.000 A 
ATOM     28  C   UNL     1      -3.878  14.797  22.839  0.00  0.00    +0.000 A 
ATOM     29  C   UNL     1      -3.853  13.487  23.263  0.00  0.00    +0.000 A 
ATOM     30  C   UNL     1      -2.752  12.694  23.101  0.00  0.00    +0.000 A 
ATOM     31  O   UNL     1      -5.063  13.062  23.715  0.00  0.00    +0.000 OA
ATOM     32  C   UNL     1      -5.882  14.123  23.189  0.00  0.00    +0.000 C 
ATOM     33  O   UNL     1      -5.126  15.332  22.955  0.00  0.00    +0.000 OA
ENDBRANCH  22  25
ENDBRANCH   1  23
TORSDOF 4
ENDMDL
MODEL 5
REMARK VINA RESULT:      -8.0      3.121     11.752
REMARK  Name = 
REMARK  4 active torsions:
REMARK  status: ('A' for Active; 'I' for Inactive)
REMARK    1  A    between atoms: C_2  and  C_24
REMARK    2  A    between atoms: N_3  and  C_4
REMARK    3  A    between atoms: C_7  and  N_8
REMARK    4  A    between atoms: C_12  and  C_14
REMARK                            x       y       z     vdW  Elec       q    Type
REMARK                         _______ _______ _______ _____ _____    ______ ____
ROOT
ATOM      1  C   UNL     1       1.866   8.420  18.906  0.00  0.00    +0.000 A 
ATOM      2  C   UNL     1       1.610   8.438  20.275  0.00  0.00    +0.000 A 
ATOM      3  C   UNL     1       0.688   9.335  20.807  0.00  0.00    +0.000 A 
ATOM      4  C   UNL     1       0.011  10.249  20.000  0.00  0.00    +0.000 A 
ATOM      5  C   UNL     1       0.320  10.253  18.635  0.00  0.00    +0.000 A 
ATOM      6  C   UNL     1       1.245   9.354  18.090  0.00  0.00    +0.000 A 
ENDROOT
BRANCH   4   7
ATOM      7  N   UNL     1      -0.919  11.099  20.554  0.00  0.00    +0.000 N 
ATOM      8  C   UNL     1      -0.985  11.385  21.995  0.00  0.00    +0.000 C 
ATOM      9  C   UNL     1      -0.818  12.890  22.272  0.00  0.00    +0.000 C 
ATOM     10  N   UNL     1      -1.715  13.685  21.423  0.00  0.00    +0.000 N 
ATOM     11  C   UNL     1      -2.556  14.620  22.013  0.00  0.00    +0.000 C 
ATOM     12  O   UNL     1      -2.493  14.902  23.208  0.00  0.00    +0.000 OA
ATOM     13  C   UNL     1      -1.537  13.418  19.988  0.00  0.00    +0.000 C 
ATOM     14  C   UNL     1      -1.776  11.927  19.685  0.00  0.00    +0.000 C 
BRANCH  11  15
ATOM     15  C   UNL     1      -3.579  15.327  21.200  0.00  0.00    +0.000 A 
ATOM     16  C   UNL     1      -4.832  14.763  20.928  0.00  0.00    +0.000 A 
ATOM     17  C   UNL     1      -5.744  15.443  20.122  0.00  0.00    +0.000 A 
ATOM     18  C   UNL     1      -5.437  16.718  19.649  0.00  0.00    +0.000 A 
ATOM     19  C   UNL     1      -4.224  17.318  19.983  0.00  0.00    +0.000 A 
ATOM     20  C   UNL     1      -3.293  16.623  20.754  0.00  0.00    +0.000 A 
ENDBRANCH  11  15
ENDBRANCH   4   7
BRANCH   1  23
ATOM     21  O   UNL     1       1.897   5.529  19.240  0.00  0.00    +0.000 OA
ATOM     22  C   UNL     1       2.708   6.138  18.548  0.00  0.00    +0.000 C 
ATOM     23  N   UNL     1       2.736   7.491  18.307  0.00  0.00    +0.000 N 
ATOM     24  H   UNL     1       3.314   7.828  17.550  0.00  0.00    +0.000 HD
BRANCH  22  25
ATOM     25  C   UNL     1       3.754   5.338  17.882  0.00  0.00    +0.000 A 
ATOM     26  C   UNL     1       3.633   3.939  17.712  0.00  0.00    +0.000 A 
ATOM     27  C   UNL     1       4.497   3.267  16.843  0.00  0.00    +0.000 A 
ATOM     28  C   UNL     1       5.412   4.031  16.150  0.00  0.00    +0.000 A 
ATOM     29  C   UNL     1       5.557   5.383  16.368  0.00  0.00    +0.000 A 
ATOM     30  C   UNL     1       4.769   6.064  17.253  0.00  0.00    +0.000 A 
ATOM     31  O   UNL     1       6.452   5.954  15.518  0.00  0.00    +0.000 OA
ATOM     32  C   UNL     1       6.553   4.890  14.553  0.00  0.00    +0.000 C 
ATOM     33  O   UNL     1       6.187   3.608  15.112  0.00  0.00    +0.000 OA
ENDBRANCH  22  25
ENDBRANCH   1  23
TORSDOF 4
ENDMDL
MODEL 6
REMARK VINA RESULT:      -8.0      3.871      4.651
REMARK  Name = 
REMARK  4 active torsions:
REMARK  status: ('A' for Active; 'I' for Inactive)
REMARK    1  A    between atoms: C_2  and  C_24
REMARK    2  A    between atoms: N_3  and  C_4
REMARK    3  A    between atoms: C_7  and  N_8
REMARK    4  A    between atoms: C_12  and  C_14
REMARK                            x       y       z     vdW  Elec       q    Type
REMARK                         _______ _______ _______ _____ _____    ______ ____
ROOT
ATOM      1  C   UNL     1      -0.312  10.201  20.895  0.00  0.00    +0.000 A 
ATOM      2  C   UNL     1      -0.006   9.148  21.754  0.00  0.00    +0.000 A 
ATOM      3  C   UNL     1       0.872   8.145  21.353  0.00  0.00    +0.000 A 
ATOM      4  C   UNL     1       1.453   8.148  20.086  0.00  0.00    +0.000 A 
ATOM      5  C   UNL     1       1.092   9.183  19.216  0.00  0.00    +0.000 A 
ATOM      6  C   UNL     1       0.212  10.198  19.611  0.00  0.00    +0.000 A 
ENDROOT
BRANCH   4   7
ATOM      7  N   UNL     1       2.343   7.159  19.734  0.00  0.00    +0.000 N 
ATOM      8  C   UNL     1       2.250   5.781  20.241  0.00  0.00    +0.000 C 
ATOM      9  C   UNL     1       2.109   4.772  19.087  0.00  0.00    +0.000 C 
ATOM     10  N   UNL     1       3.127   5.005  18.055  0.00  0.00    +0.000 N 
ATOM     11  C   UNL     1       3.928   3.947  17.642  0.00  0.00    +0.000 C 
ATOM     12  O   UNL     1       3.736   2.791  18.013  0.00  0.00    +0.000 OA
ATOM     13  C   UNL     1       3.108   6.376  17.525  0.00  0.00    +0.000 C 
ATOM     14  C   UNL     1       3.326   7.393  18.660  0.00  0.00    +0.000 C 
BRANCH  11  15
ATOM     15  C   UNL     1       5.063   4.185  16.715  0.00  0.00    +0.000 A 
ATOM     16  C   UNL     1       6.345   4.512  17.177  0.00  0.00    +0.000 A 
ATOM     17  C   UNL     1       7.371   4.771  16.270  0.00  0.00    +0.000 A 
ATOM     18  C   UNL     1       7.140   4.631  14.902  0.00  0.00    +0.000 A 
ATOM     19  C   UNL     1       5.888   4.228  14.438  0.00  0.00    +0.000 A 
ATOM     20  C   UNL     1       4.849   4.008  15.343  0.00  0.00    +0.000 A 
ENDBRANCH  11  15
ENDBRANCH   4   7
BRANCH   1  23
ATOM     21  O   UNL     1       0.497  12.807  21.906  0.00  0.00    +0.000 OA
ATOM     22  C   UNL     1      -0.675  12.466  21.779  0.00  0.00    +0.000 C 
ATOM     23  N   UNL     1      -1.138  11.275  21.272  0.00  0.00    +0.000 N 
ATOM     24  H   UNL     1      -2.114  11.212  21.017  0.00  0.00    +0.000 HD
BRANCH  22  25
ATOM     25  C   UNL     1      -1.704  13.441  22.188  0.00  0.00    +0.000 A 
ATOM     26  C   UNL     1      -3.081  13.223  21.948  0.00  0.00    +0.000 A 
ATOM     27  C   UNL     1      -4.034  14.021  22.588  0.00  0.00    +0.000 A 
ATOM     28  C   UNL     1      -3.568  14.969  23.473  0.00  0.00    +0.000 A 
ATOM     29  C   UNL     1      -2.223  15.209  23.654  0.00  0.00    +0.000 A 
ATOM     30  C   UNL     1      -1.264  14.489  23.002  0.00  0.00    +0.000 A 
ATOM     31  O   UNL     1      -1.986  16.122  24.634  0.00  0.00    +0.000 OA
ATOM     32  C   UNL     1      -3.286  16.130  25.252  0.00  0.00    +0.000 C 
ATOM     33  O   UNL     1      -4.324  15.692  24.347  0.00  0.00    +0.000 OA
ENDBRANCH  22  25
ENDBRANCH   1  23
TORSDOF 4
ENDMDL
MODEL 7
REMARK VINA RESULT:      -7.9      3.257     11.691
REMARK  Name = 
REMARK  4 active torsions:
REMARK  status: ('A' for Active; 'I' for Inactive)
REMARK    1  A    between atoms: C_2  and  C_24
REMARK    2  A    between atoms: N_3  and  C_4
REMARK    3  A    between atoms: C_7  and  N_8
REMARK    4  A    between atoms: C_12  and  C_14
REMARK                            x       y       z     vdW  Elec       q    Type
REMARK                         _______ _______ _______ _____ _____    ______ ____
ROOT
ATOM      1  C   UNL     1       1.842   8.444  18.771  0.00  0.00    +0.000 A 
ATOM      2  C   UNL     1       1.160   9.393  18.013  0.00  0.00    +0.000 A 
ATOM      3  C   UNL     1       0.285  10.286  18.625  0.00  0.00    +0.000 A 
ATOM      4  C   UNL     1       0.049  10.252  19.999  0.00  0.00    +0.000 A 
ATOM      5  C   UNL     1       0.702   9.258  20.738  0.00  0.00    +0.000 A 
ATOM      6  C   UNL     1       1.584   8.355  20.132  0.00  0.00    +0.000 A 
ENDROOT
BRANCH   4   7
ATOM      7  N   UNL     1      -0.795  11.172  20.577  0.00  0.00    +0.000 N 
ATOM      8  C   UNL     1      -0.718  11.548  21.997  0.00  0.00    +0.000 C 
ATOM      9  C   UNL     1      -0.472  13.059  22.161  0.00  0.00    +0.000 C 
ATOM     10  N   UNL     1      -1.412  13.838  21.345  0.00  0.00    +0.000 N 
ATOM     11  C   UNL     1      -2.161  14.842  21.946  0.00  0.00    +0.000 C 
ATOM     12  O   UNL     1      -1.979  15.193  23.110  0.00  0.00    +0.000 OA
ATOM     13  C   UNL     1      -1.375  13.477  19.920  0.00  0.00    +0.000 C 
ATOM     14  C   UNL     1      -1.695  11.982  19.736  0.00  0.00    +0.000 C 
BRANCH  11  15
ATOM     15  C   UNL     1      -3.226  15.541  21.182  0.00  0.00    +0.000 A 
ATOM     16  C   UNL     1      -2.997  16.763  20.536  0.00  0.00    +0.000 A 
ATOM     17  C   UNL     1      -4.038  17.406  19.869  0.00  0.00    +0.000 A 
ATOM     18  C   UNL     1      -5.289  16.797  19.781  0.00  0.00    +0.000 A 
ATOM     19  C   UNL     1      -5.502  15.543  20.354  0.00  0.00    +0.000 A 
ATOM     20  C   UNL     1      -4.473  14.916  21.057  0.00  0.00    +0.000 A 
ENDBRANCH  11  15
ENDBRANCH   4   7
BRANCH   1  23
ATOM     21  O   UNL     1       1.693   5.543  18.604  0.00  0.00    +0.000 OA
ATOM     22  C   UNL     1       2.657   6.194  18.211  0.00  0.00    +0.000 C 
ATOM     23  N   UNL     1       2.786   7.562  18.216  0.00  0.00    +0.000 N 
ATOM     24  H   UNL     1       3.527   7.973  17.666  0.00  0.00    +0.000 HD
BRANCH  22  25
ATOM     25  C   UNL     1       3.792   5.437  17.650  0.00  0.00    +0.000 A 
ATOM     26  C   UNL     1       3.834   4.023  17.672  0.00  0.00    +0.000 A 
ATOM     27  C   UNL     1       4.776   3.343  16.895  0.00  0.00    +0.000 A 
ATOM     28  C   UNL     1       5.601   4.106  16.096  0.00  0.00    +0.000 A 
ATOM     29  C   UNL     1       5.588   5.483  16.127  0.00  0.00    +0.000 A 
ATOM     30  C   UNL     1       4.721   6.182  16.919  0.00  0.00    +0.000 A 
ATOM     31  O   UNL     1       6.418   6.032  15.200  0.00  0.00    +0.000 OA
ATOM     32  C   UNL     1       6.646   4.866  14.387  0.00  0.00    +0.000 C 
ATOM     33  O   UNL     1       6.427   3.638  15.118  0.00  0.00    +0.000 OA
ENDBRANCH  22  25
ENDBRANCH   1  23
TORSDOF 4
ENDMDL
MODEL 8
REMARK VINA RESULT:      -7.9      2.755      3.629
REMARK  Name = 
REMARK  4 active torsions:
REMARK  status: ('A' for Active; 'I' for Inactive)
REMARK    1  A    between atoms: C_2  and  C_24
REMARK    2  A    between atoms: N_3  and  C_4
REMARK    3  A    between atoms: C_7  and  N_8
REMARK    4  A    between atoms: C_12  and  C_14
REMARK                            x       y       z     vdW  Elec       q    Type
REMARK                         _______ _______ _______ _____ _____    ______ ____
ROOT
ATOM      1  C   UNL     1      -0.477  10.232  20.973  0.00  0.00    +0.000 A 
ATOM      2  C   UNL     1       0.291  10.291  19.813  0.00  0.00    +0.000 A 
ATOM      3  C   UNL     1       1.181   9.266  19.505  0.00  0.00    +0.000 A 
ATOM      4  C   UNL     1       1.348   8.167  20.347  0.00  0.00    +0.000 A 
ATOM      5  C   UNL     1       0.609   8.150  21.535  0.00  0.00    +0.000 A 
ATOM      6  C   UNL     1      -0.291   9.176  21.853  0.00  0.00    +0.000 A 
ENDROOT
BRANCH   4   7
ATOM      7  N   UNL     1       2.212   7.155  19.996  0.00  0.00    +0.000 N 
ATOM      8  C   UNL     1       2.043   5.765  20.449  0.00  0.00    +0.000 C 
ATOM      9  C   UNL     1       1.909   4.803  19.255  0.00  0.00    +0.000 C 
ATOM     10  N   UNL     1       2.978   5.029  18.273  0.00  0.00    +0.000 N 
ATOM     11  C   UNL     1       3.752   3.954  17.854  0.00  0.00    +0.000 C 
ATOM     12  O   UNL     1       3.498   2.794  18.176  0.00  0.00    +0.000 OA
ATOM     13  C   UNL     1       3.036   6.417  17.793  0.00  0.00    +0.000 C 
ATOM     14  C   UNL     1       3.246   7.385  18.971  0.00  0.00    +0.000 C 
BRANCH  11  15
ATOM     15  C   UNL     1       4.933   4.176  16.983  0.00  0.00    +0.000 A 
ATOM     16  C   UNL     1       6.199   4.470  17.507  0.00  0.00    +0.000 A 
ATOM     17  C   UNL     1       7.271   4.715  16.650  0.00  0.00    +0.000 A 
ATOM     18  C   UNL     1       7.100   4.595  15.271  0.00  0.00    +0.000 A 
ATOM     19  C   UNL     1       5.862   4.223  14.747  0.00  0.00    +0.000 A 
ATOM     20  C   UNL     1       4.778   4.018  15.601  0.00  0.00    +0.000 A 
ENDBRANCH  11  15
ENDBRANCH   4   7
BRANCH   1  23
ATOM     21  O   UNL     1      -0.395  12.169  23.143  0.00  0.00    +0.000 OA
ATOM     22  C   UNL     1      -1.342  12.061  22.370  0.00  0.00    +0.000 C 
ATOM     23  N   UNL     1      -1.440  11.204  21.299  0.00  0.00    +0.000 N 
ATOM     24  H   UNL     1      -2.169  11.371  20.619  0.00  0.00    +0.000 HD
BRANCH  22  25
ATOM     25  C   UNL     1      -2.492  12.958  22.590  0.00  0.00    +0.000 A 
ATOM     26  C   UNL     1      -2.406  14.095  23.427  0.00  0.00    +0.000 A 
ATOM     27  C   UNL     1      -3.415  15.062  23.392  0.00  0.00    +0.000 A 
ATOM     28  C   UNL     1      -4.439  14.871  22.489  0.00  0.00    +0.000 A 
ATOM     29  C   UNL     1      -4.540  13.732  21.721  0.00  0.00    +0.000 A 
ATOM     30  C   UNL     1      -3.604  12.738  21.772  0.00  0.00    +0.000 A 
ATOM     31  O   UNL     1      -5.574  13.789  20.839  0.00  0.00    +0.000 OA
ATOM     32  C   UNL     1      -5.849  15.200  20.910  0.00  0.00    +0.000 C 
ATOM     33  O   UNL     1      -5.390  15.786  22.149  0.00  0.00    +0.000 OA
ENDBRANCH  22  25
ENDBRANCH   1  23
TORSDOF 4
ENDMDL
MODEL 9
REMARK VINA RESULT:      -7.8      3.245     11.933
REMARK  Name = 
REMARK  4 active torsions:
REMARK  status: ('A' for Active; 'I' for Inactive)
REMARK    1  A    between atoms: C_2  and  C_24
REMARK    2  A    between atoms: N_3  and  C_4
REMARK    3  A    between atoms: C_7  and  N_8
REMARK    4  A    between atoms: C_12  and  C_14
REMARK                            x       y       z     vdW  Elec       q    Type
REMARK                         _______ _______ _______ _____ _____    ______ ____
ROOT
ATOM      1  C   UNL     1       1.628   8.516  19.429  0.00  0.00    +0.000 A 
ATOM      2  C   UNL     1       1.389   8.657  20.794  0.00  0.00    +0.000 A 
ATOM      3  C   UNL     1       0.482   9.607  21.255  0.00  0.00    +0.000 A 
ATOM      4  C   UNL     1      -0.197  10.454  20.380  0.00  0.00    +0.000 A 
ATOM      5  C   UNL     1       0.096  10.336  19.016  0.00  0.00    +0.000 A 
ATOM      6  C   UNL     1       1.006   9.383  18.542  0.00  0.00    +0.000 A 
ENDROOT
BRANCH   4   7
ATOM      7  N   UNL     1      -1.112  11.359  20.867  0.00  0.00    +0.000 N 
ATOM      8  C   UNL     1      -1.247  11.669  22.298  0.00  0.00    +0.000 C 
ATOM      9  C   UNL     1      -1.019  13.167  22.567  0.00  0.00    +0.000 C 
ATOM     10  N   UNL     1      -1.821  13.995  21.657  0.00  0.00    +0.000 N 
ATOM     11  C   UNL     1      -2.645  14.980  22.185  0.00  0.00    +0.000 C 
ATOM     12  O   UNL     1      -2.637  15.276  23.379  0.00  0.00    +0.000 OA
ATOM     13  C   UNL     1      -1.573  13.698  20.239  0.00  0.00    +0.000 C 
ATOM     14  C   UNL     1      -1.871  12.218  19.939  0.00  0.00    +0.000 C 
BRANCH  11  15
ATOM     15  C   UNL     1      -3.579  15.728  21.305  0.00  0.00    +0.000 A 
ATOM     16  C   UNL     1      -3.234  16.958  20.729  0.00  0.00    +0.000 A 
ATOM     17  C   UNL     1      -4.158  17.646  19.945  0.00  0.00    +0.000 A 
ATOM     18  C   UNL     1      -5.401  17.074  19.673  0.00  0.00    +0.000 A 
ATOM     19  C   UNL     1      -5.720  15.814  20.177  0.00  0.00    +0.000 A 
ATOM     20  C   UNL     1      -4.812  15.142  20.995  0.00  0.00    +0.000 A 
ENDBRANCH  11  15
ENDBRANCH   4   7
BRANCH   1  23
ATOM     21  O   UNL     1       1.714   5.687  20.104  0.00  0.00    +0.000 OA
ATOM     22  C   UNL     1       2.484   6.215  19.306  0.00  0.00    +0.000 C 
ATOM     23  N   UNL     1       2.481   7.530  18.904  0.00  0.00    +0.000 N 
ATOM     24  H   UNL     1       3.019   7.779  18.085  0.00  0.00    +0.000 HD
BRANCH  22  25
ATOM     25  C   UNL     1       3.508   5.350  18.691  0.00  0.00    +0.000 A 
ATOM     26  C   UNL     1       3.316   4.744  17.428  0.00  0.00    +0.000 A 
ATOM     27  C   UNL     1       4.401   4.168  16.760  0.00  0.00    +0.000 A 
ATOM     28  C   UNL     1       5.636   4.266  17.366  0.00  0.00    +0.000 A 
ATOM     29  C   UNL     1       5.799   4.808  18.622  0.00  0.00    +0.000 A 
ATOM     30  C   UNL     1       4.752   5.327  19.329  0.00  0.00    +0.000 A 
ATOM     31  O   UNL     1       7.107   4.885  18.989  0.00  0.00    +0.000 OA
ATOM     32  C   UNL     1       7.713   4.672  17.702  0.00  0.00    +0.000 C 
ATOM     33  O   UNL     1       6.837   3.967  16.794  0.00  0.00    +0.000 OA
ENDBRANCH  22  25
ENDBRANCH   1  23
TORSDOF 4
ENDMDL
