MODEL 1
REMARK VINA RESULT:      -7.0      0.000      0.000
REMARK  Name = 
REMARK  10 active torsions:
REMARK  status: ('A' for Active; 'I' for Inactive)
REMARK    1  A    between atoms: C_1  and  C_2
REMARK    2  A    between atoms: C_4  and  C_5
REMARK    3  A    between atoms: N_7  and  C_8
REMARK    4  A    between atoms: N_12  and  C_13
REMARK    5  A    between atoms: C_13  and  C_14
REMARK    6  A    between atoms: C_13  and  C_15
REMARK    7  A    between atoms: C_18  and  C_19
REMARK    8  A    between atoms: N_20  and  C_21
REMARK    9  A    between atoms: C_21  and  C_22
REMARK   10  A    between atoms: C_21  and  C_23
REMARK                            x       y       z     vdW  Elec       q    Type
REMARK                         _______ _______ _______ _____ _____    ______ ____
ROOT
ATOM      1  C   UNL     1       2.222   6.441  20.170  0.00  0.00    +0.000 C 
ATOM      2  O   UNL     1       1.616   5.399  20.409  0.00  0.00    +0.000 OA
ATOM      3  N   UNL     1       3.504   6.426  19.664  0.00  0.00    +0.000 N 
ATOM      4  H   UNL     1       3.826   7.267  19.196  0.00  0.00    +0.000 HD
ENDROOT
BRANCH   1   8
ATOM      5  C   UNL     1      -0.172  10.382  22.356  0.00  0.00    +0.000 C 
ATOM      6  C   UNL     1       0.558   9.530  21.377  0.00  0.00    +0.000 A 
ATOM      7  C   UNL     1       1.134   8.296  21.631  0.00  0.00    +0.000 A 
ATOM      8  C   UNL     1       1.654   7.770  20.419  0.00  0.00    +0.000 A 
ATOM      9  C   UNL     1       1.463   8.766  19.461  0.00  0.00    +0.000 A 
ATOM     10  C   UNL     1       1.893   8.746  18.028  0.00  0.00    +0.000 C 
ATOM     11  N   UNL     1       0.745   9.814  20.036  0.00  0.00    +0.000 N 
BRANCH  11  12
ATOM     12  C   UNL     1       0.223  10.955  19.265  0.00  0.00    +0.000 C 
ATOM     13  C   UNL     1      -1.294  10.869  19.078  0.00  0.00    +0.000 C 
ATOM     14  C   UNL     1       0.625  12.351  19.747  0.00  0.00    +0.000 C 
ENDBRANCH  11  12
ENDBRANCH   1   8
BRANCH   3  15
ATOM     15  C   UNL     1       4.134   5.155  19.336  0.00  0.00    +0.000 C 
ATOM     16  C   UNL     1       5.651   5.169  19.464  0.00  0.00    +0.000 C 
ATOM     17  C   UNL     1       6.147   4.906  18.075  0.00  0.00    +0.000 C 
ATOM     18  O   UNL     1       7.333   4.867  17.779  0.00  0.00    +0.000 OA
ATOM     19  N   UNL     1       5.089   4.717  17.231  0.00  0.00    +0.000 N 
ATOM     20  C   UNL     1       3.891   4.825  17.878  0.00  0.00    +0.000 C 
ATOM     21  O   UNL     1       2.777   4.753  17.371  0.00  0.00    +0.000 OA
BRANCH  19  22
ATOM     22  C   UNL     1       5.196   4.528  15.783  0.00  0.00    +0.000 C 
ATOM     23  C   UNL     1       5.437   5.856  15.061  0.00  0.00    +0.000 C 
ATOM     24  C   UNL     1       6.259   3.499  15.405  0.00  0.00    +0.000 C 
ENDBRANCH  19  22
ENDBRANCH   3  15
TORSDOF 4
ENDMDL
MODEL 2
REMARK VINA RESULT:      -6.6      1.430      1.625
REMARK  Name = 
REMARK  10 active torsions:
REMARK  status: ('A' for Active; 'I' for Inactive)
REMARK    1  A    between atoms: C_1  and  C_2
REMARK    2  A    between atoms: C_4  and  C_5
REMARK    3  A    between atoms: N_7  and  C_8
REMARK    4  A    between atoms: N_12  and  C_13
REMARK    5  A    between atoms: C_13  and  C_14
REMARK    6  A    between atoms: C_13  and  C_15
REMARK    7  A    between atoms: C_18  and  C_19
REMARK    8  A    between atoms: N_20  and  C_21
REMARK    9  A    between atoms: C_21  and  C_22
REMARK   10  A    between atoms: C_21  and  C_23
REMARK                            x       y       z     vdW  Elec       q    Type
REMARK                         _______ _______ _______ _____ _____    ______ ____
ROOT
ATOM      1  C   UNL     1       1.775   7.192  20.151  0.00  0.00    +0.000 C 
ATOM      2  O   UNL     1       1.444   6.132  20.677  0.00  0.00    +0.000 OA
ATOM      3  N   UNL     1       2.742   7.237  19.170  0.00  0.00    +0.000 N 
ATOM      4  H   UNL     1       2.747   8.051  18.563  0.00  0.00    +0.000 HD
ENDROOT
BRANCH   1   8
ATOM      5  C   UNL     1      -0.622  10.886  22.731  0.00  0.00    +0.000 C 
ATOM      6  C   UNL     1       0.100  10.137  21.666  0.00  0.00    +0.000 A 
ATOM      7  C   UNL     1       0.693   8.892  21.795  0.00  0.00    +0.000 A 
ATOM      8  C   UNL     1       1.197   8.486  20.531  0.00  0.00    +0.000 A 
ATOM      9  C   UNL     1       0.978   9.563  19.672  0.00  0.00    +0.000 A 
ATOM     10  C   UNL     1       1.383   9.680  18.237  0.00  0.00    +0.000 C 
ATOM     11  N   UNL     1       0.259  10.545  20.354  0.00  0.00    +0.000 N 
BRANCH  11  12
ATOM     12  C   UNL     1      -0.288  11.745  19.700  0.00  0.00    +0.000 C 
ATOM     13  C   UNL     1      -1.816  11.694  19.605  0.00  0.00    +0.000 C 
ATOM     14  C   UNL     1       0.169  13.097  20.253  0.00  0.00    +0.000 C 
ENDBRANCH  11  12
ENDBRANCH   1   8
BRANCH   3  15
ATOM     15  C   UNL     1       3.338   5.998  18.690  0.00  0.00    +0.000 C 
ATOM     16  C   UNL     1       4.158   5.263  19.740  0.00  0.00    +0.000 C 
ATOM     17  C   UNL     1       5.553   5.257  19.191  0.00  0.00    +0.000 C 
ATOM     18  O   UNL     1       6.506   4.766  19.779  0.00  0.00    +0.000 OA
ATOM     19  N   UNL     1       5.573   5.862  17.967  0.00  0.00    +0.000 N 
ATOM     20  C   UNL     1       4.336   6.304  17.591  0.00  0.00    +0.000 C 
ATOM     21  O   UNL     1       4.059   6.925  16.571  0.00  0.00    +0.000 OA
BRANCH  19  22
ATOM     22  C   UNL     1       6.781   6.118  17.179  0.00  0.00    +0.000 C 
ATOM     23  C   UNL     1       7.754   7.032  17.926  0.00  0.00    +0.000 C 
ATOM     24  C   UNL     1       7.470   4.830  16.734  0.00  0.00    +0.000 C 
ENDBRANCH  19  22
ENDBRANCH   3  15
TORSDOF 4
ENDMDL
MODEL 3
REMARK VINA RESULT:      -6.4      1.400      1.852
REMARK  Name = 
REMARK  10 active torsions:
REMARK  status: ('A' for Active; 'I' for Inactive)
REMARK    1  A    between atoms: C_1  and  C_2
REMARK    2  A    between atoms: C_4  and  C_5
REMARK    3  A    between atoms: N_7  and  C_8
REMARK    4  A    between atoms: N_12  and  C_13
REMARK    5  A    between atoms: C_13  and  C_14
REMARK    6  A    between atoms: C_13  and  C_15
REMARK    7  A    between atoms: C_18  and  C_19
REMARK    8  A    between atoms: N_20  and  C_21
REMARK    9  A    between atoms: C_21  and  C_22
REMARK   10  A    between atoms: C_21  and  C_23
REMARK                            x       y       z     vdW  Elec       q    Type
REMARK                         _______ _______ _______ _____ _____    ______ ____
ROOT
ATOM      1  C   UNL     1       1.970   7.090  20.005  0.00  0.00    +0.000 C 
ATOM      2  O   UNL     1       1.653   6.012  20.503  0.00  0.00    +0.000 OA
ATOM      3  N   UNL     1       2.981   7.182  19.073  0.00  0.00    +0.000 N 
ATOM      4  H   UNL     1       2.985   8.003  18.475  0.00  0.00    +0.000 HD
ENDROOT
BRANCH   1   8
ATOM      5  C   UNL     1      -0.481  10.736  22.602  0.00  0.00    +0.000 C 
ATOM      6  C   UNL     1       0.205   9.984  21.516  0.00  0.00    +0.000 A 
ATOM      7  C   UNL     1       0.901   8.794  21.653  0.00  0.00    +0.000 A 
ATOM      8  C   UNL     1       1.328   8.357  20.372  0.00  0.00    +0.000 A 
ATOM      9  C   UNL     1       0.957   9.368  19.484  0.00  0.00    +0.000 A 
ATOM     10  C   UNL     1       1.231   9.435  18.015  0.00  0.00    +0.000 C 
ATOM     11  N   UNL     1       0.224  10.330  20.177  0.00  0.00    +0.000 N 
BRANCH  11  12
ATOM     12  C   UNL     1      -0.467  11.450  19.516  0.00  0.00    +0.000 C 
ATOM     13  C   UNL     1       0.522  12.452  18.913  0.00  0.00    +0.000 C 
ATOM     14  C   UNL     1      -1.548  11.085  18.496  0.00  0.00    +0.000 C 
ENDBRANCH  11  12
ENDBRANCH   1   8
BRANCH   3  15
ATOM     15  C   UNL     1       3.644   5.972  18.608  0.00  0.00    +0.000 C 
ATOM     16  C   UNL     1       4.428   5.246  19.692  0.00  0.00    +0.000 C 
ATOM     17  C   UNL     1       5.851   5.294  19.222  0.00  0.00    +0.000 C 
ATOM     18  O   UNL     1       6.786   4.825  19.854  0.00  0.00    +0.000 OA
ATOM     19  N   UNL     1       5.918   5.921  18.009  0.00  0.00    +0.000 N 
ATOM     20  C   UNL     1       4.690   6.327  17.572  0.00  0.00    +0.000 C 
ATOM     21  O   UNL     1       4.450   6.957  16.547  0.00  0.00    +0.000 OA
BRANCH  19  22
ATOM     22  C   UNL     1       7.159   6.228  17.294  0.00  0.00    +0.000 C 
ATOM     23  C   UNL     1       7.111   5.727  15.849  0.00  0.00    +0.000 C 
ATOM     24  C   UNL     1       7.510   7.713  17.347  0.00  0.00    +0.000 C 
ENDBRANCH  19  22
ENDBRANCH   3  15
TORSDOF 4
ENDMDL
MODEL 4
REMARK VINA RESULT:      -6.4      2.697      7.489
REMARK  Name = 
REMARK  10 active torsions:
REMARK  status: ('A' for Active; 'I' for Inactive)
REMARK    1  A    between atoms: C_1  and  C_2
REMARK    2  A    between atoms: C_4  and  C_5
REMARK    3  A    between atoms: N_7  and  C_8
REMARK    4  A    between atoms: N_12  and  C_13
REMARK    5  A    between atoms: C_13  and  C_14
REMARK    6  A    between atoms: C_13  and  C_15
REMARK    7  A    between atoms: C_18  and  C_19
REMARK    8  A    between atoms: N_20  and  C_21
REMARK    9  A    between atoms: C_21  and  C_22
REMARK   10  A    between atoms: C_21  and  C_23
REMARK                            x       y       z     vdW  Elec       q    Type
REMARK                         _______ _______ _______ _____ _____    ______ ____
ROOT
ATOM      1  C   UNL     1       2.281   7.474  19.337  0.00  0.00    +0.000 C 
ATOM      2  O   UNL     1       2.985   8.033  18.499  0.00  0.00    +0.000 OA
ATOM      3  N   UNL     1       1.427   8.188  20.149  0.00  0.00    +0.000 N 
ATOM      4  H   UNL     1       0.661   7.677  20.577  0.00  0.00    +0.000 HD
ENDROOT
BRANCH   1   8
ATOM      5  C   UNL     1       1.633   2.852  21.401  0.00  0.00    +0.000 C 
ATOM      6  C   UNL     1       2.045   3.955  20.489  0.00  0.00    +0.000 A 
ATOM      7  C   UNL     1       1.611   5.269  20.540  0.00  0.00    +0.000 A 
ATOM      8  C   UNL     1       2.304   6.024  19.559  0.00  0.00    +0.000 A 
ATOM      9  C   UNL     1       3.086   5.106  18.856  0.00  0.00    +0.000 A 
ATOM     10  C   UNL     1       3.961   5.373  17.673  0.00  0.00    +0.000 C 
ATOM     11  N   UNL     1       2.968   3.857  19.462  0.00  0.00    +0.000 N 
BRANCH  11  12
ATOM     12  C   UNL     1       3.788   2.694  19.083  0.00  0.00    +0.000 C 
ATOM     13  C   UNL     1       4.584   2.147  20.272  0.00  0.00    +0.000 C 
ATOM     14  C   UNL     1       3.071   1.557  18.351  0.00  0.00    +0.000 C 
ENDBRANCH  11  12
ENDBRANCH   1   8
BRANCH   3  15
ATOM     15  C   UNL     1       1.296   9.627  19.970  0.00  0.00    +0.000 C 
ATOM     16  C   UNL     1       0.754  10.353  21.192  0.00  0.00    +0.000 C 
ATOM     17  C   UNL     1      -0.544  10.945  20.733  0.00  0.00    +0.000 C 
ATOM     18  O   UNL     1      -1.285  11.589  21.461  0.00  0.00    +0.000 OA
ATOM     19  N   UNL     1      -0.744  10.657  19.413  0.00  0.00    +0.000 N 
ATOM     20  C   UNL     1       0.277   9.917  18.887  0.00  0.00    +0.000 C 
ATOM     21  O   UNL     1       0.346   9.472  17.747  0.00  0.00    +0.000 OA
BRANCH  19  22
ATOM     22  C   UNL     1      -1.951  10.997  18.655  0.00  0.00    +0.000 C 
ATOM     23  C   UNL     1      -1.682  12.115  17.646  0.00  0.00    +0.000 C 
ATOM     24  C   UNL     1      -2.574   9.781  17.974  0.00  0.00    +0.000 C 
ENDBRANCH  19  22
ENDBRANCH   3  15
TORSDOF 4
ENDMDL
MODEL 5
REMARK VINA RESULT:      -6.3      1.908      2.382
REMARK  Name = 
REMARK  10 active torsions:
REMARK  status: ('A' for Active; 'I' for Inactive)
REMARK    1  A    between atoms: C_1  and  C_2
REMARK    2  A    between atoms: C_4  and  C_5
REMARK    3  A    between atoms: N_7  and  C_8
REMARK    4  A    between atoms: N_12  and  C_13
REMARK    5  A    between atoms: C_13  and  C_14
REMARK    6  A    between atoms: C_13  and  C_15
REMARK    7  A    between atoms: C_18  and  C_19
REMARK    8  A    between atoms: N_20  and  C_21
REMARK    9  A    between atoms: C_21  and  C_22
REMARK   10  A    between atoms: C_21  and  C_23
REMARK                            x       y       z     vdW  Elec       q    Type
REMARK                         _______ _______ _______ _____ _____    ______ ____
ROOT
ATOM      1  C   UNL     1       1.843   7.929  18.902  0.00  0.00    +0.000 C 
ATOM      2  O   UNL     1       1.608   8.101  17.708  0.00  0.00    +0.000 OA
ATOM      3  N   UNL     1       2.576   6.848  19.342  0.00  0.00    +0.000 N 
ATOM      4  H   UNL     1       3.003   6.921  20.260  0.00  0.00    +0.000 HD
ENDROOT
BRANCH   1   8
ATOM      5  C   UNL     1      -0.152   9.719  23.244  0.00  0.00    +0.000 C 
ATOM      6  C   UNL     1       0.433   9.640  21.878  0.00  0.00    +0.000 A 
ATOM      7  C   UNL     1       0.991   8.518  21.287  0.00  0.00    +0.000 A 
ATOM      8  C   UNL     1       1.352   8.830  19.950  0.00  0.00    +0.000 A 
ATOM      9  C   UNL     1       1.086  10.191  19.794  0.00  0.00    +0.000 A 
ATOM     10  C   UNL     1       1.349  11.037  18.588  0.00  0.00    +0.000 C 
ATOM     11  N   UNL     1       0.474  10.667  20.952  0.00  0.00    +0.000 N 
BRANCH  11  12
ATOM     12  C   UNL     1      -0.094  12.021  21.068  0.00  0.00    +0.000 C 
ATOM     13  C   UNL     1       0.986  13.102  20.964  0.00  0.00    +0.000 C 
ATOM     14  C   UNL     1      -1.273  12.352  20.150  0.00  0.00    +0.000 C 
ENDBRANCH  11  12
ENDBRANCH   1   8
BRANCH   3  15
ATOM     15  C   UNL     1       3.149   5.924  18.372  0.00  0.00    +0.000 C 
ATOM     16  C   UNL     1       3.373   4.521  18.917  0.00  0.00    +0.000 C 
ATOM     17  C   UNL     1       4.857   4.323  18.845  0.00  0.00    +0.000 C 
ATOM     18  O   UNL     1       5.420   3.306  19.225  0.00  0.00    +0.000 OA
ATOM     19  N   UNL     1       5.447   5.427  18.298  0.00  0.00    +0.000 N 
ATOM     20  C   UNL     1       4.535   6.392  17.978  0.00  0.00    +0.000 C 
ATOM     21  O   UNL     1       4.776   7.504  17.521  0.00  0.00    +0.000 OA
BRANCH  19  22
ATOM     22  C   UNL     1       6.892   5.622  18.159  0.00  0.00    +0.000 C 
ATOM     23  C   UNL     1       7.582   5.686  19.524  0.00  0.00    +0.000 C 
ATOM     24  C   UNL     1       7.540   4.567  17.267  0.00  0.00    +0.000 C 
ENDBRANCH  19  22
ENDBRANCH   3  15
TORSDOF 4
ENDMDL
MODEL 6
REMARK VINA RESULT:      -6.3      1.479      1.895
REMARK  Name = 
REMARK  10 active torsions:
REMARK  status: ('A' for Active; 'I' for Inactive)
REMARK    1  A    between atoms: C_1  and  C_2
REMARK    2  A    between atoms: C_4  and  C_5
REMARK    3  A    between atoms: N_7  and  C_8
REMARK    4  A    between atoms: N_12  and  C_13
REMARK    5  A    between atoms: C_13  and  C_14
REMARK    6  A    between atoms: C_13  and  C_15
REMARK    7  A    between atoms: C_18  and  C_19
REMARK    8  A    between atoms: N_20  and  C_21
REMARK    9  A    between atoms: C_21  and  C_22
REMARK   10  A    between atoms: C_21  and  C_23
REMARK                            x       y       z     vdW  Elec       q    Type
REMARK                         _______ _______ _______ _____ _____    ______ ____
ROOT
ATOM      1  C   UNL     1       2.693   6.486  19.401  0.00  0.00    +0.000 C 
ATOM      2  O   UNL     1       3.677   6.055  19.998  0.00  0.00    +0.000 OA
ATOM      3  N   UNL     1       2.260   5.916  18.223  0.00  0.00    +0.000 N 
ATOM      4  H   UNL     1       1.296   6.088  17.954  0.00  0.00    +0.000 HD
ENDROOT
BRANCH   1   8
ATOM      5  C   UNL     1      -0.380   9.500  22.143  0.00  0.00    +0.000 C 
ATOM      6  C   UNL     1       0.521   8.987  21.074  0.00  0.00    +0.000 A 
ATOM      7  C   UNL     1       1.262   7.817  21.116  0.00  0.00    +0.000 A 
ATOM      8  C   UNL     1       1.918   7.640  19.870  0.00  0.00    +0.000 A 
ATOM      9  C   UNL     1       1.629   8.783  19.124  0.00  0.00    +0.000 A 
ATOM     10  C   UNL     1       2.132   9.130  17.759  0.00  0.00    +0.000 C 
ATOM     11  N   UNL     1       0.733   9.575  19.840  0.00  0.00    +0.000 N 
BRANCH  11  12
ATOM     12  C   UNL     1       0.086  10.773  19.279  0.00  0.00    +0.000 C 
ATOM     13  C   UNL     1      -1.355  10.490  18.844  0.00  0.00    +0.000 C 
ATOM     14  C   UNL     1       0.150  12.048  20.124  0.00  0.00    +0.000 C 
ENDBRANCH  11  12
ENDBRANCH   1   8
BRANCH   3  15
ATOM     15  C   UNL     1       2.934   4.734  17.705  0.00  0.00    +0.000 C 
ATOM     16  C   UNL     1       3.112   3.627  18.733  0.00  0.00    +0.000 C 
ATOM     17  C   UNL     1       4.596   3.479  18.874  0.00  0.00    +0.000 C 
ATOM     18  O   UNL     1       5.125   2.688  19.642  0.00  0.00    +0.000 OA
ATOM     19  N   UNL     1       5.231   4.341  18.026  0.00  0.00    +0.000 N 
ATOM     20  C   UNL     1       4.350   5.090  17.300  0.00  0.00    +0.000 C 
ATOM     21  O   UNL     1       4.629   5.976  16.500  0.00  0.00    +0.000 OA
BRANCH  19  22
ATOM     22  C   UNL     1       6.682   4.535  17.961  0.00  0.00    +0.000 C 
ATOM     23  C   UNL     1       7.186   4.505  16.516  0.00  0.00    +0.000 C 
ATOM     24  C   UNL     1       7.132   5.808  18.672  0.00  0.00    +0.000 C 
ENDBRANCH  19  22
ENDBRANCH   3  15
TORSDOF 4
ENDMDL
MODEL 7
REMARK VINA RESULT:      -6.3      1.854      2.583
REMARK  Name = 
REMARK  10 active torsions:
REMARK  status: ('A' for Active; 'I' for Inactive)
REMARK    1  A    between atoms: C_1  and  C_2
REMARK    2  A    between atoms: C_4  and  C_5
REMARK    3  A    between atoms: N_7  and  C_8
REMARK    4  A    between atoms: N_12  and  C_13
REMARK    5  A    between atoms: C_13  and  C_14
REMARK    6  A    between atoms: C_13  and  C_15
REMARK    7  A    between atoms: C_18  and  C_19
REMARK    8  A    between atoms: N_20  and  C_21
REMARK    9  A    between atoms: C_21  and  C_22
REMARK   10  A    between atoms: C_21  and  C_23
REMARK                            x       y       z     vdW  Elec       q    Type
REMARK                         _______ _______ _______ _____ _____    ______ ____
ROOT
ATOM      1  C   UNL     1       1.944   8.239  18.544  0.00  0.00    +0.000 C 
ATOM      2  O   UNL     1       1.957   8.697  17.404  0.00  0.00    +0.000 OA
ATOM      3  N   UNL     1       2.371   6.956  18.808  0.00  0.00    +0.000 N 
ATOM      4  H   UNL     1       2.638   6.745  19.765  0.00  0.00    +0.000 HD
ENDROOT
BRANCH   1   8
ATOM      5  C   UNL     1       0.106   9.451  23.148  0.00  0.00    +0.000 C 
ATOM      6  C   UNL     1       0.607   9.547  21.750  0.00  0.00    +0.000 A 
ATOM      7  C   UNL     1       1.206   8.533  21.020  0.00  0.00    +0.000 A 
ATOM      8  C   UNL     1       1.457   8.997  19.702  0.00  0.00    +0.000 A 
ATOM      9  C   UNL     1       1.085  10.342  19.697  0.00  0.00    +0.000 A 
ATOM     10  C   UNL     1       1.210  11.316  18.569  0.00  0.00    +0.000 C 
ATOM     11  N   UNL     1       0.516  10.657  20.930  0.00  0.00    +0.000 N 
BRANCH  11  12
ATOM     12  C   UNL     1      -0.139  11.946  21.211  0.00  0.00    +0.000 C 
ATOM     13  C   UNL     1       0.844  13.117  21.113  0.00  0.00    +0.000 C 
ATOM     14  C   UNL     1      -1.417  12.253  20.427  0.00  0.00    +0.000 C 
ENDBRANCH  11  12
ENDBRANCH   1   8
BRANCH   3  15
ATOM     15  C   UNL     1       2.919   6.144  17.731  0.00  0.00    +0.000 C 
ATOM     16  C   UNL     1       2.595   4.662  17.852  0.00  0.00    +0.000 C 
ATOM     17  C   UNL     1       3.928   3.996  18.008  0.00  0.00    +0.000 C 
ATOM     18  O   UNL     1       4.067   2.791  18.158  0.00  0.00    +0.000 OA
ATOM     19  N   UNL     1       4.923   4.931  17.949  0.00  0.00    +0.000 N 
ATOM     20  C   UNL     1       4.432   6.193  17.772  0.00  0.00    +0.000 C 
ATOM     21  O   UNL     1       5.083   7.232  17.733  0.00  0.00    +0.000 OA
BRANCH  19  22
ATOM     22  C   UNL     1       6.346   4.653  18.157  0.00  0.00    +0.000 C 
ATOM     23  C   UNL     1       7.134   4.764  16.850  0.00  0.00    +0.000 C 
ATOM     24  C   UNL     1       6.961   5.533  19.243  0.00  0.00    +0.000 C 
ENDBRANCH  19  22
ENDBRANCH   3  15
TORSDOF 4
ENDMDL
MODEL 8
REMARK VINA RESULT:      -6.2      2.331      3.315
REMARK  Name = 
REMARK  10 active torsions:
REMARK  status: ('A' for Active; 'I' for Inactive)
REMARK    1  A    between atoms: C_1  and  C_2
REMARK    2  A    between atoms: C_4  and  C_5
REMARK    3  A    between atoms: N_7  and  C_8
REMARK    4  A    between atoms: N_12  and  C_13
REMARK    5  A    between atoms: C_13  and  C_14
REMARK    6  A    between atoms: C_13  and  C_15
REMARK    7  A    between atoms: C_18  and  C_19
REMARK    8  A    between atoms: N_20  and  C_21
REMARK    9  A    between atoms: C_21  and  C_22
REMARK   10  A    between atoms: C_21  and  C_23
REMARK                            x       y       z     vdW  Elec       q    Type
REMARK                         _______ _______ _______ _____ _____    ______ ____
ROOT
ATOM      1  C   UNL     1       1.760   8.347  18.886  0.00  0.00    +0.000 C 
ATOM      2  O   UNL     1       1.917   8.679  17.713  0.00  0.00    +0.000 OA
ATOM      3  N   UNL     1       2.115   7.092  19.331  0.00  0.00    +0.000 N 
ATOM      4  H   UNL     1       2.266   6.980  20.329  0.00  0.00    +0.000 HD
ENDROOT
BRANCH   1   8
ATOM      5  C   UNL     1      -0.573  10.080  23.081  0.00  0.00    +0.000 C 
ATOM      6  C   UNL     1       0.100  10.016  21.754  0.00  0.00    +0.000 A 
ATOM      7  C   UNL     1       0.737   8.914  21.208  0.00  0.00    +0.000 A 
ATOM      8  C   UNL     1       1.169   9.234  19.895  0.00  0.00    +0.000 A 
ATOM      9  C   UNL     1       0.863  10.583  19.712  0.00  0.00    +0.000 A 
ATOM     10  C   UNL     1       1.170  11.433  18.520  0.00  0.00    +0.000 C 
ATOM     11  N   UNL     1       0.162  11.041  20.826  0.00  0.00    +0.000 N 
BRANCH  11  12
ATOM     12  C   UNL     1      -0.463  12.372  20.897  0.00  0.00    +0.000 C 
ATOM     13  C   UNL     1      -1.969  12.310  20.623  0.00  0.00    +0.000 C 
ATOM     14  C   UNL     1      -0.181  13.198  22.155  0.00  0.00    +0.000 C 
ENDBRANCH  11  12
ENDBRANCH   1   8
BRANCH   3  15
ATOM     15  C   UNL     1       2.755   6.158  18.415  0.00  0.00    +0.000 C 
ATOM     16  C   UNL     1       1.780   5.248  17.683  0.00  0.00    +0.000 C 
ATOM     17  C   UNL     1       2.140   3.866  18.139  0.00  0.00    +0.000 C 
ATOM     18  O   UNL     1       1.548   2.861  17.774  0.00  0.00    +0.000 OA
ATOM     19  N   UNL     1       3.206   3.922  18.992  0.00  0.00    +0.000 N 
ATOM     20  C   UNL     1       3.637   5.203  19.193  0.00  0.00    +0.000 C 
ATOM     21  O   UNL     1       4.538   5.561  19.943  0.00  0.00    +0.000 OA
BRANCH  19  22
ATOM     22  C   UNL     1       3.769   2.773  19.704  0.00  0.00    +0.000 C 
ATOM     23  C   UNL     1       2.995   2.477  20.991  0.00  0.00    +0.000 C 
ATOM     24  C   UNL     1       3.863   1.529  18.823  0.00  0.00    +0.000 C 
ENDBRANCH  19  22
ENDBRANCH   3  15
TORSDOF 4
ENDMDL
MODEL 9
REMARK VINA RESULT:      -6.2      1.809      2.239
REMARK  Name = 
REMARK  10 active torsions:
REMARK  status: ('A' for Active; 'I' for Inactive)
REMARK    1  A    between atoms: C_1  and  C_2
REMARK    2  A    between atoms: C_4  and  C_5
REMARK    3  A    between atoms: N_7  and  C_8
REMARK    4  A    between atoms: N_12  and  C_13
REMARK    5  A    between atoms: C_13  and  C_14
REMARK    6  A    between atoms: C_13  and  C_15
REMARK    7  A    between atoms: C_18  and  C_19
REMARK    8  A    between atoms: N_20  and  C_21
REMARK    9  A    between atoms: C_21  and  C_22
REMARK   10  A    between atoms: C_21  and  C_23
REMARK                            x       y       z     vdW  Elec       q    Type
REMARK                         _______ _______ _______ _____ _____    ______ ____
ROOT
ATOM      1  C   UNL     1       2.039   7.411  18.790  0.00  0.00    +0.000 C 
ATOM      2  O   UNL     1       1.857   7.458  17.576  0.00  0.00    +0.000 OA
ATOM      3  N   UNL     1       2.694   6.351  19.379  0.00  0.00    +0.000 N 
ATOM      4  H   UNL     1       3.092   6.507  20.300  0.00  0.00    +0.000 HD
ENDROOT
BRANCH   1   8
ATOM      5  C   UNL     1       0.078   9.792  22.856  0.00  0.00    +0.000 C 
ATOM      6  C   UNL     1       0.658   9.523  21.512  0.00  0.00    +0.000 A 
ATOM      7  C   UNL     1       1.201   8.325  21.076  0.00  0.00    +0.000 A 
ATOM      8  C   UNL     1       1.562   8.451  19.709  0.00  0.00    +0.000 A 
ATOM      9  C   UNL     1       1.314   9.782  19.372  0.00  0.00    +0.000 A 
ATOM     10  C   UNL     1       1.585  10.456  18.065  0.00  0.00    +0.000 C 
ATOM     11  N   UNL     1       0.711  10.417  20.457  0.00  0.00    +0.000 N 
BRANCH  11  12
ATOM     12  C   UNL     1       0.161  11.781  20.392  0.00  0.00    +0.000 C 
ATOM     13  C   UNL     1      -1.370  11.779  20.408  0.00  0.00    +0.000 C 
ATOM     14  C   UNL     1       0.706  12.791  21.406  0.00  0.00    +0.000 C 
ENDBRANCH  11  12
ENDBRANCH   1   8
BRANCH   3  15
ATOM     15  C   UNL     1       3.249   5.295  18.544  0.00  0.00    +0.000 C 
ATOM     16  C   UNL     1       3.301   3.935  19.226  0.00  0.00    +0.000 C 
ATOM     17  C   UNL     1       4.761   3.604  19.294  0.00  0.00    +0.000 C 
ATOM     18  O   UNL     1       5.197   2.584  19.805  0.00  0.00    +0.000 OA
ATOM     19  N   UNL     1       5.490   4.597  18.702  0.00  0.00    +0.000 N 
ATOM     20  C   UNL     1       4.697   5.602  18.225  0.00  0.00    +0.000 C 
ATOM     21  O   UNL     1       5.074   6.641  17.694  0.00  0.00    +0.000 OA
BRANCH  19  22
ATOM     22  C   UNL     1       6.953   4.653  18.666  0.00  0.00    +0.000 C 
ATOM     23  C   UNL     1       7.480   4.598  17.230  0.00  0.00    +0.000 C 
ATOM     24  C   UNL     1       7.509   5.866  19.407  0.00  0.00    +0.000 C 
ENDBRANCH  19  22
ENDBRANCH   3  15
TORSDOF 4
ENDMDL
