MODEL 1
REMARK VINA RESULT:      -8.5      0.000      0.000
REMARK  Name = 
REMARK  8 active torsions:
REMARK  status: ('A' for Active; 'I' for Inactive)
REMARK    1  A    between atoms: C_1  and  C_2
REMARK    2  A    between atoms: C_2  and  C_3
REMARK    3  A    between atoms: C_3  and  C_4
REMARK    4  A    between atoms: C_11  and  O_12
REMARK    5  A    between atoms: O_12  and  C_13
REMARK    6  A    between atoms: C_13  and  C_15
REMARK    7  A    between atoms: C_25  and  C_26
REMARK    8  A    between atoms: C_25  and  C_27
REMARK                            x       y       z     vdW  Elec       q    Type
REMARK                         _______ _______ _______ _____ _____    ______ ____
ROOT
ATOM      1  C   UNL     1       6.812   4.627  18.197  0.00  0.00    +0.000 A 
ATOM      2  C   UNL     1       7.097   4.132  16.969  0.00  0.00    +0.000 A 
ATOM      3  C   UNL     1       6.649   5.214  16.028  0.00  0.00    +0.000 A 
ATOM      4  O   UNL     1       7.346   6.046  15.471  0.00  0.00    +0.000 OA
ATOM      5  O   UNL     1       5.317   5.197  15.893  0.00  0.00    +0.000 OA
ATOM      6  C   UNL     1       4.786   5.522  17.140  0.00  0.00    +0.000 A 
ATOM      7  C   UNL     1       3.651   6.286  16.991  0.00  0.00    +0.000 A 
ATOM      8  C   UNL     1       2.856   6.502  18.085  0.00  0.00    +0.000 A 
ATOM      9  C   UNL     1       2.963   5.628  19.168  0.00  0.00    +0.000 A 
ATOM     10  C   UNL     1       4.079   4.728  19.244  0.00  0.00    +0.000 A 
ATOM     11  C   UNL     1       5.235   4.958  18.348  0.00  0.00    +0.000 A 
ATOM     12  O   UNL     1       3.829   3.542  20.003  0.00  0.00    +0.000 OA
ATOM     13  C   UNL     1       2.393   3.186  20.386  0.00  0.00    +0.000 C 
ATOM     14  C   UNL     1       1.736   2.131  19.460  0.00  0.00    +0.000 C 
ATOM     15  C   UNL     1       2.303   2.596  21.817  0.00  0.00    +0.000 C 
ATOM     16  C   UNL     1       1.461   4.374  20.487  0.00  0.00    +0.000 C 
ATOM     17  C   UNL     1       1.803   5.564  20.037  0.00  0.00    +0.000 C 
ENDROOT
BRANCH   1  18
ATOM     18  C   UNL     1       8.050   5.666  18.551  0.00  0.00    +0.000 C 
BRANCH  18  20
ATOM     19  C   UNL     1       7.954   8.405  17.640  0.00  0.00    +0.000 C 
ATOM     20  C   UNL     1       7.901   7.317  18.749  0.00  0.00    +0.000 C 
ENDBRANCH  18  20
ENDBRANCH   1  18
BRANCH   8  21
ATOM     21  O   UNL     1       1.789   7.387  17.942  0.00  0.00    +0.000 OA
BRANCH  21  22
ATOM     22  C   UNL     1       2.205   8.688  18.163  0.00  0.00    +0.000 C 
ATOM     23  O   UNL     1       3.095   9.313  17.611  0.00  0.00    +0.000 OA
BRANCH  22  24
ATOM     24  C   UNL     1       1.253   9.301  19.084  0.00  0.00    +0.000 A 
ATOM     25  C   UNL     1       0.377  10.275  18.600  0.00  0.00    +0.000 A 
ATOM     26  C   UNL     1      -0.499  10.892  19.480  0.00  0.00    +0.000 A 
ATOM     27  C   UNL     1      -0.498  10.529  20.839  0.00  0.00    +0.000 A 
ATOM     28  C   UNL     1       0.391   9.551  21.308  0.00  0.00    +0.000 A 
ATOM     29  C   UNL     1       1.256   8.929  20.426  0.00  0.00    +0.000 A 
ENDBRANCH  22  24
ENDBRANCH  21  22
ENDBRANCH   8  21
TORSDOF 5
ENDMDL
MODEL 2
REMARK VINA RESULT:      -8.2      0.959      1.135
REMARK  Name = 
REMARK  8 active torsions:
REMARK  status: ('A' for Active; 'I' for Inactive)
REMARK    1  A    between atoms: C_1  and  C_2
REMARK    2  A    between atoms: C_2  and  C_3
REMARK    3  A    between atoms: C_3  and  C_4
REMARK    4  A    between atoms: C_11  and  O_12
REMARK    5  A    between atoms: O_12  and  C_13
REMARK    6  A    between atoms: C_13  and  C_15
REMARK    7  A    between atoms: C_25  and  C_26
REMARK    8  A    between atoms: C_25  and  C_27
REMARK                            x       y       z     vdW  Elec       q    Type
REMARK                         _______ _______ _______ _____ _____    ______ ____
ROOT
ATOM      1  C   UNL     1       6.091   4.274  17.680  0.00  0.00    +0.000 A 
ATOM      2  C   UNL     1       6.073   4.204  16.328  0.00  0.00    +0.000 A 
ATOM      3  C   UNL     1       5.883   5.629  15.893  0.00  0.00    +0.000 A 
ATOM      4  O   UNL     1       6.738   6.403  15.494  0.00  0.00    +0.000 OA
ATOM      5  O   UNL     1       4.605   5.998  16.042  0.00  0.00    +0.000 OA
ATOM      6  C   UNL     1       4.338   5.971  17.410  0.00  0.00    +0.000 A 
ATOM      7  C   UNL     1       3.487   6.997  17.751  0.00  0.00    +0.000 A 
ATOM      8  C   UNL     1       2.921   6.993  18.999  0.00  0.00    +0.000 A 
ATOM      9  C   UNL     1       2.870   5.789  19.703  0.00  0.00    +0.000 A 
ATOM     10  C   UNL     1       3.654   4.673  19.255  0.00  0.00    +0.000 A 
ATOM     11  C   UNL     1       4.719   4.914  18.255  0.00  0.00    +0.000 A 
ATOM     12  O   UNL     1       3.134   3.396  19.635  0.00  0.00    +0.000 OA
ATOM     13  C   UNL     1       1.708   3.300  20.178  0.00  0.00    +0.000 C 
ATOM     14  C   UNL     1       0.660   2.855  19.126  0.00  0.00    +0.000 C 
ATOM     15  C   UNL     1       1.597   2.273  21.335  0.00  0.00    +0.000 C 
ATOM     16  C   UNL     1       1.206   4.562  20.843  0.00  0.00    +0.000 C 
ATOM     17  C   UNL     1       1.848   5.707  20.731  0.00  0.00    +0.000 C 
ENDROOT
BRANCH   1  18
ATOM     18  C   UNL     1       7.620   4.766  18.077  0.00  0.00    +0.000 C 
BRANCH  18  20
ATOM     19  C   UNL     1       8.127   7.597  18.329  0.00  0.00    +0.000 C 
ATOM     20  C   UNL     1       8.003   6.161  18.909  0.00  0.00    +0.000 C 
ENDBRANCH  18  20
ENDBRANCH   1  18
BRANCH   8  21
ATOM     21  O   UNL     1       2.171   8.107  19.371  0.00  0.00    +0.000 OA
BRANCH  21  22
ATOM     22  C   UNL     1       1.824   8.851  18.256  0.00  0.00    +0.000 C 
ATOM     23  O   UNL     1       2.272   8.791  17.124  0.00  0.00    +0.000 OA
BRANCH  22  24
ATOM     24  C   UNL     1       0.649   9.643  18.608  0.00  0.00    +0.000 A 
ATOM     25  C   UNL     1      -0.376   9.783  17.670  0.00  0.00    +0.000 A 
ATOM     26  C   UNL     1      -1.473  10.570  17.983  0.00  0.00    +0.000 A 
ATOM     27  C   UNL     1      -1.543  11.210  19.233  0.00  0.00    +0.000 A 
ATOM     28  C   UNL     1      -0.503  11.060  20.162  0.00  0.00    +0.000 A 
ATOM     29  C   UNL     1       0.586  10.265  19.852  0.00  0.00    +0.000 A 
ENDBRANCH  22  24
ENDBRANCH  21  22
ENDBRANCH   8  21
TORSDOF 5
ENDMDL
MODEL 3
REMARK VINA RESULT:      -8.1      1.053      1.201
REMARK  Name = 
REMARK  8 active torsions:
REMARK  status: ('A' for Active; 'I' for Inactive)
REMARK    1  A    between atoms: C_1  and  C_2
REMARK    2  A    between atoms: C_2  and  C_3
REMARK    3  A    between atoms: C_3  and  C_4
REMARK    4  A    between atoms: C_11  and  O_12
REMARK    5  A    between atoms: O_12  and  C_13
REMARK    6  A    between atoms: C_13  and  C_15
REMARK    7  A    between atoms: C_25  and  C_26
REMARK    8  A    between atoms: C_25  and  C_27
REMARK                            x       y       z     vdW  Elec       q    Type
REMARK                         _______ _______ _______ _____ _____    ______ ____
ROOT
ATOM      1  C   UNL     1       6.337   4.384  17.888  0.00  0.00    +0.000 A 
ATOM      2  C   UNL     1       6.385   4.073  16.571  0.00  0.00    +0.000 A 
ATOM      3  C   UNL     1       6.031   5.359  15.880  0.00  0.00    +0.000 A 
ATOM      4  O   UNL     1       6.795   6.156  15.362  0.00  0.00    +0.000 OA
ATOM      5  O   UNL     1       4.711   5.573  15.936  0.00  0.00    +0.000 OA
ATOM      6  C   UNL     1       4.392   5.754  17.281  0.00  0.00    +0.000 A 
ATOM      7  C   UNL     1       3.402   6.700  17.414  0.00  0.00    +0.000 A 
ATOM      8  C   UNL     1       2.789   6.843  18.631  0.00  0.00    +0.000 A 
ATOM      9  C   UNL     1       2.864   5.788  19.541  0.00  0.00    +0.000 A 
ATOM     10  C   UNL     1       3.804   4.726  19.319  0.00  0.00    +0.000 A 
ATOM     11  C   UNL     1       4.871   4.926  18.312  0.00  0.00    +0.000 A 
ATOM     12  O   UNL     1       3.437   3.480  19.916  0.00  0.00    +0.000 OA
ATOM     13  C   UNL     1       2.014   3.290  20.441  0.00  0.00    +0.000 C 
ATOM     14  C   UNL     1       1.078   2.528  19.469  0.00  0.00    +0.000 C 
ATOM     15  C   UNL     1       1.987   2.481  21.764  0.00  0.00    +0.000 C 
ATOM     16  C   UNL     1       1.326   4.572  20.855  0.00  0.00    +0.000 C 
ATOM     17  C   UNL     1       1.819   5.754  20.548  0.00  0.00    +0.000 C 
ENDROOT
BRANCH   1  18
ATOM     18  C   UNL     1       7.771   5.141  18.216  0.00  0.00    +0.000 C 
BRANCH  18  20
ATOM     19  C   UNL     1       7.886   8.005  17.870  0.00  0.00    +0.000 C 
ATOM     20  C   UNL     1       7.937   6.717  18.739  0.00  0.00    +0.000 C 
ENDBRANCH  18  20
ENDBRANCH   1  18
BRANCH   8  21
ATOM     21  O   UNL     1       1.886   7.894  18.779  0.00  0.00    +0.000 OA
BRANCH  21  22
ATOM     22  C   UNL     1       2.218   8.940  17.935  0.00  0.00    +0.000 C 
ATOM     23  O   UNL     1       3.007   8.955  17.005  0.00  0.00    +0.000 OA
BRANCH  22  24
ATOM     24  C   UNL     1       1.301  10.039  18.220  0.00  0.00    +0.000 A 
ATOM     25  C   UNL     1       1.828  11.301  18.506  0.00  0.00    +0.000 A 
ATOM     26  C   UNL     1       0.963  12.337  18.820  0.00  0.00    +0.000 A 
ATOM     27  C   UNL     1      -0.425  12.109  18.844  0.00  0.00    +0.000 A 
ATOM     28  C   UNL     1      -0.936  10.836  18.557  0.00  0.00    +0.000 A 
ATOM     29  C   UNL     1      -0.071   9.806  18.232  0.00  0.00    +0.000 A 
ENDBRANCH  22  24
ENDBRANCH  21  22
ENDBRANCH   8  21
TORSDOF 5
ENDMDL
MODEL 4
REMARK VINA RESULT:      -7.9      0.846      1.014
REMARK  Name = 
REMARK  8 active torsions:
REMARK  status: ('A' for Active; 'I' for Inactive)
REMARK    1  A    between atoms: C_1  and  C_2
REMARK    2  A    between atoms: C_2  and  C_3
REMARK    3  A    between atoms: C_3  and  C_4
REMARK    4  A    between atoms: C_11  and  O_12
REMARK    5  A    between atoms: O_12  and  C_13
REMARK    6  A    between atoms: C_13  and  C_15
REMARK    7  A    between atoms: C_25  and  C_26
REMARK    8  A    between atoms: C_25  and  C_27
REMARK                            x       y       z     vdW  Elec       q    Type
REMARK                         _______ _______ _______ _____ _____    ______ ____
ROOT
ATOM      1  C   UNL     1       6.802   5.185  18.525  0.00  0.00    +0.000 A 
ATOM      2  C   UNL     1       7.179   4.621  17.353  0.00  0.00    +0.000 A 
ATOM      3  C   UNL     1       6.753   5.620  16.316  0.00  0.00    +0.000 A 
ATOM      4  O   UNL     1       7.452   6.440  15.745  0.00  0.00    +0.000 OA
ATOM      5  O   UNL     1       5.433   5.541  16.104  0.00  0.00    +0.000 OA
ATOM      6  C   UNL     1       4.814   5.927  17.291  0.00  0.00    +0.000 A 
ATOM      7  C   UNL     1       3.665   6.635  17.023  0.00  0.00    +0.000 A 
ATOM      8  C   UNL     1       2.796   6.891  18.051  0.00  0.00    +0.000 A 
ATOM      9  C   UNL     1       2.867   6.097  19.196  0.00  0.00    +0.000 A 
ATOM     10  C   UNL     1       4.007   5.248  19.400  0.00  0.00    +0.000 A 
ATOM     11  C   UNL     1       5.207   5.463  18.559  0.00  0.00    +0.000 A 
ATOM     12  O   UNL     1       3.753   4.106  20.221  0.00  0.00    +0.000 OA
ATOM     13  C   UNL     1       2.309   3.720  20.542  0.00  0.00    +0.000 C 
ATOM     14  C   UNL     1       1.748   2.581  19.653  0.00  0.00    +0.000 C 
ATOM     15  C   UNL     1       2.152   3.223  22.003  0.00  0.00    +0.000 C 
ATOM     16  C   UNL     1       1.331   4.874  20.507  0.00  0.00    +0.000 C 
ATOM     17  C   UNL     1       1.658   6.044  19.997  0.00  0.00    +0.000 C 
ENDROOT
BRANCH   1  18
ATOM     18  C   UNL     1       7.978   6.294  18.881  0.00  0.00    +0.000 C 
BRANCH  18  20
ATOM     19  C   UNL     1       8.870   9.039  18.829  0.00  0.00    +0.000 C 
ATOM     20  C   UNL     1       8.078   7.835  18.248  0.00  0.00    +0.000 C 
ENDBRANCH  18  20
ENDBRANCH   1  18
BRANCH   8  21
ATOM     21  O   UNL     1       1.710   7.722  17.785  0.00  0.00    +0.000 OA
BRANCH  21  22
ATOM     22  C   UNL     1       2.059   9.049  17.963  0.00  0.00    +0.000 C 
ATOM     23  O   UNL     1       3.107   9.610  17.688  0.00  0.00    +0.000 OA
BRANCH  22  24
ATOM     24  C   UNL     1       0.859   9.764  18.388  0.00  0.00    +0.000 A 
ATOM     25  C   UNL     1      -0.355   9.478  17.759  0.00  0.00    +0.000 A 
ATOM     26  C   UNL     1      -1.488  10.186  18.130  0.00  0.00    +0.000 A 
ATOM     27  C   UNL     1      -1.403  11.172  19.129  0.00  0.00    +0.000 A 
ATOM     28  C   UNL     1      -0.175  11.447  19.748  0.00  0.00    +0.000 A 
ATOM     29  C   UNL     1       0.952  10.732  19.385  0.00  0.00    +0.000 A 
ENDBRANCH  22  24
ENDBRANCH  21  22
ENDBRANCH   8  21
TORSDOF 5
ENDMDL
MODEL 5
REMARK VINA RESULT:      -7.7      1.588      6.306
REMARK  Name = 
REMARK  8 active torsions:
REMARK  status: ('A' for Active; 'I' for Inactive)
REMARK    1  A    between atoms: C_1  and  C_2
REMARK    2  A    between atoms: C_2  and  C_3
REMARK    3  A    between atoms: C_3  and  C_4
REMARK    4  A    between atoms: C_11  and  O_12
REMARK    5  A    between atoms: O_12  and  C_13
REMARK    6  A    between atoms: C_13  and  C_15
REMARK    7  A    between atoms: C_25  and  C_26
REMARK    8  A    between atoms: C_25  and  C_27
REMARK                            x       y       z     vdW  Elec       q    Type
REMARK                         _______ _______ _______ _____ _____    ______ ____
ROOT
ATOM      1  C   UNL     1       1.352   4.045  20.541  0.00  0.00    +0.000 A 
ATOM      2  C   UNL     1       0.384   3.228  20.062  0.00  0.00    +0.000 A 
ATOM      3  C   UNL     1       1.086   2.408  19.018  0.00  0.00    +0.000 A 
ATOM      4  O   UNL     1       1.508   1.268  19.129  0.00  0.00    +0.000 OA
ATOM      5  O   UNL     1       1.252   3.120  17.896  0.00  0.00    +0.000 OA
ATOM      6  C   UNL     1       2.115   4.167  18.212  0.00  0.00    +0.000 A 
ATOM      7  C   UNL     1       2.950   4.434  17.151  0.00  0.00    +0.000 A 
ATOM      8  C   UNL     1       3.703   5.579  17.179  0.00  0.00    +0.000 A 
ATOM      9  C   UNL     1       3.304   6.616  18.023  0.00  0.00    +0.000 A 
ATOM     10  C   UNL     1       2.321   6.365  19.039  0.00  0.00    +0.000 A 
ATOM     11  C   UNL     1       1.986   4.960  19.366  0.00  0.00    +0.000 A 
ATOM     12  O   UNL     1       1.577   7.519  19.438  0.00  0.00    +0.000 OA
ATOM     13  C   UNL     1       1.651   8.789  18.589  0.00  0.00    +0.000 C 
ATOM     14  C   UNL     1       0.455   8.971  17.620  0.00  0.00    +0.000 C 
ATOM     15  C   UNL     1       1.676  10.070  19.463  0.00  0.00    +0.000 C 
ATOM     16  C   UNL     1       2.930   8.936  17.796  0.00  0.00    +0.000 C 
ATOM     17  C   UNL     1       3.779   7.938  17.658  0.00  0.00    +0.000 C 
ENDROOT
BRANCH   1  18
ATOM     18  C   UNL     1       2.214   3.127  21.614  0.00  0.00    +0.000 C 
BRANCH  18  20
ATOM     19  C   UNL     1       4.596   2.507  20.105  0.00  0.00    +0.000 C 
ATOM     20  C   UNL     1       3.581   2.240  21.250  0.00  0.00    +0.000 C 
ENDBRANCH  18  20
ENDBRANCH   1  18
BRANCH   8  21
ATOM     21  O   UNL     1       4.638   5.761  16.163  0.00  0.00    +0.000 OA
BRANCH  21  22
ATOM     22  C   UNL     1       5.745   4.957  16.373  0.00  0.00    +0.000 C 
ATOM     23  O   UNL     1       6.035   3.898  15.842  0.00  0.00    +0.000 OA
BRANCH  22  24
ATOM     24  C   UNL     1       6.659   5.691  17.242  0.00  0.00    +0.000 A 
ATOM     25  C   UNL     1       7.101   5.085  18.421  0.00  0.00    +0.000 A 
ATOM     26  C   UNL     1       7.935   5.794  19.272  0.00  0.00    +0.000 A 
ATOM     27  C   UNL     1       8.326   7.103  18.939  0.00  0.00    +0.000 A 
ATOM     28  C   UNL     1       7.871   7.696  17.752  0.00  0.00    +0.000 A 
ATOM     29  C   UNL     1       7.048   6.983  16.899  0.00  0.00    +0.000 A 
ENDBRANCH  22  24
ENDBRANCH  21  22
ENDBRANCH   8  21
TORSDOF 5
ENDMDL
MODEL 6
REMARK VINA RESULT:      -7.3      3.916      8.541
REMARK  Name = 
REMARK  8 active torsions:
REMARK  status: ('A' for Active; 'I' for Inactive)
REMARK    1  A    between atoms: C_1  and  C_2
REMARK    2  A    between atoms: C_2  and  C_3
REMARK    3  A    between atoms: C_3  and  C_4
REMARK    4  A    between atoms: C_11  and  O_12
REMARK    5  A    between atoms: O_12  and  C_13
REMARK    6  A    between atoms: C_13  and  C_15
REMARK    7  A    between atoms: C_25  and  C_26
REMARK    8  A    between atoms: C_25  and  C_27
REMARK                            x       y       z     vdW  Elec       q    Type
REMARK                         _______ _______ _______ _____ _____    ______ ____
ROOT
ATOM      1  C   UNL     1       1.002  14.402  19.268  0.00  0.00    +0.000 A 
ATOM      2  C   UNL     1       0.645  15.229  20.280  0.00  0.00    +0.000 A 
ATOM      3  C   UNL     1       1.069  14.492  21.518  0.00  0.00    +0.000 A 
ATOM      4  O   UNL     1       2.073  14.678  22.185  0.00  0.00    +0.000 OA
ATOM      5  O   UNL     1       0.196  13.517  21.805  0.00  0.00    +0.000 OA
ATOM      6  C   UNL     1       0.269  12.596  20.761  0.00  0.00    +0.000 A 
ATOM      7  C   UNL     1       0.118  11.316  21.242  0.00  0.00    +0.000 A 
ATOM      8  C   UNL     1      -0.079  10.297  20.347  0.00  0.00    +0.000 A 
ATOM      9  C   UNL     1      -0.539  10.615  19.068  0.00  0.00    +0.000 A 
ATOM     10  C   UNL     1      -0.513  11.979  18.624  0.00  0.00    +0.000 A 
ATOM     11  C   UNL     1       0.278  12.960  19.402  0.00  0.00    +0.000 A 
ATOM     12  O   UNL     1      -1.479  12.291  17.618  0.00  0.00    +0.000 OA
ATOM     13  C   UNL     1      -2.610  11.303  17.333  0.00  0.00    +0.000 C 
ATOM     14  C   UNL     1      -3.950  11.660  18.023  0.00  0.00    +0.000 C 
ATOM     15  C   UNL     1      -2.933  11.212  15.818  0.00  0.00    +0.000 C 
ATOM     16  C   UNL     1      -2.278   9.863  17.659  0.00  0.00    +0.000 C 
ATOM     17  C   UNL     1      -1.210   9.540  18.360  0.00  0.00    +0.000 C 
ENDROOT
BRANCH   1  18
ATOM     18  C   UNL     1       2.624  14.646  19.051  0.00  0.00    +0.000 C 
BRANCH  18  20
ATOM     19  C   UNL     1       2.572  17.010  17.394  0.00  0.00    +0.000 C 
ATOM     20  C   UNL     1       3.305  15.834  18.097  0.00  0.00    +0.000 C 
ENDBRANCH  18  20
ENDBRANCH   1  18
BRANCH   8  21
ATOM     21  O   UNL     1      -0.095   8.996  20.844  0.00  0.00    +0.000 OA
BRANCH  21  22
ATOM     22  C   UNL     1       1.166   8.629  21.281  0.00  0.00    +0.000 C 
ATOM     23  O   UNL     1       1.725   8.903  22.330  0.00  0.00    +0.000 OA
BRANCH  22  24
ATOM     24  C   UNL     1       1.694   7.659  20.327  0.00  0.00    +0.000 A 
ATOM     25  C   UNL     1       2.144   8.111  19.084  0.00  0.00    +0.000 A 
ATOM     26  C   UNL     1       2.606   7.189  18.158  0.00  0.00    +0.000 A 
ATOM     27  C   UNL     1       2.619   5.819  18.479  0.00  0.00    +0.000 A 
ATOM     28  C   UNL     1       2.160   5.383  19.731  0.00  0.00    +0.000 A 
ATOM     29  C   UNL     1       1.711   6.306  20.657  0.00  0.00    +0.000 A 
ENDBRANCH  22  24
ENDBRANCH  21  22
ENDBRANCH   8  21
TORSDOF 5
ENDMDL
MODEL 7
REMARK VINA RESULT:      -7.2      4.039      8.868
REMARK  Name = 
REMARK  8 active torsions:
REMARK  status: ('A' for Active; 'I' for Inactive)
REMARK    1  A    between atoms: C_1  and  C_2
REMARK    2  A    between atoms: C_2  and  C_3
REMARK    3  A    between atoms: C_3  and  C_4
REMARK    4  A    between atoms: C_11  and  O_12
REMARK    5  A    between atoms: O_12  and  C_13
REMARK    6  A    between atoms: C_13  and  C_15
REMARK    7  A    between atoms: C_25  and  C_26
REMARK    8  A    between atoms: C_25  and  C_27
REMARK                            x       y       z     vdW  Elec       q    Type
REMARK                         _______ _______ _______ _____ _____    ______ ____
ROOT
ATOM      1  C   UNL     1      -0.284  14.827  19.292  0.00  0.00    +0.000 A 
ATOM      2  C   UNL     1      -0.940  15.542  20.236  0.00  0.00    +0.000 A 
ATOM      3  C   UNL     1      -0.525  14.903  21.530  0.00  0.00    +0.000 A 
ATOM      4  O   UNL     1       0.320  15.299  22.315  0.00  0.00    +0.000 OA
ATOM      5  O   UNL     1      -1.190  13.756  21.721  0.00  0.00    +0.000 OA
ATOM      6  C   UNL     1      -0.784  12.887  20.710  0.00  0.00    +0.000 A 
ATOM      7  C   UNL     1      -0.710  11.599  21.190  0.00  0.00    +0.000 A 
ATOM      8  C   UNL     1      -0.561  10.572  20.295  0.00  0.00    +0.000 A 
ATOM      9  C   UNL     1      -0.914  10.794  18.963  0.00  0.00    +0.000 A 
ATOM     10  C   UNL     1      -1.132  12.136  18.503  0.00  0.00    +0.000 A 
ATOM     11  C   UNL     1      -0.683  13.259  19.358  0.00  0.00    +0.000 A 
ATOM     12  O   UNL     1      -2.007  12.239  17.377  0.00  0.00    +0.000 OA
ATOM     13  C   UNL     1      -2.847  11.028  16.968  0.00  0.00    +0.000 C 
ATOM     14  C   UNL     1      -4.310  11.073  17.477  0.00  0.00    +0.000 C 
ATOM     15  C   UNL     1      -2.946  10.885  15.427  0.00  0.00    +0.000 C 
ATOM     16  C   UNL     1      -2.250   9.694  17.358  0.00  0.00    +0.000 C 
ATOM     17  C   UNL     1      -1.235   9.606  18.194  0.00  0.00    +0.000 C 
ENDROOT
BRANCH   1  18
ATOM     18  C   UNL     1       1.259  15.424  19.277  0.00  0.00    +0.000 C 
BRANCH  18  20
ATOM     19  C   UNL     1       2.687  13.116  18.291  0.00  0.00    +0.000 C 
ATOM     20  C   UNL     1       2.623  14.574  18.826  0.00  0.00    +0.000 C 
ENDBRANCH  18  20
ENDBRANCH   1  18
BRANCH   8  21
ATOM     21  O   UNL     1      -0.353   9.294  20.809  0.00  0.00    +0.000 OA
BRANCH  21  22
ATOM     22  C   UNL     1       0.973   9.126  21.168  0.00  0.00    +0.000 C 
ATOM     23  O   UNL     1       1.569   9.573  22.134  0.00  0.00    +0.000 OA
BRANCH  22  24
ATOM     24  C   UNL     1       1.546   8.130  20.268  0.00  0.00    +0.000 A 
ATOM     25  C   UNL     1       1.657   6.808  20.706  0.00  0.00    +0.000 A 
ATOM     26  C   UNL     1       2.241   5.868  19.872  0.00  0.00    +0.000 A 
ATOM     27  C   UNL     1       2.708   6.252  18.602  0.00  0.00    +0.000 A 
ATOM     28  C   UNL     1       2.591   7.584  18.179  0.00  0.00    +0.000 A 
ATOM     29  C   UNL     1       1.997   8.518  19.009  0.00  0.00    +0.000 A 
ENDBRANCH  22  24
ENDBRANCH  21  22
ENDBRANCH   8  21
TORSDOF 5
ENDMDL
MODEL 8
REMARK VINA RESULT:      -7.1      3.384      8.584
REMARK  Name = 
REMARK  8 active torsions:
REMARK  status: ('A' for Active; 'I' for Inactive)
REMARK    1  A    between atoms: C_1  and  C_2
REMARK    2  A    between atoms: C_2  and  C_3
REMARK    3  A    between atoms: C_3  and  C_4
REMARK    4  A    between atoms: C_11  and  O_12
REMARK    5  A    between atoms: O_12  and  C_13
REMARK    6  A    between atoms: C_13  and  C_15
REMARK    7  A    between atoms: C_25  and  C_26
REMARK    8  A    between atoms: C_25  and  C_27
REMARK                            x       y       z     vdW  Elec       q    Type
REMARK                         _______ _______ _______ _____ _____    ______ ____
ROOT
ATOM      1  C   UNL     1      -0.148  14.636  19.739  0.00  0.00    +0.000 A 
ATOM      2  C   UNL     1      -0.287  14.915  21.057  0.00  0.00    +0.000 A 
ATOM      3  C   UNL     1       0.754  14.059  21.721  0.00  0.00    +0.000 A 
ATOM      4  O   UNL     1       1.853  14.405  22.121  0.00  0.00    +0.000 OA
ATOM      5  O   UNL     1       0.339  12.788  21.792  0.00  0.00    +0.000 OA
ATOM      6  C   UNL     1       0.238  12.328  20.480  0.00  0.00    +0.000 A 
ATOM      7  C   UNL     1       0.615  11.006  20.407  0.00  0.00    +0.000 A 
ATOM      8  C   UNL     1       0.357  10.312  19.255  0.00  0.00    +0.000 A 
ATOM      9  C   UNL     1      -0.624  10.799  18.390  0.00  0.00    +0.000 A 
ATOM     10  C   UNL     1      -1.120  12.135  18.563  0.00  0.00    +0.000 A 
ATOM     11  C   UNL     1      -0.370  13.059  19.444  0.00  0.00    +0.000 A 
ATOM     12  O   UNL     1      -2.444  12.342  18.064  0.00  0.00    +0.000 OA
ATOM     13  C   UNL     1      -3.303  11.132  17.697  0.00  0.00    +0.000 C 
ATOM     14  C   UNL     1      -4.319  10.723  18.795  0.00  0.00    +0.000 C 
ATOM     15  C   UNL     1      -4.149  11.387  16.423  0.00  0.00    +0.000 C 
ATOM     16  C   UNL     1      -2.516   9.904  17.299  0.00  0.00    +0.000 C 
ATOM     17  C   UNL     1      -1.216   9.818  17.500  0.00  0.00    +0.000 C 
ENDROOT
BRANCH   1  18
ATOM     18  C   UNL     1       1.145  15.535  19.230  0.00  0.00    +0.000 C 
BRANCH  18  20
ATOM     19  C   UNL     1       2.985  13.597  18.135  0.00  0.00    +0.000 C 
ATOM     20  C   UNL     1       2.657  14.932  18.860  0.00  0.00    +0.000 C 
ENDBRANCH  18  20
ENDBRANCH   1  18
BRANCH   8  21
ATOM     21  O   UNL     1       0.867   9.020  19.153  0.00  0.00    +0.000 OA
BRANCH  21  22
ATOM     22  C   UNL     1       1.916   8.982  18.251  0.00  0.00    +0.000 C 
ATOM     23  O   UNL     1       2.323   9.861  17.509  0.00  0.00    +0.000 OA
BRANCH  22  24
ATOM     24  C   UNL     1       2.624   7.721  18.456  0.00  0.00    +0.000 A 
ATOM     25  C   UNL     1       2.310   6.946  19.575  0.00  0.00    +0.000 A 
ATOM     26  C   UNL     1       3.010   5.770  19.797  0.00  0.00    +0.000 A 
ATOM     27  C   UNL     1       4.016   5.372  18.898  0.00  0.00    +0.000 A 
ATOM     28  C   UNL     1       4.318   6.164  17.781  0.00  0.00    +0.000 A 
ATOM     29  C   UNL     1       3.611   7.332  17.555  0.00  0.00    +0.000 A 
ENDBRANCH  22  24
ENDBRANCH  21  22
ENDBRANCH   8  21
TORSDOF 5
ENDMDL
MODEL 9
REMARK VINA RESULT:      -7.1      2.037      6.922
REMARK  Name = 
REMARK  8 active torsions:
REMARK  status: ('A' for Active; 'I' for Inactive)
REMARK    1  A    between atoms: C_1  and  C_2
REMARK    2  A    between atoms: C_2  and  C_3
REMARK    3  A    between atoms: C_3  and  C_4
REMARK    4  A    between atoms: C_11  and  O_12
REMARK    5  A    between atoms: O_12  and  C_13
REMARK    6  A    between atoms: C_13  and  C_15
REMARK    7  A    between atoms: C_25  and  C_26
REMARK    8  A    between atoms: C_25  and  C_27
REMARK                            x       y       z     vdW  Elec       q    Type
REMARK                         _______ _______ _______ _____ _____    ______ ____
ROOT
ATOM      1  C   UNL     1       1.350   4.036  20.438  0.00  0.00    +0.000 A 
ATOM      2  C   UNL     1       0.407   3.222  19.907  0.00  0.00    +0.000 A 
ATOM      3  C   UNL     1       1.148   2.443  18.858  0.00  0.00    +0.000 A 
ATOM      4  O   UNL     1       1.580   1.306  18.947  0.00  0.00    +0.000 OA
ATOM      5  O   UNL     1       1.337   3.191  17.764  0.00  0.00    +0.000 OA
ATOM      6  C   UNL     1       2.178   4.238  18.136  0.00  0.00    +0.000 A 
ATOM      7  C   UNL     1       3.039   4.547  17.108  0.00  0.00    +0.000 A 
ATOM      8  C   UNL     1       3.777   5.699  17.193  0.00  0.00    +0.000 A 
ATOM      9  C   UNL     1       3.342   6.705  18.057  0.00  0.00    +0.000 A 
ATOM     10  C   UNL     1       2.333   6.412  19.036  0.00  0.00    +0.000 A 
ATOM     11  C   UNL     1       2.006   4.994  19.310  0.00  0.00    +0.000 A 
ATOM     12  O   UNL     1       1.565   7.544  19.449  0.00  0.00    +0.000 OA
ATOM     13  C   UNL     1       1.647   8.840  18.641  0.00  0.00    +0.000 C 
ATOM     14  C   UNL     1       0.477   9.039  17.645  0.00  0.00    +0.000 C 
ATOM     15  C   UNL     1       1.633  10.094  19.555  0.00  0.00    +0.000 C 
ATOM     16  C   UNL     1       2.946   9.026  17.890  0.00  0.00    +0.000 C 
ATOM     17  C   UNL     1       3.811   8.043  17.746  0.00  0.00    +0.000 C 
ENDROOT
BRANCH   1  18
ATOM     18  C   UNL     1       2.193   3.095  21.507  0.00  0.00    +0.000 C 
BRANCH  18  20
ATOM     19  C   UNL     1       4.589   2.581  19.979  0.00  0.00    +0.000 C 
ATOM     20  C   UNL     1       3.650   2.342  21.194  0.00  0.00    +0.000 C 
ENDBRANCH  18  20
ENDBRANCH   1  18
BRANCH   8  21
ATOM     21  O   UNL     1       4.738   5.923  16.210  0.00  0.00    +0.000 OA
BRANCH  21  22
ATOM     22  C   UNL     1       5.757   4.991  16.307  0.00  0.00    +0.000 C 
ATOM     23  O   UNL     1       6.166   4.401  17.293  0.00  0.00    +0.000 OA
BRANCH  22  24
ATOM     24  C   UNL     1       6.180   4.663  14.949  0.00  0.00    +0.000 A 
ATOM     25  C   UNL     1       7.339   5.255  14.442  0.00  0.00    +0.000 A 
ATOM     26  C   UNL     1       7.721   4.980  13.138  0.00  0.00    +0.000 A 
ATOM     27  C   UNL     1       6.945   4.113  12.348  0.00  0.00    +0.000 A 
ATOM     28  C   UNL     1       5.782   3.529  12.873  0.00  0.00    +0.000 A 
ATOM     29  C   UNL     1       5.410   3.796  14.179  0.00  0.00    +0.000 A 
ENDBRANCH  22  24
ENDBRANCH  21  22
ENDBRANCH   8  21
TORSDOF 5
ENDMDL
