MODEL 1
REMARK VINA RESULT:      -8.3      0.000      0.000
REMARK  Name = 
REMARK  1 active torsions:
REMARK  status: ('A' for Active; 'I' for Inactive)
REMARK    1  A    between atoms: C_10  and  C_11
REMARK                            x       y       z     vdW  Elec       q    Type
REMARK                         _______ _______ _______ _____ _____    ______ ____
ROOT
ATOM      1  N   UNL     1       8.538   5.280  20.133  0.00  0.00    +0.000 N 
ATOM      2  C   UNL     1       7.980   5.718  18.958  0.00  0.00    +0.000 C 
ATOM      3  N   UNL     1       7.378   4.836  18.220  0.00  0.00    +0.000 NA
ATOM      4  S   UNL     1       6.712   5.235  16.788  0.00  0.00    +0.000 S 
ATOM      5  O   UNL     1       7.472   4.570  15.750  0.00  0.00    +0.000 OA
ATOM      6  O   UNL     1       5.287   5.004  16.882  0.00  0.00    +0.000 OA
ATOM      7  N   UNL     1       6.886   6.864  16.490  0.00  0.00    +0.000 N 
ATOM      8  C   UNL     1       7.577   7.609  17.398  0.00  0.00    +0.000 A 
ATOM      9  N   UNL     1       7.867   8.932  17.283  0.00  0.00    +0.000 NA
ATOM     10  C   UNL     1       8.530   9.239  18.382  0.00  0.00    +0.000 A 
ATOM     11  N   UNL     1       8.634   8.145  19.207  0.00  0.00    +0.000 N 
ATOM     12  C   UNL     1       8.075   7.083  18.556  0.00  0.00    +0.000 A 
ATOM     13  H   UNL     1       8.585   4.265  20.171  0.00  0.00    +0.000 HD
ATOM     14  H   UNL     1       9.413   5.708  20.403  0.00  0.00    +0.000 HD
ATOM     15  H   UNL     1       6.542   7.251  15.618  0.00  0.00    +0.000 HD
ATOM     16  H   UNL     1       9.056   8.134  20.125  0.00  0.00    +0.000 HD
ENDROOT
BRANCH  10  17
ATOM     17  C   UNL     1       9.100  10.577  18.732  0.00  0.00    +0.000 C 
ATOM     18  C   UNL     1      10.286  10.954  17.831  0.00  0.00    +0.000 C 
ATOM     19  C   UNL     1      10.783  12.363  18.155  0.00  0.00    +0.000 C 
ATOM     20  C   UNL     1      11.113  12.534  19.637  0.00  0.00    +0.000 C 
ATOM     21  C   UNL     1       9.987  12.057  20.554  0.00  0.00    +0.000 C 
ATOM     22  C   UNL     1       9.530  10.643  20.201  0.00  0.00    +0.000 C 
ENDBRANCH  10  17
TORSDOF 1
ENDMDL
MODEL 2
REMARK VINA RESULT:      -8.0      0.677      1.279
REMARK  Name = 
REMARK  1 active torsions:
REMARK  status: ('A' for Active; 'I' for Inactive)
REMARK    1  A    between atoms: C_10  and  C_11
REMARK                            x       y       z     vdW  Elec       q    Type
REMARK                         _______ _______ _______ _____ _____    ______ ____
ROOT
ATOM      1  N   UNL     1       8.470   5.216  20.185  0.00  0.00    +0.000 N 
ATOM      2  C   UNL     1       7.859   5.645  19.033  0.00  0.00    +0.000 C 
ATOM      3  N   UNL     1       7.151   4.778  18.376  0.00  0.00    +0.000 NA
ATOM      4  S   UNL     1       6.411   5.165  16.978  0.00  0.00    +0.000 S 
ATOM      5  O   UNL     1       7.052   4.412  15.919  0.00  0.00    +0.000 OA
ATOM      6  O   UNL     1       4.985   5.032  17.178  0.00  0.00    +0.000 OA
ATOM      7  N   UNL     1       6.666   6.767  16.600  0.00  0.00    +0.000 N 
ATOM      8  C   UNL     1       7.466   7.498  17.425  0.00  0.00    +0.000 A 
ATOM      9  N   UNL     1       7.830   8.794  17.234  0.00  0.00    +0.000 NA
ATOM     10  C   UNL     1       8.588   9.097  18.272  0.00  0.00    +0.000 A 
ATOM     11  N   UNL     1       8.681   8.031  19.133  0.00  0.00    +0.000 N 
ATOM     12  C   UNL     1       8.011   6.985  18.568  0.00  0.00    +0.000 A 
ATOM     13  H   UNL     1       8.455   4.203  20.262  0.00  0.00    +0.000 HD
ATOM     14  H   UNL     1       9.388   5.595  20.376  0.00  0.00    +0.000 HD
ATOM     15  H   UNL     1       6.286   7.142  15.737  0.00  0.00    +0.000 HD
ATOM     16  H   UNL     1       9.166   8.028  20.020  0.00  0.00    +0.000 HD
ENDROOT
BRANCH  10  17
ATOM     17  C   UNL     1       9.266  10.407  18.524  0.00  0.00    +0.000 C 
ATOM     18  C   UNL     1       9.389  10.717  20.024  0.00  0.00    +0.000 C 
ATOM     19  C   UNL     1      10.167  12.013  20.245  0.00  0.00    +0.000 C 
ATOM     20  C   UNL     1       9.570  13.186  19.467  0.00  0.00    +0.000 C 
ATOM     21  C   UNL     1       9.334  12.858  17.992  0.00  0.00    +0.000 C 
ATOM     22  C   UNL     1       8.546  11.562  17.819  0.00  0.00    +0.000 C 
ENDBRANCH  10  17
TORSDOF 1
ENDMDL
MODEL 3
REMARK VINA RESULT:      -7.7      5.416      7.571
REMARK  Name = 
REMARK  1 active torsions:
REMARK  status: ('A' for Active; 'I' for Inactive)
REMARK    1  A    between atoms: C_10  and  C_11
REMARK                            x       y       z     vdW  Elec       q    Type
REMARK                         _______ _______ _______ _____ _____    ______ ____
ROOT
ATOM      1  N   UNL     1       8.379   4.271  17.872  0.00  0.00    +0.000 N 
ATOM      2  C   UNL     1       7.356   4.346  16.960  0.00  0.00    +0.000 C 
ATOM      3  N   UNL     1       7.680   4.528  15.716  0.00  0.00    +0.000 NA
ATOM      4  S   UNL     1       6.549   4.669  14.553  0.00  0.00    +0.000 S 
ATOM      5  O   UNL     1       6.607   6.024  14.046  0.00  0.00    +0.000 OA
ATOM      6  O   UNL     1       6.714   3.562  13.636  0.00  0.00    +0.000 OA
ATOM      7  N   UNL     1       5.021   4.500  15.192  0.00  0.00    +0.000 N 
ATOM      8  C   UNL     1       4.907   4.336  16.540  0.00  0.00    +0.000 A 
ATOM      9  N   UNL     1       3.741   4.246  17.233  0.00  0.00    +0.000 NA
ATOM     10  C   UNL     1       4.099   4.082  18.493  0.00  0.00    +0.000 A 
ATOM     11  N   UNL     1       5.467   4.029  18.606  0.00  0.00    +0.000 N 
ATOM     12  C   UNL     1       5.992   4.248  17.365  0.00  0.00    +0.000 A 
ATOM     13  H   UNL     1       9.261   4.579  17.472  0.00  0.00    +0.000 HD
ATOM     14  H   UNL     1       8.207   4.691  18.776  0.00  0.00    +0.000 HD
ATOM     15  H   UNL     1       4.213   4.593  14.585  0.00  0.00    +0.000 HD
ATOM     16  H   UNL     1       5.984   3.863  19.458  0.00  0.00    +0.000 HD
ENDROOT
BRANCH  10  17
ATOM     17  C   UNL     1       3.181   3.956  19.668  0.00  0.00    +0.000 C 
ATOM     18  C   UNL     1       3.418   2.656  20.452  0.00  0.00    +0.000 C 
ATOM     19  C   UNL     1       2.529   2.606  21.694  0.00  0.00    +0.000 C 
ATOM     20  C   UNL     1       1.052   2.810  21.358  0.00  0.00    +0.000 C 
ATOM     21  C   UNL     1       0.809   4.038  20.481  0.00  0.00    +0.000 C 
ATOM     22  C   UNL     1       1.709   4.042  19.248  0.00  0.00    +0.000 C 
ENDBRANCH  10  17
TORSDOF 1
ENDMDL
MODEL 4
REMARK VINA RESULT:      -7.6      0.720      1.041
REMARK  Name = 
REMARK  1 active torsions:
REMARK  status: ('A' for Active; 'I' for Inactive)
REMARK    1  A    between atoms: C_10  and  C_11
REMARK                            x       y       z     vdW  Elec       q    Type
REMARK                         _______ _______ _______ _____ _____    ______ ____
ROOT
ATOM      1  N   UNL     1       8.522   5.325  20.247  0.00  0.00    +0.000 N 
ATOM      2  C   UNL     1       8.002   5.696  19.031  0.00  0.00    +0.000 C 
ATOM      3  N   UNL     1       7.454   4.767  18.310  0.00  0.00    +0.000 NA
ATOM      4  S   UNL     1       6.837   5.085  16.836  0.00  0.00    +0.000 S 
ATOM      5  O   UNL     1       7.656   4.396  15.860  0.00  0.00    +0.000 OA
ATOM      6  O   UNL     1       5.416   4.819  16.882  0.00  0.00    +0.000 OA
ATOM      7  N   UNL     1       6.982   6.703  16.473  0.00  0.00    +0.000 N 
ATOM      8  C   UNL     1       7.616   7.506  17.373  0.00  0.00    +0.000 A 
ATOM      9  N   UNL     1       7.876   8.830  17.211  0.00  0.00    +0.000 NA
ATOM     10  C   UNL     1       8.485   9.202  18.321  0.00  0.00    +0.000 A 
ATOM     11  N   UNL     1       8.583   8.148  19.198  0.00  0.00    +0.000 N 
ATOM     12  C   UNL     1       8.078   7.044  18.573  0.00  0.00    +0.000 A 
ATOM     13  H   UNL     1       8.592   4.315  20.331  0.00  0.00    +0.000 HD
ATOM     14  H   UNL     1       9.373   5.788  20.532  0.00  0.00    +0.000 HD
ATOM     15  H   UNL     1       6.664   7.042  15.571  0.00  0.00    +0.000 HD
ATOM     16  H   UNL     1       8.966   8.190  20.131  0.00  0.00    +0.000 HD
ENDROOT
BRANCH  10  17
ATOM     17  C   UNL     1       9.006  10.569  18.633  0.00  0.00    +0.000 C 
ATOM     18  C   UNL     1       8.355  11.651  17.758  0.00  0.00    +0.000 C 
ATOM     19  C   UNL     1       8.841  13.041  18.167  0.00  0.00    +0.000 C 
ATOM     20  C   UNL     1      10.366  13.145  18.164  0.00  0.00    +0.000 C 
ATOM     21  C   UNL     1      11.038  12.009  18.936  0.00  0.00    +0.000 C 
ATOM     22  C   UNL     1      10.530  10.641  18.489  0.00  0.00    +0.000 C 
ENDBRANCH  10  17
TORSDOF 1
ENDMDL
MODEL 5
REMARK VINA RESULT:      -7.6      4.502      7.515
REMARK  Name = 
REMARK  1 active torsions:
REMARK  status: ('A' for Active; 'I' for Inactive)
REMARK    1  A    between atoms: C_10  and  C_11
REMARK                            x       y       z     vdW  Elec       q    Type
REMARK                         _______ _______ _______ _____ _____    ______ ____
ROOT
ATOM      1  N   UNL     1       8.281   5.260  20.426  0.00  0.00    +0.000 N 
ATOM      2  C   UNL     1       7.600   5.792  19.359  0.00  0.00    +0.000 C 
ATOM      3  N   UNL     1       8.203   6.708  18.665  0.00  0.00    +0.000 NA
ATOM      4  S   UNL     1       7.477   7.436  17.402  0.00  0.00    +0.000 S 
ATOM      5  O   UNL     1       7.264   8.824  17.758  0.00  0.00    +0.000 OA
ATOM      6  O   UNL     1       8.235   7.119  16.211  0.00  0.00    +0.000 OA
ATOM      7  N   UNL     1       5.958   6.804  17.150  0.00  0.00    +0.000 N 
ATOM      8  C   UNL     1       5.509   5.855  18.019  0.00  0.00    +0.000 A 
ATOM      9  N   UNL     1       4.277   5.280  18.000  0.00  0.00    +0.000 NA
ATOM     10  C   UNL     1       4.282   4.418  19.000  0.00  0.00    +0.000 A 
ATOM     11  N   UNL     1       5.504   4.410  19.628  0.00  0.00    +0.000 N 
ATOM     12  C   UNL     1       6.277   5.369  19.039  0.00  0.00    +0.000 A 
ATOM     13  H   UNL     1       9.104   5.811  20.658  0.00  0.00    +0.000 HD
ATOM     14  H   UNL     1       7.732   5.037  21.245  0.00  0.00    +0.000 HD
ATOM     15  H   UNL     1       5.376   7.183  16.410  0.00  0.00    +0.000 HD
ATOM     16  H   UNL     1       5.772   3.804  20.391  0.00  0.00    +0.000 HD
ENDROOT
BRANCH  10  17
ATOM     17  C   UNL     1       3.144   3.544  19.424  0.00  0.00    +0.000 C 
ATOM     18  C   UNL     1       2.060   3.438  18.341  0.00  0.00    +0.000 C 
ATOM     19  C   UNL     1       0.962   2.465  18.770  0.00  0.00    +0.000 C 
ATOM     20  C   UNL     1       0.373   2.823  20.134  0.00  0.00    +0.000 C 
ATOM     21  C   UNL     1       1.445   3.045  21.201  0.00  0.00    +0.000 C 
ATOM     22  C   UNL     1       2.515   4.029  20.734  0.00  0.00    +0.000 C 
ENDBRANCH  10  17
TORSDOF 1
ENDMDL
MODEL 6
REMARK VINA RESULT:      -7.3      6.289      7.923
REMARK  Name = 
REMARK  1 active torsions:
REMARK  status: ('A' for Active; 'I' for Inactive)
REMARK    1  A    between atoms: C_10  and  C_11
REMARK                            x       y       z     vdW  Elec       q    Type
REMARK                         _______ _______ _______ _____ _____    ______ ____
ROOT
ATOM      1  N   UNL     1       1.002  10.442  18.081  0.00  0.00    +0.000 N 
ATOM      2  C   UNL     1       1.158   9.505  19.071  0.00  0.00    +0.000 C 
ATOM      3  N   UNL     1       0.539   9.716  20.193  0.00  0.00    +0.000 NA
ATOM      4  S   UNL     1       0.681   8.690  21.450  0.00  0.00    +0.000 S 
ATOM      5  O   UNL     1       1.386   9.385  22.507  0.00  0.00    +0.000 OA
ATOM      6  O   UNL     1      -0.627   8.133  21.718  0.00  0.00    +0.000 OA
ATOM      7  N   UNL     1       1.648   7.395  21.049  0.00  0.00    +0.000 N 
ATOM      8  C   UNL     1       2.219   7.384  19.812  0.00  0.00    +0.000 A 
ATOM      9  N   UNL     1       3.081   6.443  19.344  0.00  0.00    +0.000 NA
ATOM     10  C   UNL     1       3.367   6.817  18.111  0.00  0.00    +0.000 A 
ATOM     11  N   UNL     1       2.675   7.956  17.776  0.00  0.00    +0.000 N 
ATOM     12  C   UNL     1       1.981   8.356  18.882  0.00  0.00    +0.000 A 
ATOM     13  H   UNL     1       0.580  11.296  18.436  0.00  0.00    +0.000 HD
ATOM     14  H   UNL     1       1.814  10.632  17.509  0.00  0.00    +0.000 HD
ATOM     15  H   UNL     1       1.848   6.687  21.747  0.00  0.00    +0.000 HD
ATOM     16  H   UNL     1       2.688   8.412  16.875  0.00  0.00    +0.000 HD
ENDROOT
BRANCH  10  17
ATOM     17  C   UNL     1       4.300   6.126  17.167  0.00  0.00    +0.000 C 
ATOM     18  C   UNL     1       4.124   4.601  17.191  0.00  0.00    +0.000 C 
ATOM     19  C   UNL     1       5.026   3.937  16.150  0.00  0.00    +0.000 C 
ATOM     20  C   UNL     1       6.490   4.346  16.307  0.00  0.00    +0.000 C 
ATOM     21  C   UNL     1       6.674   5.861  16.400  0.00  0.00    +0.000 C 
ATOM     22  C   UNL     1       5.763   6.479  17.458  0.00  0.00    +0.000 C 
ENDBRANCH  10  17
TORSDOF 1
ENDMDL
MODEL 7
REMARK VINA RESULT:      -7.2      6.793      8.080
REMARK  Name = 
REMARK  1 active torsions:
REMARK  status: ('A' for Active; 'I' for Inactive)
REMARK    1  A    between atoms: C_10  and  C_11
REMARK                            x       y       z     vdW  Elec       q    Type
REMARK                         _______ _______ _______ _____ _____    ______ ____
ROOT
ATOM      1  N   UNL     1       1.111  10.190  17.900  0.00  0.00    +0.000 N 
ATOM      2  C   UNL     1       1.215   9.342  18.975  0.00  0.00    +0.000 C 
ATOM      3  N   UNL     1       0.546   9.650  20.043  0.00  0.00    +0.000 NA
ATOM      4  S   UNL     1       0.624   8.737  21.390  0.00  0.00    +0.000 S 
ATOM      5  O   UNL     1       1.282   9.521  22.414  0.00  0.00    +0.000 OA
ATOM      6  O   UNL     1      -0.698   8.206  21.644  0.00  0.00    +0.000 OA
ATOM      7  N   UNL     1       1.602   7.412  21.149  0.00  0.00    +0.000 N 
ATOM      8  C   UNL     1       2.231   7.293  19.945  0.00  0.00    +0.000 A 
ATOM      9  N   UNL     1       3.109   6.314  19.602  0.00  0.00    +0.000 NA
ATOM     10  C   UNL     1       3.454   6.579  18.356  0.00  0.00    +0.000 A 
ATOM     11  N   UNL     1       2.784   7.686  17.892  0.00  0.00    +0.000 N 
ATOM     12  C   UNL     1       2.041   8.180  18.925  0.00  0.00    +0.000 A 
ATOM     13  H   UNL     1       0.677  11.072  18.160  0.00  0.00    +0.000 HD
ATOM     14  H   UNL     1       1.949  10.329  17.353  0.00  0.00    +0.000 HD
ATOM     15  H   UNL     1       1.766   6.767  21.914  0.00  0.00    +0.000 HD
ATOM     16  H   UNL     1       2.842   8.062  16.956  0.00  0.00    +0.000 HD
ENDROOT
BRANCH  10  17
ATOM     17  C   UNL     1       4.428   5.809  17.521  0.00  0.00    +0.000 C 
ATOM     18  C   UNL     1       4.795   6.551  16.226  0.00  0.00    +0.000 C 
ATOM     19  C   UNL     1       5.859   5.780  15.446  0.00  0.00    +0.000 C 
ATOM     20  C   UNL     1       5.444   4.333  15.177  0.00  0.00    +0.000 C 
ATOM     21  C   UNL     1       4.967   3.611  16.437  0.00  0.00    +0.000 C 
ATOM     22  C   UNL     1       3.899   4.412  17.179  0.00  0.00    +0.000 C 
ENDBRANCH  10  17
TORSDOF 1
ENDMDL
MODEL 8
REMARK VINA RESULT:      -7.2      5.493      6.235
REMARK  Name = 
REMARK  1 active torsions:
REMARK  status: ('A' for Active; 'I' for Inactive)
REMARK    1  A    between atoms: C_10  and  C_11
REMARK                            x       y       z     vdW  Elec       q    Type
REMARK                         _______ _______ _______ _____ _____    ______ ____
ROOT
ATOM      1  N   UNL     1       4.007   2.607  17.648  0.00  0.00    +0.000 N 
ATOM      2  C   UNL     1       4.656   3.677  17.082  0.00  0.00    +0.000 C 
ATOM      3  N   UNL     1       5.735   3.428  16.405  0.00  0.00    +0.000 NA
ATOM      4  S   UNL     1       6.606   4.622  15.721  0.00  0.00    +0.000 S 
ATOM      5  O   UNL     1       7.880   4.684  16.407  0.00  0.00    +0.000 OA
ATOM      6  O   UNL     1       6.582   4.425  14.288  0.00  0.00    +0.000 OA
ATOM      7  N   UNL     1       5.889   6.101  15.985  0.00  0.00    +0.000 N 
ATOM      8  C   UNL     1       4.760   6.136  16.748  0.00  0.00    +0.000 A 
ATOM      9  N   UNL     1       4.084   7.257  17.114  0.00  0.00    +0.000 NA
ATOM     10  C   UNL     1       3.061   6.827  17.828  0.00  0.00    +0.000 A 
ATOM     11  N   UNL     1       3.055   5.455  17.890  0.00  0.00    +0.000 N 
ATOM     12  C   UNL     1       4.174   5.008  17.247  0.00  0.00    +0.000 A 
ATOM     13  H   UNL     1       4.583   1.770  17.634  0.00  0.00    +0.000 HD
ATOM     14  H   UNL     1       3.590   2.763  18.556  0.00  0.00    +0.000 HD
ATOM     15  H   UNL     1       6.337   6.942  15.638  0.00  0.00    +0.000 HD
ATOM     16  H   UNL     1       2.351   4.886  18.339  0.00  0.00    +0.000 HD
ENDROOT
BRANCH  10  17
ATOM     17  C   UNL     1       2.021   7.675  18.490  0.00  0.00    +0.000 C 
ATOM     18  C   UNL     1       2.066   9.132  18.005  0.00  0.00    +0.000 C 
ATOM     19  C   UNL     1       0.933   9.945  18.630  0.00  0.00    +0.000 C 
ATOM     20  C   UNL     1       0.927   9.850  20.156  0.00  0.00    +0.000 C 
ATOM     21  C   UNL     1       0.996   8.409  20.659  0.00  0.00    +0.000 C 
ATOM     22  C   UNL     1       2.147   7.638  20.016  0.00  0.00    +0.000 C 
ENDBRANCH  10  17
TORSDOF 1
ENDMDL
MODEL 9
REMARK VINA RESULT:      -7.1      5.382      7.733
REMARK  Name = 
REMARK  1 active torsions:
REMARK  status: ('A' for Active; 'I' for Inactive)
REMARK    1  A    between atoms: C_10  and  C_11
REMARK                            x       y       z     vdW  Elec       q    Type
REMARK                         _______ _______ _______ _____ _____    ______ ____
ROOT
ATOM      1  N   UNL     1       8.092   4.396  18.011  0.00  0.00    +0.000 N 
ATOM      2  C   UNL     1       7.156   4.393  17.007  0.00  0.00    +0.000 C 
ATOM      3  N   UNL     1       7.546   4.774  15.829  0.00  0.00    +0.000 NA
ATOM      4  S   UNL     1       6.513   4.844  14.571  0.00  0.00    +0.000 S 
ATOM      5  O   UNL     1       6.356   6.238  14.210  0.00  0.00    +0.000 OA
ATOM      6  O   UNL     1       6.964   3.900  13.572  0.00  0.00    +0.000 OA
ATOM      7  N   UNL     1       4.995   4.330  15.024  0.00  0.00    +0.000 N 
ATOM      8  C   UNL     1       4.800   3.992  16.330  0.00  0.00    +0.000 A 
ATOM      9  N   UNL     1       3.617   3.614  16.883  0.00  0.00    +0.000 NA
ATOM     10  C   UNL     1       3.889   3.369  18.151  0.00  0.00    +0.000 A 
ATOM     11  N   UNL     1       5.228   3.550  18.403  0.00  0.00    +0.000 N 
ATOM     12  C   UNL     1       5.806   4.004  17.253  0.00  0.00    +0.000 A 
ATOM     13  H   UNL     1       8.931   4.902  17.740  0.00  0.00    +0.000 HD
ATOM     14  H   UNL     1       7.767   4.669  18.928  0.00  0.00    +0.000 HD
ATOM     15  H   UNL     1       4.240   4.347  14.348  0.00  0.00    +0.000 HD
ATOM     16  H   UNL     1       5.691   3.382  19.285  0.00  0.00    +0.000 HD
ENDROOT
BRANCH  10  17
ATOM     17  C   UNL     1       2.914   2.944  19.203  0.00  0.00    +0.000 C 
ATOM     18  C   UNL     1       1.727   3.913  19.318  0.00  0.00    +0.000 C 
ATOM     19  C   UNL     1       0.708   3.399  20.335  0.00  0.00    +0.000 C 
ATOM     20  C   UNL     1       1.343   3.109  21.694  0.00  0.00    +0.000 C 
ATOM     21  C   UNL     1       2.595   2.238  21.589  0.00  0.00    +0.000 C 
ATOM     22  C   UNL     1       3.588   2.793  20.571  0.00  0.00    +0.000 C 
ENDBRANCH  10  17
TORSDOF 1
ENDMDL
