MODEL 1
REMARK VINA RESULT:      -7.5      0.000      0.000
REMARK  Name = 
REMARK  9 active torsions:
REMARK  status: ('A' for Active; 'I' for Inactive)
REMARK    1  A    between atoms: C_1  and  C_2
REMARK    2  A    between atoms: C_2  and  C_3
REMARK    3  A    between atoms: C_3  and  C_4
REMARK    4  A    between atoms: C_3  and  N_6
REMARK    5  A    between atoms: C_4  and  C_5
REMARK    6  A    between atoms: C_8  and  C_9
REMARK    7  A    between atoms: N_11  and  C_12
REMARK    8  A    between atoms: C_12  and  C_13
REMARK    9  A    between atoms: C_18  and  N_19
REMARK                            x       y       z     vdW  Elec       q    Type
REMARK                         _______ _______ _______ _____ _____    ______ ____
ROOT
ATOM      1  C   UNL     1       3.041   5.974  18.235  0.00  0.00    +0.000 C 
ATOM      2  O   UNL     1       2.272   5.089  18.583  0.00  0.00    +0.000 OA
ATOM      3  N   UNL     1       4.124   5.761  17.410  0.00  0.00    +0.000 N 
ATOM      4  H   UNL     1       4.756   6.524  17.203  0.00  0.00    +0.000 HD
ENDROOT
BRANCH   1   7
ATOM      5  N   UNL     1       1.540   8.981  19.692  0.00  0.00    +0.000 N 
ATOM      6  C   UNL     1       1.932   7.594  19.828  0.00  0.00    +0.000 C 
ATOM      7  C   UNL     1       2.938   7.406  18.705  0.00  0.00    +0.000 C 
ATOM      8  C   UNL     1       2.422   8.345  17.618  0.00  0.00    +0.000 C 
ATOM      9  C   UNL     1       1.785   9.457  18.412  0.00  0.00    +0.000 C 
ATOM     10  O   UNL     1       1.511  10.561  17.971  0.00  0.00    +0.000 OA
BRANCH   5  11
ATOM     11  C   UNL     1       0.819   9.743  20.719  0.00  0.00    +0.000 C 
BRANCH  11  13
ATOM     12  C   UNL     1      -1.098  11.331  20.080  0.00  0.00    +0.000 C 
ATOM     13  C   UNL     1      -0.676   9.901  20.382  0.00  0.00    +0.000 C 
ENDBRANCH  11  13
BRANCH  11  14
ATOM     14  C   UNL     1       1.115   9.204  22.134  0.00  0.00    +0.000 C 
ATOM     15  C   UNL     1       0.021   9.438  23.166  0.00  0.00    +0.000 C 
ENDBRANCH  11  14
ENDBRANCH   5  11
ENDBRANCH   1   7
BRANCH   3  16
ATOM     16  C   UNL     1       4.442   4.462  16.849  0.00  0.00    +0.000 C 
BRANCH  16  17
ATOM     17  C   UNL     1       5.471   4.466  15.746  0.00  0.00    +0.000 A 
ATOM     18  C   UNL     1       5.171   3.911  14.484  0.00  0.00    +0.000 A 
ATOM     19  C   UNL     1       6.057   4.022  13.418  0.00  0.00    +0.000 A 
ATOM     20  C   UNL     1       7.236   4.699  13.627  0.00  0.00    +0.000 A 
ATOM     21  N   UNL     1       7.583   5.235  14.813  0.00  0.00    +0.000 NA
ATOM     22  C   UNL     1       6.728   5.088  15.867  0.00  0.00    +0.000 A 
BRANCH  22  23
ATOM     23  N   UNL     1       7.218   5.613  17.101  0.00  0.00    +0.000 N 
ATOM     24  C   UNL     1       7.555   4.964  18.267  0.00  0.00    +0.000 A 
ATOM     25  C   UNL     1       7.950   5.944  19.148  0.00  0.00    +0.000 A 
ATOM     26  N   UNL     1       7.930   7.168  18.549  0.00  0.00    +0.000 NA
ATOM     27  C   UNL     1       7.535   6.938  17.315  0.00  0.00    +0.000 A 
ENDBRANCH  22  23
ENDBRANCH  16  17
ENDBRANCH   3  16
TORSDOF 7
ENDMDL
MODEL 2
REMARK VINA RESULT:      -7.4      2.414      4.111
REMARK  Name = 
REMARK  9 active torsions:
REMARK  status: ('A' for Active; 'I' for Inactive)
REMARK    1  A    between atoms: C_1  and  C_2
REMARK    2  A    between atoms: C_2  and  C_3
REMARK    3  A    between atoms: C_3  and  C_4
REMARK    4  A    between atoms: C_3  and  N_6
REMARK    5  A    between atoms: C_4  and  C_5
REMARK    6  A    between atoms: C_8  and  C_9
REMARK    7  A    between atoms: N_11  and  C_12
REMARK    8  A    between atoms: C_12  and  C_13
REMARK    9  A    between atoms: C_18  and  N_19
REMARK                            x       y       z     vdW  Elec       q    Type
REMARK                         _______ _______ _______ _____ _____    ______ ____
ROOT
ATOM      1  C   UNL     1       1.842   8.245  19.342  0.00  0.00    +0.000 C 
ATOM      2  O   UNL     1       2.113   8.738  18.256  0.00  0.00    +0.000 OA
ATOM      3  N   UNL     1       2.381   7.061  19.796  0.00  0.00    +0.000 N 
ATOM      4  H   UNL     1       2.074   6.678  20.681  0.00  0.00    +0.000 HD
ENDROOT
BRANCH   1   7
ATOM      5  N   UNL     1       0.308  10.718  21.566  0.00  0.00    +0.000 N 
ATOM      6  C   UNL     1       0.787  10.356  20.249  0.00  0.00    +0.000 C 
ATOM      7  C   UNL     1       0.840   8.839  20.304  0.00  0.00    +0.000 C 
ATOM      8  C   UNL     1       1.190   8.558  21.763  0.00  0.00    +0.000 C 
ATOM      9  C   UNL     1       0.543   9.709  22.490  0.00  0.00    +0.000 C 
ATOM     10  O   UNL     1       0.310   9.737  23.687  0.00  0.00    +0.000 OA
BRANCH   5  11
ATOM     11  C   UNL     1      -0.206  12.046  21.926  0.00  0.00    +0.000 C 
BRANCH  11  13
ATOM     12  C   UNL     1       0.449  14.531  21.892  0.00  0.00    +0.000 C 
ATOM     13  C   UNL     1       0.556  13.176  21.208  0.00  0.00    +0.000 C 
ENDBRANCH  11  13
BRANCH  11  14
ATOM     14  C   UNL     1      -1.742  12.111  21.796  0.00  0.00    +0.000 C 
ATOM     15  C   UNL     1      -2.514  12.000  23.103  0.00  0.00    +0.000 C 
ENDBRANCH  11  14
ENDBRANCH   5  11
ENDBRANCH   1   7
BRANCH   3  16
ATOM     16  C   UNL     1       3.351   6.296  19.037  0.00  0.00    +0.000 C 
BRANCH  16  17
ATOM     17  C   UNL     1       2.973   4.861  18.762  0.00  0.00    +0.000 A 
ATOM     18  C   UNL     1       1.672   4.395  19.048  0.00  0.00    +0.000 A 
ATOM     19  C   UNL     1       1.267   3.117  18.681  0.00  0.00    +0.000 A 
ATOM     20  C   UNL     1       2.172   2.318  18.020  0.00  0.00    +0.000 A 
ATOM     21  N   UNL     1       3.431   2.703  17.735  0.00  0.00    +0.000 NA
ATOM     22  C   UNL     1       3.836   3.944  18.134  0.00  0.00    +0.000 A 
BRANCH  22  23
ATOM     23  N   UNL     1       5.209   4.230  17.864  0.00  0.00    +0.000 N 
ATOM     24  C   UNL     1       5.860   4.385  16.660  0.00  0.00    +0.000 A 
ATOM     25  C   UNL     1       7.178   4.629  16.969  0.00  0.00    +0.000 A 
ATOM     26  N   UNL     1       7.354   4.693  18.319  0.00  0.00    +0.000 NA
ATOM     27  C   UNL     1       6.156   4.498  18.829  0.00  0.00    +0.000 A 
ENDBRANCH  22  23
ENDBRANCH  16  17
ENDBRANCH   3  16
TORSDOF 7
ENDMDL
MODEL 3
REMARK VINA RESULT:      -7.4      2.179      3.544
REMARK  Name = 
REMARK  9 active torsions:
REMARK  status: ('A' for Active; 'I' for Inactive)
REMARK    1  A    between atoms: C_1  and  C_2
REMARK    2  A    between atoms: C_2  and  C_3
REMARK    3  A    between atoms: C_3  and  C_4
REMARK    4  A    between atoms: C_3  and  N_6
REMARK    5  A    between atoms: C_4  and  C_5
REMARK    6  A    between atoms: C_8  and  C_9
REMARK    7  A    between atoms: N_11  and  C_12
REMARK    8  A    between atoms: C_12  and  C_13
REMARK    9  A    between atoms: C_18  and  N_19
REMARK                            x       y       z     vdW  Elec       q    Type
REMARK                         _______ _______ _______ _____ _____    ______ ____
ROOT
ATOM      1  C   UNL     1       2.633   7.547  18.114  0.00  0.00    +0.000 C 
ATOM      2  O   UNL     1       2.198   6.434  18.375  0.00  0.00    +0.000 OA
ATOM      3  N   UNL     1       3.768   7.765  17.363  0.00  0.00    +0.000 N 
ATOM      4  H   UNL     1       4.107   8.709  17.229  0.00  0.00    +0.000 HD
ENDROOT
BRANCH   1   7
ATOM      5  N   UNL     1       0.315   9.722  19.935  0.00  0.00    +0.000 N 
ATOM      6  C   UNL     1       1.294   8.655  19.950  0.00  0.00    +0.000 C 
ATOM      7  C   UNL     1       2.016   8.828  18.626  0.00  0.00    +0.000 C 
ATOM      8  C   UNL     1       0.924   9.362  17.703  0.00  0.00    +0.000 C 
ATOM      9  C   UNL     1       0.049  10.152  18.644  0.00  0.00    +0.000 C 
ATOM     10  O   UNL     1      -0.768  10.990  18.299  0.00  0.00    +0.000 OA
BRANCH   5  11
ATOM     11  C   UNL     1      -0.430  10.180  21.115  0.00  0.00    +0.000 C 
BRANCH  11  13
ATOM     12  C   UNL     1       0.182   9.462  23.506  0.00  0.00    +0.000 C 
ATOM     13  C   UNL     1      -0.515   9.093  22.204  0.00  0.00    +0.000 C 
ENDBRANCH  11  13
BRANCH  11  14
ATOM     14  C   UNL     1       0.072  11.554  21.603  0.00  0.00    +0.000 C 
ATOM     15  C   UNL     1      -1.002  12.497  22.125  0.00  0.00    +0.000 C 
ENDBRANCH  11  14
ENDBRANCH   5  11
ENDBRANCH   1   7
BRANCH   3  16
ATOM     16  C   UNL     1       4.545   6.687  16.783  0.00  0.00    +0.000 C 
BRANCH  16  17
ATOM     17  C   UNL     1       5.765   6.271  17.567  0.00  0.00    +0.000 A 
ATOM     18  C   UNL     1       6.914   7.089  17.593  0.00  0.00    +0.000 A 
ATOM     19  C   UNL     1       7.995   6.787  18.413  0.00  0.00    +0.000 A 
ATOM     20  C   UNL     1       7.910   5.668  19.209  0.00  0.00    +0.000 A 
ATOM     21  N   UNL     1       6.846   4.842  19.215  0.00  0.00    +0.000 NA
ATOM     22  C   UNL     1       5.804   5.120  18.378  0.00  0.00    +0.000 A 
BRANCH  22  23
ATOM     23  N   UNL     1       4.761   4.145  18.392  0.00  0.00    +0.000 N 
ATOM     24  C   UNL     1       4.323   3.304  17.393  0.00  0.00    +0.000 A 
ATOM     25  C   UNL     1       3.281   2.584  17.931  0.00  0.00    +0.000 A 
ATOM     26  N   UNL     1       3.100   2.904  19.244  0.00  0.00    +0.000 NA
ATOM     27  C   UNL     1       4.025   3.803  19.507  0.00  0.00    +0.000 A 
ENDBRANCH  22  23
ENDBRANCH  16  17
ENDBRANCH   3  16
TORSDOF 7
ENDMDL
MODEL 4
REMARK VINA RESULT:      -7.4      0.662      1.405
REMARK  Name = 
REMARK  9 active torsions:
REMARK  status: ('A' for Active; 'I' for Inactive)
REMARK    1  A    between atoms: C_1  and  C_2
REMARK    2  A    between atoms: C_2  and  C_3
REMARK    3  A    between atoms: C_3  and  C_4
REMARK    4  A    between atoms: C_3  and  N_6
REMARK    5  A    between atoms: C_4  and  C_5
REMARK    6  A    between atoms: C_8  and  C_9
REMARK    7  A    between atoms: N_11  and  C_12
REMARK    8  A    between atoms: C_12  and  C_13
REMARK    9  A    between atoms: C_18  and  N_19
REMARK                            x       y       z     vdW  Elec       q    Type
REMARK                         _______ _______ _______ _____ _____    ______ ____
ROOT
ATOM      1  C   UNL     1       3.083   5.918  18.383  0.00  0.00    +0.000 C 
ATOM      2  O   UNL     1       2.519   4.978  18.926  0.00  0.00    +0.000 OA
ATOM      3  N   UNL     1       4.051   5.768  17.414  0.00  0.00    +0.000 N 
ATOM      4  H   UNL     1       4.519   6.585  17.043  0.00  0.00    +0.000 HD
ENDROOT
BRANCH   1   7
ATOM      5  N   UNL     1       1.303   8.848  19.671  0.00  0.00    +0.000 N 
ATOM      6  C   UNL     1       1.863   7.533  19.898  0.00  0.00    +0.000 C 
ATOM      7  C   UNL     1       2.832   7.364  18.741  0.00  0.00    +0.000 C 
ATOM      8  C   UNL     1       2.159   8.140  17.611  0.00  0.00    +0.000 C 
ATOM      9  C   UNL     1       1.431   9.236  18.346  0.00  0.00    +0.000 C 
ATOM     10  O   UNL     1       1.008  10.259  17.833  0.00  0.00    +0.000 OA
BRANCH   5  11
ATOM     11  C   UNL     1       0.544   9.610  20.672  0.00  0.00    +0.000 C 
BRANCH  11  13
ATOM     12  C   UNL     1      -0.177   9.590  23.139  0.00  0.00    +0.000 C 
ATOM     13  C   UNL     1       0.230   8.769  21.924  0.00  0.00    +0.000 C 
ENDBRANCH  11  13
BRANCH  11  14
ATOM     14  C   UNL     1       1.194  10.980  20.953  0.00  0.00    +0.000 C 
ATOM     15  C   UNL     1       0.332  12.193  20.633  0.00  0.00    +0.000 C 
ENDBRANCH  11  14
ENDBRANCH   5  11
ENDBRANCH   1   7
BRANCH   3  16
ATOM     16  C   UNL     1       4.477   4.473  16.922  0.00  0.00    +0.000 C 
BRANCH  16  17
ATOM     17  C   UNL     1       5.487   4.505  15.801  0.00  0.00    +0.000 A 
ATOM     18  C   UNL     1       5.157   4.004  14.524  0.00  0.00    +0.000 A 
ATOM     19  C   UNL     1       6.026   4.144  13.448  0.00  0.00    +0.000 A 
ATOM     20  C   UNL     1       7.219   4.797  13.662  0.00  0.00    +0.000 A 
ATOM     21  N   UNL     1       7.594   5.281  14.861  0.00  0.00    +0.000 NA
ATOM     22  C   UNL     1       6.755   5.105  15.924  0.00  0.00    +0.000 A 
BRANCH  22  23
ATOM     23  N   UNL     1       7.274   5.576  17.168  0.00  0.00    +0.000 N 
ATOM     24  C   UNL     1       7.473   6.864  17.613  0.00  0.00    +0.000 A 
ATOM     25  C   UNL     1       8.014   6.752  18.873  0.00  0.00    +0.000 A 
ATOM     26  N   UNL     1       8.098   5.444  19.248  0.00  0.00    +0.000 NA
ATOM     27  C   UNL     1       7.607   4.766  18.233  0.00  0.00    +0.000 A 
ENDBRANCH  22  23
ENDBRANCH  16  17
ENDBRANCH   3  16
TORSDOF 7
ENDMDL
MODEL 5
REMARK VINA RESULT:      -7.4      3.232      8.292
REMARK  Name = 
REMARK  9 active torsions:
REMARK  status: ('A' for Active; 'I' for Inactive)
REMARK    1  A    between atoms: C_1  and  C_2
REMARK    2  A    between atoms: C_2  and  C_3
REMARK    3  A    between atoms: C_3  and  C_4
REMARK    4  A    between atoms: C_3  and  N_6
REMARK    5  A    between atoms: C_4  and  C_5
REMARK    6  A    between atoms: C_8  and  C_9
REMARK    7  A    between atoms: N_11  and  C_12
REMARK    8  A    between atoms: C_12  and  C_13
REMARK    9  A    between atoms: C_18  and  N_19
REMARK                            x       y       z     vdW  Elec       q    Type
REMARK                         _______ _______ _______ _____ _____    ______ ____
ROOT
ATOM      1  C   UNL     1       2.638   7.714  17.952  0.00  0.00    +0.000 C 
ATOM      2  O   UNL     1       3.009   8.491  17.083  0.00  0.00    +0.000 OA
ATOM      3  N   UNL     1       1.852   8.087  19.021  0.00  0.00    +0.000 N 
ATOM      4  H   UNL     1       1.624   7.409  19.737  0.00  0.00    +0.000 HD
ENDROOT
BRANCH   1   7
ATOM      5  N   UNL     1       3.295   4.407  19.384  0.00  0.00    +0.000 N 
ATOM      6  C   UNL     1       2.373   5.494  19.132  0.00  0.00    +0.000 C 
ATOM      7  C   UNL     1       3.036   6.257  17.999  0.00  0.00    +0.000 C 
ATOM      8  C   UNL     1       4.525   6.064  18.277  0.00  0.00    +0.000 C 
ATOM      9  C   UNL     1       4.570   4.703  18.923  0.00  0.00    +0.000 C 
ATOM     10  O   UNL     1       5.573   4.019  19.040  0.00  0.00    +0.000 OA
BRANCH   5  11
ATOM     11  C   UNL     1       2.973   3.212  20.175  0.00  0.00    +0.000 C 
BRANCH  11  13
ATOM     12  C   UNL     1       1.253   2.490  21.942  0.00  0.00    +0.000 C 
ATOM     13  C   UNL     1       2.225   3.563  21.475  0.00  0.00    +0.000 C 
ENDBRANCH  11  13
BRANCH  11  14
ATOM     14  C   UNL     1       2.302   2.126  19.309  0.00  0.00    +0.000 C 
ATOM     15  C   UNL     1       2.529   2.250  17.810  0.00  0.00    +0.000 C 
ENDBRANCH  11  14
ENDBRANCH   5  11
ENDBRANCH   1   7
BRANCH   3  16
ATOM     16  C   UNL     1       1.364   9.439  19.203  0.00  0.00    +0.000 C 
BRANCH  16  17
ATOM     17  C   UNL     1       0.648   9.701  20.506  0.00  0.00    +0.000 A 
ATOM     18  C   UNL     1       0.299   8.632  21.359  0.00  0.00    +0.000 A 
ATOM     19  C   UNL     1      -0.240   8.863  22.619  0.00  0.00    +0.000 A 
ATOM     20  C   UNL     1      -0.417  10.168  23.017  0.00  0.00    +0.000 A 
ATOM     21  N   UNL     1      -0.118  11.226  22.241  0.00  0.00    +0.000 NA
ATOM     22  C   UNL     1       0.374  10.995  20.988  0.00  0.00    +0.000 A 
BRANCH  22  23
ATOM     23  N   UNL     1       0.581  12.173  20.209  0.00  0.00    +0.000 N 
ATOM     24  C   UNL     1       1.697  12.971  20.093  0.00  0.00    +0.000 A 
ATOM     25  C   UNL     1       1.351  13.985  19.229  0.00  0.00    +0.000 A 
ATOM     26  N   UNL     1       0.084  13.808  18.759  0.00  0.00    +0.000 NA
ATOM     27  C   UNL     1      -0.337  12.696  19.323  0.00  0.00    +0.000 A 
ENDBRANCH  22  23
ENDBRANCH  16  17
ENDBRANCH   3  16
TORSDOF 7
ENDMDL
MODEL 6
REMARK VINA RESULT:      -7.4      2.092      8.869
REMARK  Name = 
REMARK  9 active torsions:
REMARK  status: ('A' for Active; 'I' for Inactive)
REMARK    1  A    between atoms: C_1  and  C_2
REMARK    2  A    between atoms: C_2  and  C_3
REMARK    3  A    between atoms: C_3  and  C_4
REMARK    4  A    between atoms: C_3  and  N_6
REMARK    5  A    between atoms: C_4  and  C_5
REMARK    6  A    between atoms: C_8  and  C_9
REMARK    7  A    between atoms: N_11  and  C_12
REMARK    8  A    between atoms: C_12  and  C_13
REMARK    9  A    between atoms: C_18  and  N_19
REMARK                            x       y       z     vdW  Elec       q    Type
REMARK                         _______ _______ _______ _____ _____    ______ ____
ROOT
ATOM      1  C   UNL     1       2.356   8.127  18.155  0.00  0.00    +0.000 C 
ATOM      2  O   UNL     1       2.368   8.760  17.109  0.00  0.00    +0.000 OA
ATOM      3  N   UNL     1       1.676   8.532  19.283  0.00  0.00    +0.000 N 
ATOM      4  H   UNL     1       1.750   7.990  20.135  0.00  0.00    +0.000 HD
ENDROOT
BRANCH   1   7
ATOM      5  N   UNL     1       4.531   5.290  17.358  0.00  0.00    +0.000 N 
ATOM      6  C   UNL     1       4.338   6.721  17.457  0.00  0.00    +0.000 C 
ATOM      7  C   UNL     1       3.128   6.845  18.367  0.00  0.00    +0.000 C 
ATOM      8  C   UNL     1       2.309   5.603  18.024  0.00  0.00    +0.000 C 
ATOM      9  C   UNL     1       3.368   4.595  17.657  0.00  0.00    +0.000 C 
ATOM     10  O   UNL     1       3.195   3.389  17.604  0.00  0.00    +0.000 OA
BRANCH   5  11
ATOM     11  C   UNL     1       5.750   4.651  16.843  0.00  0.00    +0.000 C 
BRANCH  11  13
ATOM     12  C   UNL     1       5.731   4.301  14.298  0.00  0.00    +0.000 C 
ATOM     13  C   UNL     1       6.147   5.194  15.457  0.00  0.00    +0.000 C 
ENDBRANCH  11  13
BRANCH  11  14
ATOM     14  C   UNL     1       6.879   4.660  17.894  0.00  0.00    +0.000 C 
ATOM     15  C   UNL     1       7.597   5.989  18.075  0.00  0.00    +0.000 C 
ENDBRANCH  11  14
ENDBRANCH   5  11
ENDBRANCH   1   7
BRANCH   3  16
ATOM     16  C   UNL     1       0.881   9.743  19.329  0.00  0.00    +0.000 C 
BRANCH  16  17
ATOM     17  C   UNL     1       0.224  10.038  20.655  0.00  0.00    +0.000 A 
ATOM     18  C   UNL     1      -0.066   8.994  21.559  0.00  0.00    +0.000 A 
ATOM     19  C   UNL     1      -0.549   9.259  22.836  0.00  0.00    +0.000 A 
ATOM     20  C   UNL     1      -0.730  10.574  23.197  0.00  0.00    +0.000 A 
ATOM     21  N   UNL     1      -0.486  11.610  22.372  0.00  0.00    +0.000 NA
ATOM     22  C   UNL     1      -0.051  11.343  21.106  0.00  0.00    +0.000 A 
BRANCH  22  23
ATOM     23  N   UNL     1       0.099  12.497  20.279  0.00  0.00    +0.000 N 
ATOM     24  C   UNL     1      -0.790  13.078  19.402  0.00  0.00    +0.000 A 
ATOM     25  C   UNL     1      -0.133  14.153  18.850  0.00  0.00    +0.000 A 
ATOM     26  N   UNL     1       1.106  14.296  19.400  0.00  0.00    +0.000 NA
ATOM     27  C   UNL     1       1.202  13.324  20.282  0.00  0.00    +0.000 A 
ENDBRANCH  22  23
ENDBRANCH  16  17
ENDBRANCH   3  16
TORSDOF 7
ENDMDL
MODEL 7
REMARK VINA RESULT:      -7.3      2.828      5.002
REMARK  Name = 
REMARK  9 active torsions:
REMARK  status: ('A' for Active; 'I' for Inactive)
REMARK    1  A    between atoms: C_1  and  C_2
REMARK    2  A    between atoms: C_2  and  C_3
REMARK    3  A    between atoms: C_3  and  C_4
REMARK    4  A    between atoms: C_3  and  N_6
REMARK    5  A    between atoms: C_4  and  C_5
REMARK    6  A    between atoms: C_8  and  C_9
REMARK    7  A    between atoms: N_11  and  C_12
REMARK    8  A    between atoms: C_12  and  C_13
REMARK    9  A    between atoms: C_18  and  N_19
REMARK                            x       y       z     vdW  Elec       q    Type
REMARK                         _______ _______ _______ _____ _____    ______ ____
ROOT
ATOM      1  C   UNL     1       1.619   8.993  18.318  0.00  0.00    +0.000 C 
ATOM      2  O   UNL     1       2.291   9.228  17.324  0.00  0.00    +0.000 OA
ATOM      3  N   UNL     1       1.887   7.962  19.192  0.00  0.00    +0.000 N 
ATOM      4  H   UNL     1       1.261   7.785  19.967  0.00  0.00    +0.000 HD
ENDROOT
BRANCH   1   7
ATOM      5  N   UNL     1      -1.460  10.921  17.852  0.00  0.00    +0.000 N 
ATOM      6  C   UNL     1      -0.705   9.708  17.625  0.00  0.00    +0.000 C 
ATOM      7  C   UNL     1       0.375   9.766  18.691  0.00  0.00    +0.000 C 
ATOM      8  C   UNL     1       0.637  11.263  18.836  0.00  0.00    +0.000 C 
ATOM      9  C   UNL     1      -0.711  11.868  18.535  0.00  0.00    +0.000 C 
ATOM     10  O   UNL     1      -1.045  13.006  18.821  0.00  0.00    +0.000 OA
BRANCH   5  11
ATOM     11  C   UNL     1      -2.790  11.189  17.288  0.00  0.00    +0.000 C 
BRANCH  11  13
ATOM     12  C   UNL     1      -3.301   9.963  15.087  0.00  0.00    +0.000 C 
ATOM     13  C   UNL     1      -2.768  11.226  15.748  0.00  0.00    +0.000 C 
ENDBRANCH  11  13
BRANCH  11  14
ATOM     14  C   UNL     1      -3.861  10.265  17.902  0.00  0.00    +0.000 C 
ATOM     15  C   UNL     1      -5.215  10.910  18.157  0.00  0.00    +0.000 C 
ENDBRANCH  11  14
ENDBRANCH   5  11
ENDBRANCH   1   7
BRANCH   3  16
ATOM     16  C   UNL     1       3.017   7.068  19.030  0.00  0.00    +0.000 C 
BRANCH  16  17
ATOM     17  C   UNL     1       2.860   5.704  19.656  0.00  0.00    +0.000 A 
ATOM     18  C   UNL     1       1.720   5.396  20.428  0.00  0.00    +0.000 A 
ATOM     19  C   UNL     1       1.495   4.108  20.901  0.00  0.00    +0.000 A 
ATOM     20  C   UNL     1       2.415   3.135  20.585  0.00  0.00    +0.000 A 
ATOM     21  N   UNL     1       3.528   3.373  19.866  0.00  0.00    +0.000 NA
ATOM     22  C   UNL     1       3.765   4.648  19.438  0.00  0.00    +0.000 A 
BRANCH  22  23
ATOM     23  N   UNL     1       5.009   4.820  18.758  0.00  0.00    +0.000 N 
ATOM     24  C   UNL     1       6.210   5.308  19.221  0.00  0.00    +0.000 A 
ATOM     25  C   UNL     1       7.072   5.277  18.150  0.00  0.00    +0.000 A 
ATOM     26  N   UNL     1       6.467   4.728  17.059  0.00  0.00    +0.000 NA
ATOM     27  C   UNL     1       5.252   4.421  17.461  0.00  0.00    +0.000 A 
ENDBRANCH  22  23
ENDBRANCH  16  17
ENDBRANCH   3  16
TORSDOF 7
ENDMDL
MODEL 8
REMARK VINA RESULT:      -7.3      2.178      4.010
REMARK  Name = 
REMARK  9 active torsions:
REMARK  status: ('A' for Active; 'I' for Inactive)
REMARK    1  A    between atoms: C_1  and  C_2
REMARK    2  A    between atoms: C_2  and  C_3
REMARK    3  A    between atoms: C_3  and  C_4
REMARK    4  A    between atoms: C_3  and  N_6
REMARK    5  A    between atoms: C_4  and  C_5
REMARK    6  A    between atoms: C_8  and  C_9
REMARK    7  A    between atoms: N_11  and  C_12
REMARK    8  A    between atoms: C_12  and  C_13
REMARK    9  A    between atoms: C_18  and  N_19
REMARK                            x       y       z     vdW  Elec       q    Type
REMARK                         _______ _______ _______ _____ _____    ______ ____
ROOT
ATOM      1  C   UNL     1       1.884   8.625  18.467  0.00  0.00    +0.000 C 
ATOM      2  O   UNL     1       2.133   9.140  17.386  0.00  0.00    +0.000 OA
ATOM      3  N   UNL     1       2.378   7.399  18.858  0.00  0.00    +0.000 N 
ATOM      4  H   UNL     1       2.090   7.002  19.744  0.00  0.00    +0.000 HD
ENDROOT
BRANCH   1   7
ATOM      5  N   UNL     1       0.608  11.076  20.871  0.00  0.00    +0.000 N 
ATOM      6  C   UNL     1       1.019  10.754  19.521  0.00  0.00    +0.000 C 
ATOM      7  C   UNL     1       0.958   9.236  19.493  0.00  0.00    +0.000 C 
ATOM      8  C   UNL     1       1.329   8.849  20.922  0.00  0.00    +0.000 C 
ATOM      9  C   UNL     1       0.792  10.002  21.731  0.00  0.00    +0.000 C 
ATOM     10  O   UNL     1       0.598   9.981  22.935  0.00  0.00    +0.000 OA
BRANCH   5  11
ATOM     11  C   UNL     1       0.206  12.416  21.318  0.00  0.00    +0.000 C 
BRANCH  11  13
ATOM     12  C   UNL     1       2.336  13.803  20.934  0.00  0.00    +0.000 C 
ATOM     13  C   UNL     1       0.901  13.529  20.509  0.00  0.00    +0.000 C 
ENDBRANCH  11  13
BRANCH  11  14
ATOM     14  C   UNL     1      -1.328  12.543  21.417  0.00  0.00    +0.000 C 
ATOM     15  C   UNL     1      -2.039  12.920  20.125  0.00  0.00    +0.000 C 
ENDBRANCH  11  14
ENDBRANCH   5  11
ENDBRANCH   1   7
BRANCH   3  16
ATOM     16  C   UNL     1       3.271   6.611  18.032  0.00  0.00    +0.000 C 
BRANCH  16  17
ATOM     17  C   UNL     1       3.026   5.122  18.049  0.00  0.00    +0.000 A 
ATOM     18  C   UNL     1       1.828   4.599  18.579  0.00  0.00    +0.000 A 
ATOM     19  C   UNL     1       1.528   3.245  18.485  0.00  0.00    +0.000 A 
ATOM     20  C   UNL     1       2.433   2.426  17.848  0.00  0.00    +0.000 A 
ATOM     21  N   UNL     1       3.598   2.866  17.337  0.00  0.00    +0.000 NA
ATOM     22  C   UNL     1       3.907   4.190  17.468  0.00  0.00    +0.000 A 
BRANCH  22  23
ATOM     23  N   UNL     1       5.197   4.546  16.972  0.00  0.00    +0.000 N 
ATOM     24  C   UNL     1       5.586   4.921  15.706  0.00  0.00    +0.000 A 
ATOM     25  C   UNL     1       6.943   5.134  15.771  0.00  0.00    +0.000 A 
ATOM     26  N   UNL     1       7.398   4.965  17.045  0.00  0.00    +0.000 NA
ATOM     27  C   UNL     1       6.330   4.660  17.751  0.00  0.00    +0.000 A 
ENDBRANCH  22  23
ENDBRANCH  16  17
ENDBRANCH   3  16
TORSDOF 7
ENDMDL
MODEL 9
REMARK VINA RESULT:      -7.3      3.149      8.468
REMARK  Name = 
REMARK  9 active torsions:
REMARK  status: ('A' for Active; 'I' for Inactive)
REMARK    1  A    between atoms: C_1  and  C_2
REMARK    2  A    between atoms: C_2  and  C_3
REMARK    3  A    between atoms: C_3  and  C_4
REMARK    4  A    between atoms: C_3  and  N_6
REMARK    5  A    between atoms: C_4  and  C_5
REMARK    6  A    between atoms: C_8  and  C_9
REMARK    7  A    between atoms: N_11  and  C_12
REMARK    8  A    between atoms: C_12  and  C_13
REMARK    9  A    between atoms: C_18  and  N_19
REMARK                            x       y       z     vdW  Elec       q    Type
REMARK                         _______ _______ _______ _____ _____    ______ ____
ROOT
ATOM      1  C   UNL     1       6.062   4.587  16.402  0.00  0.00    +0.000 C 
ATOM      2  O   UNL     1       7.116   4.341  16.971  0.00  0.00    +0.000 OA
ATOM      3  N   UNL     1       4.838   4.592  17.034  0.00  0.00    +0.000 N 
ATOM      4  H   UNL     1       3.996   4.749  16.496  0.00  0.00    +0.000 HD
ENDROOT
BRANCH   1   7
ATOM      5  N   UNL     1       5.841   3.887  12.813  0.00  0.00    +0.000 N 
ATOM      6  C   UNL     1       5.302   3.731  14.147  0.00  0.00    +0.000 C 
ATOM      7  C   UNL     1       5.955   4.864  14.920  0.00  0.00    +0.000 C 
ATOM      8  C   UNL     1       7.320   4.998  14.248  0.00  0.00    +0.000 C 
ATOM      9  C   UNL     1       7.031   4.599  12.823  0.00  0.00    +0.000 C 
ATOM     10  O   UNL     1       7.753   4.842  11.871  0.00  0.00    +0.000 OA
BRANCH   5  11
ATOM     11  C   UNL     1       5.295   3.233  11.617  0.00  0.00    +0.000 C 
BRANCH  11  13
ATOM     12  C   UNL     1       7.125   1.562  10.934  0.00  0.00    +0.000 C 
ATOM     13  C   UNL     1       5.731   1.759  11.512  0.00  0.00    +0.000 C 
ENDBRANCH  11  13
BRANCH  11  14
ATOM     14  C   UNL     1       3.777   3.475  11.483  0.00  0.00    +0.000 C 
ATOM     15  C   UNL     1       3.242   3.508  10.059  0.00  0.00    +0.000 C 
ENDBRANCH  11  14
ENDBRANCH   5  11
ENDBRANCH   1   7
BRANCH   3  16
ATOM     16  C   UNL     1       4.685   4.332  18.452  0.00  0.00    +0.000 C 
BRANCH  16  17
ATOM     17  C   UNL     1       3.348   3.768  18.868  0.00  0.00    +0.000 A 
ATOM     18  C   UNL     1       3.170   2.376  19.006  0.00  0.00    +0.000 A 
ATOM     19  C   UNL     1       1.988   1.847  19.513  0.00  0.00    +0.000 A 
ATOM     20  C   UNL     1       0.996   2.725  19.887  0.00  0.00    +0.000 A 
ATOM     21  N   UNL     1       1.104   4.061  19.763  0.00  0.00    +0.000 NA
ATOM     22  C   UNL     1       2.251   4.574  19.227  0.00  0.00    +0.000 A 
BRANCH  22  23
ATOM     23  N   UNL     1       2.240   5.991  19.057  0.00  0.00    +0.000 N 
ATOM     24  C   UNL     1       2.337   6.746  17.909  0.00  0.00    +0.000 A 
ATOM     25  C   UNL     1       2.293   8.060  18.313  0.00  0.00    +0.000 A 
ATOM     26  N   UNL     1       2.109   8.146  19.660  0.00  0.00    +0.000 NA
ATOM     27  C   UNL     1       2.034   6.899  20.075  0.00  0.00    +0.000 A 
ENDBRANCH  22  23
ENDBRANCH  16  17
ENDBRANCH   3  16
TORSDOF 7
ENDMDL
