MODEL 1
REMARK VINA RESULT:      -8.8      0.000      0.000
REMARK  Name = 
REMARK  5 active torsions:
REMARK  status: ('A' for Active; 'I' for Inactive)
REMARK    1  A    between atoms: C_1  and  O_2
REMARK    2  A    between atoms: O_2  and  C_3
REMARK    3  A    between atoms: C_3  and  C_5
REMARK    4  A    between atoms: N_17  and  C_18
REMARK    5  A    between atoms: C_18  and  C_19
REMARK                            x       y       z     vdW  Elec       q    Type
REMARK                         _______ _______ _______ _____ _____    ______ ____
ROOT
ATOM      1  C   UNL     1       5.751   4.916  15.921  0.00  0.00    +0.000 A 
ATOM      2  C   UNL     1       5.910   6.075  16.674  0.00  0.00    +0.000 A 
ATOM      3  N   UNL     1       5.142   6.452  17.733  0.00  0.00    +0.000 NA
ATOM      4  C   UNL     1       4.168   5.567  18.030  0.00  0.00    +0.000 A 
ATOM      5  C   UNL     1       3.916   4.366  17.371  0.00  0.00    +0.000 A 
ATOM      6  C   UNL     1       4.733   4.029  16.277  0.00  0.00    +0.000 A 
ATOM      7  C   UNL     1       2.814   3.743  18.028  0.00  0.00    +0.000 A 
ATOM      8  C   UNL     1       2.124   2.530  17.824  0.00  0.00    +0.000 A 
ATOM      9  C   UNL     1       1.056   2.190  18.663  0.00  0.00    +0.000 A 
ATOM     10  C   UNL     1       0.676   3.036  19.695  0.00  0.00    +0.000 A 
ATOM     11  C   UNL     1       1.344   4.245  19.919  0.00  0.00    +0.000 A 
ATOM     12  C   UNL     1       2.410   4.584  19.071  0.00  0.00    +0.000 A 
ATOM     13  N   UNL     1       3.246   5.689  19.046  0.00  0.00    +0.000 N 
ENDROOT
BRANCH   1  14
ATOM     14  C   UNL     1       6.650   4.686  14.768  0.00  0.00    +0.000 C 
ATOM     15  O   UNL     1       7.558   5.443  14.462  0.00  0.00    +0.000 OA
BRANCH  14  17
ATOM     16  C   UNL     1       6.287   3.675  12.683  0.00  0.00    +0.000 C 
ATOM     17  O   UNL     1       6.310   3.549  14.109  0.00  0.00    +0.000 OA
ENDBRANCH  14  17
ENDBRANCH   1  14
BRANCH  13  18
ATOM     18  C   UNL     1       3.162   6.829  19.963  0.00  0.00    +0.000 C 
BRANCH  18  19
ATOM     19  C   UNL     1       2.149   7.833  19.477  0.00  0.00    +0.000 A 
ATOM     20  C   UNL     1       2.091   8.192  18.123  0.00  0.00    +0.000 A 
ATOM     21  C   UNL     1       1.283   9.248  17.700  0.00  0.00    +0.000 A 
ATOM     22  C   UNL     1       0.470   9.913  18.614  0.00  0.00    +0.000 A 
ATOM     23  C   UNL     1       0.442   9.502  19.945  0.00  0.00    +0.000 A 
ATOM     24  C   UNL     1       1.288   8.476  20.367  0.00  0.00    +0.000 A 
ATOM     25  F   UNL     1       1.277   8.129  21.664  0.00  0.00    +0.000 F 
ENDBRANCH  18  19
ENDBRANCH  13  18
TORSDOF 4
ENDMDL
MODEL 2
REMARK VINA RESULT:      -8.5      3.913      6.497
REMARK  Name = 
REMARK  5 active torsions:
REMARK  status: ('A' for Active; 'I' for Inactive)
REMARK    1  A    between atoms: C_1  and  O_2
REMARK    2  A    between atoms: O_2  and  C_3
REMARK    3  A    between atoms: C_3  and  C_5
REMARK    4  A    between atoms: N_17  and  C_18
REMARK    5  A    between atoms: C_18  and  C_19
REMARK                            x       y       z     vdW  Elec       q    Type
REMARK                         _______ _______ _______ _____ _____    ______ ____
ROOT
ATOM      1  C   UNL     1       1.266   8.427  20.262  0.00  0.00    +0.000 A 
ATOM      2  C   UNL     1       1.958   8.600  19.067  0.00  0.00    +0.000 A 
ATOM      3  N   UNL     1       2.707   7.656  18.433  0.00  0.00    +0.000 NA
ATOM      4  C   UNL     1       2.722   6.468  19.073  0.00  0.00    +0.000 A 
ATOM      5  C   UNL     1       2.060   6.160  20.257  0.00  0.00    +0.000 A 
ATOM      6  C   UNL     1       1.307   7.174  20.876  0.00  0.00    +0.000 A 
ATOM      7  C   UNL     1       2.334   4.793  20.557  0.00  0.00    +0.000 A 
ATOM      8  C   UNL     1       1.942   3.932  21.602  0.00  0.00    +0.000 A 
ATOM      9  C   UNL     1       2.389   2.605  21.613  0.00  0.00    +0.000 A 
ATOM     10  C   UNL     1       3.212   2.133  20.600  0.00  0.00    +0.000 A 
ATOM     11  C   UNL     1       3.616   2.966  19.552  0.00  0.00    +0.000 A 
ATOM     12  C   UNL     1       3.170   4.297  19.549  0.00  0.00    +0.000 A 
ATOM     13  N   UNL     1       3.395   5.338  18.663  0.00  0.00    +0.000 N 
ENDROOT
BRANCH   1  14
ATOM     14  C   UNL     1       0.538   9.581  20.836  0.00  0.00    +0.000 C 
ATOM     15  O   UNL     1      -0.307  10.216  20.225  0.00  0.00    +0.000 OA
BRANCH  14  17
ATOM     16  C   UNL     1      -0.061   9.682  23.102  0.00  0.00    +0.000 C 
ATOM     17  O   UNL     1       0.954   9.832  22.104  0.00  0.00    +0.000 OA
ENDBRANCH  14  17
ENDBRANCH   1  14
BRANCH  13  18
ATOM     18  C   UNL     1       4.232   5.256  17.463  0.00  0.00    +0.000 C 
BRANCH  18  19
ATOM     19  C   UNL     1       5.617   5.784  17.739  0.00  0.00    +0.000 A 
ATOM     20  C   UNL     1       6.396   5.239  18.769  0.00  0.00    +0.000 A 
ATOM     21  C   UNL     1       7.598   5.841  19.147  0.00  0.00    +0.000 A 
ATOM     22  C   UNL     1       8.069   6.953  18.452  0.00  0.00    +0.000 A 
ATOM     23  C   UNL     1       7.354   7.444  17.362  0.00  0.00    +0.000 A 
ATOM     24  C   UNL     1       6.132   6.865  17.022  0.00  0.00    +0.000 A 
ATOM     25  F   UNL     1       5.439   7.385  15.997  0.00  0.00    +0.000 F 
ENDBRANCH  18  19
ENDBRANCH  13  18
TORSDOF 4
ENDMDL
MODEL 3
REMARK VINA RESULT:      -8.0      3.705      6.237
REMARK  Name = 
REMARK  5 active torsions:
REMARK  status: ('A' for Active; 'I' for Inactive)
REMARK    1  A    between atoms: C_1  and  O_2
REMARK    2  A    between atoms: O_2  and  C_3
REMARK    3  A    between atoms: C_3  and  C_5
REMARK    4  A    between atoms: N_17  and  C_18
REMARK    5  A    between atoms: C_18  and  C_19
REMARK                            x       y       z     vdW  Elec       q    Type
REMARK                         _______ _______ _______ _____ _____    ______ ____
ROOT
ATOM      1  C   UNL     1       1.507   8.649  19.432  0.00  0.00    +0.000 A 
ATOM      2  C   UNL     1       2.341   8.634  18.319  0.00  0.00    +0.000 A 
ATOM      3  N   UNL     1       3.107   7.585  17.908  0.00  0.00    +0.000 NA
ATOM      4  C   UNL     1       2.983   6.494  18.691  0.00  0.00    +0.000 A 
ATOM      5  C   UNL     1       2.171   6.372  19.815  0.00  0.00    +0.000 A 
ATOM      6  C   UNL     1       1.408   7.489  20.203  0.00  0.00    +0.000 A 
ATOM      7  C   UNL     1       2.334   5.049  20.319  0.00  0.00    +0.000 A 
ATOM      8  C   UNL     1       1.777   4.350  21.410  0.00  0.00    +0.000 A 
ATOM      9  C   UNL     1       2.147   3.021  21.645  0.00  0.00    +0.000 A 
ATOM     10  C   UNL     1       3.055   2.386  20.810  0.00  0.00    +0.000 A 
ATOM     11  C   UNL     1       3.623   3.055  19.720  0.00  0.00    +0.000 A 
ATOM     12  C   UNL     1       3.253   4.390  19.493  0.00  0.00    +0.000 A 
ATOM     13  N   UNL     1       3.636   5.294  18.514  0.00  0.00    +0.000 N 
ENDROOT
BRANCH   1  14
ATOM     14  C   UNL     1       0.781   9.897  19.761  0.00  0.00    +0.000 C 
ATOM     15  O   UNL     1       0.958  10.527  20.791  0.00  0.00    +0.000 OA
BRANCH  14  17
ATOM     16  C   UNL     1      -1.191  11.040  19.206  0.00  0.00    +0.000 C 
ATOM     17  O   UNL     1      -0.102  10.215  18.779  0.00  0.00    +0.000 OA
ENDBRANCH  14  17
ENDBRANCH   1  14
BRANCH  13  18
ATOM     18  C   UNL     1       4.601   5.020  17.446  0.00  0.00    +0.000 C 
BRANCH  18  19
ATOM     19  C   UNL     1       5.920   5.692  17.731  0.00  0.00    +0.000 A 
ATOM     20  C   UNL     1       6.726   5.261  18.794  0.00  0.00    +0.000 A 
ATOM     21  C   UNL     1       7.853   5.991  19.173  0.00  0.00    +0.000 A 
ATOM     22  C   UNL     1       8.227   7.123  18.452  0.00  0.00    +0.000 A 
ATOM     23  C   UNL     1       7.491   7.505  17.332  0.00  0.00    +0.000 A 
ATOM     24  C   UNL     1       6.340   6.796  16.989  0.00  0.00    +0.000 A 
ATOM     25  F   UNL     1       5.622   7.212  15.934  0.00  0.00    +0.000 F 
ENDBRANCH  18  19
ENDBRANCH  13  18
TORSDOF 4
ENDMDL
MODEL 4
REMARK VINA RESULT:      -8.0      3.818      6.389
REMARK  Name = 
REMARK  5 active torsions:
REMARK  status: ('A' for Active; 'I' for Inactive)
REMARK    1  A    between atoms: C_1  and  O_2
REMARK    2  A    between atoms: O_2  and  C_3
REMARK    3  A    between atoms: C_3  and  C_5
REMARK    4  A    between atoms: N_17  and  C_18
REMARK    5  A    between atoms: C_18  and  C_19
REMARK                            x       y       z     vdW  Elec       q    Type
REMARK                         _______ _______ _______ _____ _____    ______ ____
ROOT
ATOM      1  C   UNL     1       1.225   8.520  20.349  0.00  0.00    +0.000 A 
ATOM      2  C   UNL     1       2.042   8.772  19.251  0.00  0.00    +0.000 A 
ATOM      3  N   UNL     1       2.750   7.843  18.551  0.00  0.00    +0.000 NA
ATOM      4  C   UNL     1       2.583   6.586  19.012  0.00  0.00    +0.000 A 
ATOM      5  C   UNL     1       1.782   6.198  20.082  0.00  0.00    +0.000 A 
ATOM      6  C   UNL     1       1.080   7.199  20.778  0.00  0.00    +0.000 A 
ATOM      7  C   UNL     1       1.887   4.782  20.203  0.00  0.00    +0.000 A 
ATOM      8  C   UNL     1       1.311   3.838  21.078  0.00  0.00    +0.000 A 
ATOM      9  C   UNL     1       1.619   2.479  20.934  0.00  0.00    +0.000 A 
ATOM     10  C   UNL     1       2.483   2.057  19.934  0.00  0.00    +0.000 A 
ATOM     11  C   UNL     1       3.068   2.972  19.052  0.00  0.00    +0.000 A 
ATOM     12  C   UNL     1       2.761   4.333  19.206  0.00  0.00    +0.000 A 
ATOM     13  N   UNL     1       3.175   5.452  18.499  0.00  0.00    +0.000 N 
ENDROOT
BRANCH   1  14
ATOM     14  C   UNL     1       0.566   9.661  21.023  0.00  0.00    +0.000 C 
ATOM     15  O   UNL     1       0.875  10.826  20.830  0.00  0.00    +0.000 OA
BRANCH  14  17
ATOM     16  C   UNL     1      -0.256   9.709  23.220  0.00  0.00    +0.000 C 
ATOM     17  O   UNL     1      -0.395   9.227  21.878  0.00  0.00    +0.000 OA
ENDBRANCH  14  17
ENDBRANCH   1  14
BRANCH  13  18
ATOM     18  C   UNL     1       4.110   5.437  17.372  0.00  0.00    +0.000 C 
BRANCH  18  19
ATOM     19  C   UNL     1       5.442   6.019  17.774  0.00  0.00    +0.000 A 
ATOM     20  C   UNL     1       5.948   7.156  17.128  0.00  0.00    +0.000 A 
ATOM     21  C   UNL     1       7.253   7.589  17.368  0.00  0.00    +0.000 A 
ATOM     22  C   UNL     1       8.043   6.932  18.308  0.00  0.00    +0.000 A 
ATOM     23  C   UNL     1       7.518   5.862  19.030  0.00  0.00    +0.000 A 
ATOM     24  C   UNL     1       6.229   5.408  18.749  0.00  0.00    +0.000 A 
ATOM     25  F   UNL     1       5.763   4.346  19.425  0.00  0.00    +0.000 F 
ENDBRANCH  18  19
ENDBRANCH  13  18
TORSDOF 4
ENDMDL
MODEL 5
REMARK VINA RESULT:      -7.9      3.417      6.032
REMARK  Name = 
REMARK  5 active torsions:
REMARK  status: ('A' for Active; 'I' for Inactive)
REMARK    1  A    between atoms: C_1  and  O_2
REMARK    2  A    between atoms: O_2  and  C_3
REMARK    3  A    between atoms: C_3  and  C_5
REMARK    4  A    between atoms: N_17  and  C_18
REMARK    5  A    between atoms: C_18  and  C_19
REMARK                            x       y       z     vdW  Elec       q    Type
REMARK                         _______ _______ _______ _____ _____    ______ ____
ROOT
ATOM      1  C   UNL     1       2.653   7.154  18.935  0.00  0.00    +0.000 A 
ATOM      2  C   UNL     1       2.381   7.995  17.860  0.00  0.00    +0.000 A 
ATOM      3  N   UNL     1       1.592   9.104  17.892  0.00  0.00    +0.000 NA
ATOM      4  C   UNL     1       1.074   9.356  19.112  0.00  0.00    +0.000 A 
ATOM      5  C   UNL     1       1.284   8.609  20.268  0.00  0.00    +0.000 A 
ATOM      6  C   UNL     1       2.099   7.467  20.178  0.00  0.00    +0.000 A 
ATOM      7  C   UNL     1       0.566   9.245  21.323  0.00  0.00    +0.000 A 
ATOM      8  C   UNL     1       0.407   8.963  22.696  0.00  0.00    +0.000 A 
ATOM      9  C   UNL     1      -0.382   9.803  23.490  0.00  0.00    +0.000 A 
ATOM     10  C   UNL     1      -1.006  10.912  22.936  0.00  0.00    +0.000 A 
ATOM     11  C   UNL     1      -0.865  11.215  21.577  0.00  0.00    +0.000 A 
ATOM     12  C   UNL     1      -0.077  10.366  20.785  0.00  0.00    +0.000 A 
ATOM     13  N   UNL     1       0.243  10.406  19.437  0.00  0.00    +0.000 N 
ENDROOT
BRANCH   1  14
ATOM     14  C   UNL     1       3.498   5.959  18.708  0.00  0.00    +0.000 C 
ATOM     15  O   UNL     1       4.410   5.630  19.449  0.00  0.00    +0.000 OA
BRANCH  14  17
ATOM     16  C   UNL     1       2.739   3.948  17.767  0.00  0.00    +0.000 C 
ATOM     17  O   UNL     1       3.126   5.313  17.573  0.00  0.00    +0.000 OA
ENDBRANCH  14  17
ENDBRANCH   1  14
BRANCH  13  18
ATOM     18  C   UNL     1      -0.233  11.416  18.488  0.00  0.00    +0.000 C 
BRANCH  18  19
ATOM     19  C   UNL     1      -1.611  11.069  17.984  0.00  0.00    +0.000 A 
ATOM     20  C   UNL     1      -1.788  10.063  17.025  0.00  0.00    +0.000 A 
ATOM     21  C   UNL     1      -3.032   9.863  16.424  0.00  0.00    +0.000 A 
ATOM     22  C   UNL     1      -4.130  10.619  16.826  0.00  0.00    +0.000 A 
ATOM     23  C   UNL     1      -3.990  11.554  17.850  0.00  0.00    +0.000 A 
ATOM     24  C   UNL     1      -2.733  11.779  18.411  0.00  0.00    +0.000 A 
ATOM     25  F   UNL     1      -2.615  12.718  19.363  0.00  0.00    +0.000 F 
ENDBRANCH  18  19
ENDBRANCH  13  18
TORSDOF 4
ENDMDL
MODEL 6
REMARK VINA RESULT:      -7.8      3.203      5.918
REMARK  Name = 
REMARK  5 active torsions:
REMARK  status: ('A' for Active; 'I' for Inactive)
REMARK    1  A    between atoms: C_1  and  O_2
REMARK    2  A    between atoms: O_2  and  C_3
REMARK    3  A    between atoms: C_3  and  C_5
REMARK    4  A    between atoms: N_17  and  C_18
REMARK    5  A    between atoms: C_18  and  C_19
REMARK                            x       y       z     vdW  Elec       q    Type
REMARK                         _______ _______ _______ _____ _____    ______ ____
ROOT
ATOM      1  C   UNL     1       2.378   8.311  18.113  0.00  0.00    +0.000 A 
ATOM      2  C   UNL     1       3.650   8.087  17.596  0.00  0.00    +0.000 A 
ATOM      3  N   UNL     1       4.407   6.972  17.790  0.00  0.00    +0.000 NA
ATOM      4  C   UNL     1       3.798   6.038  18.550  0.00  0.00    +0.000 A 
ATOM      5  C   UNL     1       2.526   6.129  19.107  0.00  0.00    +0.000 A 
ATOM      6  C   UNL     1       1.790   7.307  18.884  0.00  0.00    +0.000 A 
ATOM      7  C   UNL     1       2.280   4.913  19.810  0.00  0.00    +0.000 A 
ATOM      8  C   UNL     1       1.184   4.427  20.553  0.00  0.00    +0.000 A 
ATOM      9  C   UNL     1       1.250   3.156  21.135  0.00  0.00    +0.000 A 
ATOM     10  C   UNL     1       2.383   2.371  20.982  0.00  0.00    +0.000 A 
ATOM     11  C   UNL     1       3.485   2.828  20.250  0.00  0.00    +0.000 A 
ATOM     12  C   UNL     1       3.416   4.106  19.674  0.00  0.00    +0.000 A 
ATOM     13  N   UNL     1       4.326   4.817  18.908  0.00  0.00    +0.000 N 
ENDROOT
BRANCH   1  14
ATOM     14  C   UNL     1       1.717   9.607  17.840  0.00  0.00    +0.000 C 
ATOM     15  O   UNL     1       2.327  10.641  17.622  0.00  0.00    +0.000 OA
BRANCH  14  17
ATOM     16  C   UNL     1      -0.311  10.568  18.526  0.00  0.00    +0.000 C 
ATOM     17  O   UNL     1       0.366   9.479  17.887  0.00  0.00    +0.000 OA
ENDBRANCH  14  17
ENDBRANCH   1  14
BRANCH  13  18
ATOM     18  C   UNL     1       5.662   4.345  18.533  0.00  0.00    +0.000 C 
BRANCH  18  19
ATOM     19  C   UNL     1       5.866   4.446  17.043  0.00  0.00    +0.000 A 
ATOM     20  C   UNL     1       4.979   3.818  16.157  0.00  0.00    +0.000 A 
ATOM     21  C   UNL     1       5.264   3.755  14.792  0.00  0.00    +0.000 A 
ATOM     22  C   UNL     1       6.402   4.378  14.287  0.00  0.00    +0.000 A 
ATOM     23  C   UNL     1       7.241   5.090  15.143  0.00  0.00    +0.000 A 
ATOM     24  C   UNL     1       6.973   5.108  16.512  0.00  0.00    +0.000 A 
ATOM     25  F   UNL     1       7.821   5.762  17.322  0.00  0.00    +0.000 F 
ENDBRANCH  18  19
ENDBRANCH  13  18
TORSDOF 4
ENDMDL
MODEL 7
REMARK VINA RESULT:      -7.8      3.445      6.149
REMARK  Name = 
REMARK  5 active torsions:
REMARK  status: ('A' for Active; 'I' for Inactive)
REMARK    1  A    between atoms: C_1  and  O_2
REMARK    2  A    between atoms: O_2  and  C_3
REMARK    3  A    between atoms: C_3  and  C_5
REMARK    4  A    between atoms: N_17  and  C_18
REMARK    5  A    between atoms: C_18  and  C_19
REMARK                            x       y       z     vdW  Elec       q    Type
REMARK                         _______ _______ _______ _____ _____    ______ ____
ROOT
ATOM      1  C   UNL     1       2.602   7.416  18.659  0.00  0.00    +0.000 A 
ATOM      2  C   UNL     1       2.272   8.311  17.647  0.00  0.00    +0.000 A 
ATOM      3  N   UNL     1       1.460   9.397  17.772  0.00  0.00    +0.000 NA
ATOM      4  C   UNL     1       0.982   9.564  19.023  0.00  0.00    +0.000 A 
ATOM      5  C   UNL     1       1.250   8.757  20.124  0.00  0.00    +0.000 A 
ATOM      6  C   UNL     1       2.087   7.641  19.937  0.00  0.00    +0.000 A 
ATOM      7  C   UNL     1       0.557   9.312  21.240  0.00  0.00    +0.000 A 
ATOM      8  C   UNL     1       0.455   8.947  22.598  0.00  0.00    +0.000 A 
ATOM      9  C   UNL     1      -0.323   9.720  23.468  0.00  0.00    +0.000 A 
ATOM     10  C   UNL     1      -0.990  10.844  23.003  0.00  0.00    +0.000 A 
ATOM     11  C   UNL     1      -0.906  11.229  21.660  0.00  0.00    +0.000 A 
ATOM     12  C   UNL     1      -0.130  10.447  20.791  0.00  0.00    +0.000 A 
ATOM     13  N   UNL     1       0.141  10.573  19.438  0.00  0.00    +0.000 N 
ENDROOT
BRANCH   1  14
ATOM     14  C   UNL     1       3.463   6.257  18.333  0.00  0.00    +0.000 C 
ATOM     15  O   UNL     1       4.512   6.351  17.716  0.00  0.00    +0.000 OA
BRANCH  14  17
ATOM     16  C   UNL     1       2.029   4.458  17.872  0.00  0.00    +0.000 C 
ATOM     17  O   UNL     1       2.915   5.103  18.793  0.00  0.00    +0.000 OA
ENDBRANCH  14  17
ENDBRANCH   1  14
BRANCH  13  18
ATOM     18  C   UNL     1      -0.392  11.625  18.568  0.00  0.00    +0.000 C 
BRANCH  18  19
ATOM     19  C   UNL     1      -1.853  11.390  18.277  0.00  0.00    +0.000 A 
ATOM     20  C   UNL     1      -2.838  12.172  18.896  0.00  0.00    +0.000 A 
ATOM     21  C   UNL     1      -4.189  11.843  18.773  0.00  0.00    +0.000 A 
ATOM     22  C   UNL     1      -4.575  10.769  17.974  0.00  0.00    +0.000 A 
ATOM     23  C   UNL     1      -3.613  10.045  17.274  0.00  0.00    +0.000 A 
ATOM     24  C   UNL     1      -2.263  10.353  17.440  0.00  0.00    +0.000 A 
ATOM     25  F   UNL     1      -1.352   9.610  16.791  0.00  0.00    +0.000 F 
ENDBRANCH  18  19
ENDBRANCH  13  18
TORSDOF 4
ENDMDL
MODEL 8
REMARK VINA RESULT:      -7.8      3.975      6.864
REMARK  Name = 
REMARK  5 active torsions:
REMARK  status: ('A' for Active; 'I' for Inactive)
REMARK    1  A    between atoms: C_1  and  O_2
REMARK    2  A    between atoms: O_2  and  C_3
REMARK    3  A    between atoms: C_3  and  C_5
REMARK    4  A    between atoms: N_17  and  C_18
REMARK    5  A    between atoms: C_18  and  C_19
REMARK                            x       y       z     vdW  Elec       q    Type
REMARK                         _______ _______ _______ _____ _____    ______ ____
ROOT
ATOM      1  C   UNL     1       0.968   8.581  20.952  0.00  0.00    +0.000 A 
ATOM      2  C   UNL     1       1.632   9.023  19.812  0.00  0.00    +0.000 A 
ATOM      3  N   UNL     1       2.301   8.238  18.922  0.00  0.00    +0.000 NA
ATOM      4  C   UNL     1       2.261   6.926  19.231  0.00  0.00    +0.000 A 
ATOM      5  C   UNL     1       1.618   6.355  20.326  0.00  0.00    +0.000 A 
ATOM      6  C   UNL     1       0.950   7.211  21.220  0.00  0.00    +0.000 A 
ATOM      7  C   UNL     1       1.815   4.945  20.249  0.00  0.00    +0.000 A 
ATOM      8  C   UNL     1       1.403   3.863  21.053  0.00  0.00    +0.000 A 
ATOM      9  C   UNL     1       1.767   2.557  20.701  0.00  0.00    +0.000 A 
ATOM     10  C   UNL     1       2.526   2.323  19.564  0.00  0.00    +0.000 A 
ATOM     11  C   UNL     1       2.948   3.378  18.748  0.00  0.00    +0.000 A 
ATOM     12  C   UNL     1       2.586   4.685  19.110  0.00  0.00    +0.000 A 
ATOM     13  N   UNL     1       2.849   5.908  18.512  0.00  0.00    +0.000 N 
ENDROOT
BRANCH   1  14
ATOM     14  C   UNL     1       0.332   9.582  21.838  0.00  0.00    +0.000 C 
ATOM     15  O   UNL     1      -0.505   9.300  22.680  0.00  0.00    +0.000 OA
BRANCH  14  17
ATOM     16  C   UNL     1      -0.211  11.850  21.583  0.00  0.00    +0.000 C 
ATOM     17  O   UNL     1       0.794  10.830  21.567  0.00  0.00    +0.000 OA
ENDBRANCH  14  17
ENDBRANCH   1  14
BRANCH  13  18
ATOM     18  C   UNL     1       3.641   6.097  17.294  0.00  0.00    +0.000 C 
BRANCH  18  19
ATOM     19  C   UNL     1       5.024   5.522  17.461  0.00  0.00    +0.000 A 
ATOM     20  C   UNL     1       5.759   5.758  18.632  0.00  0.00    +0.000 A 
ATOM     21  C   UNL     1       7.101   5.385  18.718  0.00  0.00    +0.000 A 
ATOM     22  C   UNL     1       7.705   4.710  17.660  0.00  0.00    +0.000 A 
ATOM     23  C   UNL     1       6.959   4.380  16.530  0.00  0.00    +0.000 A 
ATOM     24  C   UNL     1       5.632   4.798  16.435  0.00  0.00    +0.000 A 
ATOM     25  F   UNL     1       4.948   4.510  15.317  0.00  0.00    +0.000 F 
ENDBRANCH  18  19
ENDBRANCH  13  18
TORSDOF 4
ENDMDL
MODEL 9
REMARK VINA RESULT:      -7.7      3.038      6.094
REMARK  Name = 
REMARK  5 active torsions:
REMARK  status: ('A' for Active; 'I' for Inactive)
REMARK    1  A    between atoms: C_1  and  O_2
REMARK    2  A    between atoms: O_2  and  C_3
REMARK    3  A    between atoms: C_3  and  C_5
REMARK    4  A    between atoms: N_17  and  C_18
REMARK    5  A    between atoms: C_18  and  C_19
REMARK                            x       y       z     vdW  Elec       q    Type
REMARK                         _______ _______ _______ _____ _____    ______ ____
ROOT
ATOM      1  C   UNL     1       2.056   8.696  18.425  0.00  0.00    +0.000 A 
ATOM      2  C   UNL     1       1.976   7.906  19.568  0.00  0.00    +0.000 A 
ATOM      3  N   UNL     1       2.649   6.742  19.784  0.00  0.00    +0.000 NA
ATOM      4  C   UNL     1       3.458   6.395  18.762  0.00  0.00    +0.000 A 
ATOM      5  C   UNL     1       3.645   7.105  17.579  0.00  0.00    +0.000 A 
ATOM      6  C   UNL     1       2.917   8.296  17.401  0.00  0.00    +0.000 A 
ATOM      7  C   UNL     1       4.597   6.388  16.796  0.00  0.00    +0.000 A 
ATOM      8  C   UNL     1       5.180   6.613  15.532  0.00  0.00    +0.000 A 
ATOM      9  C   UNL     1       6.112   5.700  15.025  0.00  0.00    +0.000 A 
ATOM     10  C   UNL     1       6.468   4.578  15.760  0.00  0.00    +0.000 A 
ATOM     11  C   UNL     1       5.906   4.331  17.017  0.00  0.00    +0.000 A 
ATOM     12  C   UNL     1       4.967   5.247  17.518  0.00  0.00    +0.000 A 
ATOM     13  N   UNL     1       4.254   5.272  18.706  0.00  0.00    +0.000 N 
ENDROOT
BRANCH   1  14
ATOM     14  C   UNL     1       1.214   9.910  18.338  0.00  0.00    +0.000 C 
ATOM     15  O   UNL     1       1.557  11.000  18.769  0.00  0.00    +0.000 OA
BRANCH  14  17
ATOM     16  C   UNL     1      -1.067  10.441  18.190  0.00  0.00    +0.000 C 
ATOM     17  O   UNL     1       0.026   9.632  17.742  0.00  0.00    +0.000 OA
ENDBRANCH  14  17
ENDBRANCH   1  14
BRANCH  13  18
ATOM     18  C   UNL     1       4.330   4.252  19.755  0.00  0.00    +0.000 C 
BRANCH  18  19
ATOM     19  C   UNL     1       3.070   3.424  19.788  0.00  0.00    +0.000 A 
ATOM     20  C   UNL     1       2.727   2.604  18.704  0.00  0.00    +0.000 A 
ATOM     21  C   UNL     1       1.479   1.981  18.651  0.00  0.00    +0.000 A 
ATOM     22  C   UNL     1       0.588   2.113  19.714  0.00  0.00    +0.000 A 
ATOM     23  C   UNL     1       0.957   2.843  20.842  0.00  0.00    +0.000 A 
ATOM     24  C   UNL     1       2.187   3.500  20.865  0.00  0.00    +0.000 A 
ATOM     25  F   UNL     1       2.500   4.236  21.943  0.00  0.00    +0.000 F 
ENDBRANCH  18  19
ENDBRANCH  13  18
TORSDOF 4
ENDMDL
