MODEL 1
REMARK VINA RESULT:      -7.9      0.000      0.000
REMARK  Name = 
REMARK  7 active torsions:
REMARK  status: ('A' for Active; 'I' for Inactive)
REMARK    1  A    between atoms: C_1  and  O_2
REMARK    2  A    between atoms: O_2  and  C_3
REMARK    3  A    between atoms: C_3  and  C_5
REMARK    4  A    between atoms: C_10  and  N_11
REMARK    5  A    between atoms: N_11  and  C_12
REMARK    6  A    between atoms: C_12  and  N_14
REMARK    7  A    between atoms: C_15  and  C_17
REMARK                            x       y       z     vdW  Elec       q    Type
REMARK                         _______ _______ _______ _____ _____    ______ ____
ROOT
ATOM      1  C   UNL     1       3.591   3.864  17.956  0.00  0.00    +0.000 C 
ATOM      2  S   UNL     1       2.394   2.698  17.833  0.00  0.00    +0.000 S 
ENDROOT
BRANCH   1   3
ATOM      3  N   UNL     1       3.177   5.159  18.197  0.00  0.00    +0.000 N 
ATOM      4  C   UNL     1       2.757   5.701  19.400  0.00  0.00    +0.000 C 
ATOM      5  O   UNL     1       2.834   5.134  20.481  0.00  0.00    +0.000 OA
ATOM      6  H   UNL     1       3.165   5.727  17.364  0.00  0.00    +0.000 HD
BRANCH   4   7
ATOM      7  C   UNL     1       2.327   7.117  19.336  0.00  0.00    +0.000 A 
ATOM      8  C   UNL     1       2.445   7.767  18.085  0.00  0.00    +0.000 A 
ATOM      9  C   UNL     1       1.840   9.005  17.872  0.00  0.00    +0.000 A 
ATOM     10  C   UNL     1       1.114   9.533  18.914  0.00  0.00    +0.000 A 
ATOM     11  C   UNL     1       1.071   8.933  20.156  0.00  0.00    +0.000 A 
ATOM     12  C   UNL     1       1.704   7.743  20.420  0.00  0.00    +0.000 A 
ATOM     13  O   UNL     1       0.241   9.591  21.012  0.00  0.00    +0.000 OA
ATOM     14  C   UNL     1      -0.464  10.414  20.060  0.00  0.00    +0.000 C 
ATOM     15  O   UNL     1       0.295  10.618  18.849  0.00  0.00    +0.000 OA
ENDBRANCH   4   7
ENDBRANCH   1   3
BRANCH   1  16
ATOM     16  N   UNL     1       4.942   3.698  17.811  0.00  0.00    +0.000 N 
ATOM     17  H   UNL     1       5.246   2.779  17.476  0.00  0.00    +0.000 HD
BRANCH  16  23
ATOM     18  C   UNL     1       6.463   5.423  16.937  0.00  0.00    +0.000 A 
ATOM     19  C   UNL     1       7.471   6.371  17.189  0.00  0.00    +0.000 A 
ATOM     20  C   UNL     1       7.948   6.584  18.482  0.00  0.00    +0.000 A 
ATOM     21  C   UNL     1       7.424   5.851  19.537  0.00  0.00    +0.000 A 
ATOM     22  C   UNL     1       6.443   4.890  19.296  0.00  0.00    +0.000 A 
ATOM     23  C   UNL     1       5.968   4.644  17.999  0.00  0.00    +0.000 A 
BRANCH  18  24
ATOM     24  C   UNL     1       6.067   5.284  15.510  0.00  0.00    +0.000 C 
ATOM     25  O   UNL     1       5.463   6.159  14.905  0.00  0.00    +0.000 OA
BRANCH  24  27
ATOM     26  C   UNL     1       6.051   3.908  13.632  0.00  0.00    +0.000 C 
ATOM     27  O   UNL     1       6.353   4.051  15.025  0.00  0.00    +0.000 OA
ENDBRANCH  24  27
ENDBRANCH  18  24
ENDBRANCH  16  23
ENDBRANCH   1  16
TORSDOF 6
ENDMDL
MODEL 2
REMARK VINA RESULT:      -7.8      1.173      1.223
REMARK  Name = 
REMARK  7 active torsions:
REMARK  status: ('A' for Active; 'I' for Inactive)
REMARK    1  A    between atoms: C_1  and  O_2
REMARK    2  A    between atoms: O_2  and  C_3
REMARK    3  A    between atoms: C_3  and  C_5
REMARK    4  A    between atoms: C_10  and  N_11
REMARK    5  A    between atoms: N_11  and  C_12
REMARK    6  A    between atoms: C_12  and  N_14
REMARK    7  A    between atoms: C_15  and  C_17
REMARK                            x       y       z     vdW  Elec       q    Type
REMARK                         _______ _______ _______ _____ _____    ______ ____
ROOT
ATOM      1  C   UNL     1       4.367   3.784  19.563  0.00  0.00    +0.000 C 
ATOM      2  S   UNL     1       3.488   2.528  20.238  0.00  0.00    +0.000 S 
ENDROOT
BRANCH   1   3
ATOM      3  N   UNL     1       3.793   5.040  19.606  0.00  0.00    +0.000 N 
ATOM      4  C   UNL     1       2.787   5.536  18.795  0.00  0.00    +0.000 C 
ATOM      5  O   UNL     1       2.144   4.868  17.997  0.00  0.00    +0.000 OA
ATOM      6  H   UNL     1       4.210   5.637  20.304  0.00  0.00    +0.000 HD
BRANCH   4   7
ATOM      7  C   UNL     1       2.409   6.945  19.053  0.00  0.00    +0.000 A 
ATOM      8  C   UNL     1       2.453   7.833  17.953  0.00  0.00    +0.000 A 
ATOM      9  C   UNL     1       1.883   9.102  18.045  0.00  0.00    +0.000 A 
ATOM     10  C   UNL     1       1.261   9.422  19.229  0.00  0.00    +0.000 A 
ATOM     11  C   UNL     1       1.292   8.584  20.324  0.00  0.00    +0.000 A 
ATOM     12  C   UNL     1       1.897   7.352  20.289  0.00  0.00    +0.000 A 
ATOM     13  O   UNL     1       0.558   9.072  21.362  0.00  0.00    +0.000 OA
ATOM     14  C   UNL     1      -0.187  10.087  20.658  0.00  0.00    +0.000 C 
ATOM     15  O   UNL     1       0.482  10.516  19.453  0.00  0.00    +0.000 OA
ENDBRANCH   4   7
ENDBRANCH   1   3
BRANCH   1  16
ATOM     16  N   UNL     1       5.581   3.717  18.936  0.00  0.00    +0.000 N 
ATOM     17  H   UNL     1       5.972   2.776  18.819  0.00  0.00    +0.000 HD
BRANCH  16  23
ATOM     18  C   UNL     1       6.305   5.038  16.990  0.00  0.00    +0.000 A 
ATOM     19  C   UNL     1       7.061   6.110  16.485  0.00  0.00    +0.000 A 
ATOM     20  C   UNL     1       7.798   6.932  17.336  0.00  0.00    +0.000 A 
ATOM     21  C   UNL     1       7.790   6.689  18.702  0.00  0.00    +0.000 A 
ATOM     22  C   UNL     1       7.066   5.613  19.213  0.00  0.00    +0.000 A 
ATOM     23  C   UNL     1       6.337   4.761  18.370  0.00  0.00    +0.000 A 
BRANCH  18  24
ATOM     24  C   UNL     1       5.586   4.232  15.968  0.00  0.00    +0.000 C 
ATOM     25  O   UNL     1       4.385   4.005  16.031  0.00  0.00    +0.000 OA
BRANCH  24  27
ATOM     26  C   UNL     1       6.012   3.915  13.701  0.00  0.00    +0.000 C 
ATOM     27  O   UNL     1       6.435   3.704  15.052  0.00  0.00    +0.000 OA
ENDBRANCH  24  27
ENDBRANCH  18  24
ENDBRANCH  16  23
ENDBRANCH   1  16
TORSDOF 6
ENDMDL
MODEL 3
REMARK VINA RESULT:      -7.7      1.850      3.085
REMARK  Name = 
REMARK  7 active torsions:
REMARK  status: ('A' for Active; 'I' for Inactive)
REMARK    1  A    between atoms: C_1  and  O_2
REMARK    2  A    between atoms: O_2  and  C_3
REMARK    3  A    between atoms: C_3  and  C_5
REMARK    4  A    between atoms: C_10  and  N_11
REMARK    5  A    between atoms: N_11  and  C_12
REMARK    6  A    between atoms: C_12  and  N_14
REMARK    7  A    between atoms: C_15  and  C_17
REMARK                            x       y       z     vdW  Elec       q    Type
REMARK                         _______ _______ _______ _____ _____    ______ ____
ROOT
ATOM      1  C   UNL     1       4.885   3.880  19.245  0.00  0.00    +0.000 C 
ATOM      2  S   UNL     1       4.345   2.466  19.963  0.00  0.00    +0.000 S 
ENDROOT
BRANCH   1   3
ATOM      3  N   UNL     1       4.043   4.974  19.311  0.00  0.00    +0.000 N 
ATOM      4  C   UNL     1       3.040   5.321  18.422  0.00  0.00    +0.000 C 
ATOM      5  O   UNL     1       2.649   4.612  17.505  0.00  0.00    +0.000 OA
ATOM      6  H   UNL     1       4.243   5.574  20.096  0.00  0.00    +0.000 HD
BRANCH   4   7
ATOM      7  C   UNL     1       2.333   6.584  18.735  0.00  0.00    +0.000 A 
ATOM      8  C   UNL     1       1.960   6.792  20.083  0.00  0.00    +0.000 A 
ATOM      9  C   UNL     1       1.519   8.045  20.509  0.00  0.00    +0.000 A 
ATOM     10  C   UNL     1       1.497   9.051  19.571  0.00  0.00    +0.000 A 
ATOM     11  C   UNL     1       1.785   8.821  18.242  0.00  0.00    +0.000 A 
ATOM     12  C   UNL     1       2.164   7.586  17.775  0.00  0.00    +0.000 A 
ATOM     13  O   UNL     1       1.766   9.969  17.509  0.00  0.00    +0.000 OA
ATOM     14  C   UNL     1       1.793  10.928  18.587  0.00  0.00    +0.000 C 
ATOM     15  O   UNL     1       1.293  10.373  19.822  0.00  0.00    +0.000 OA
ENDBRANCH   4   7
ENDBRANCH   1   3
BRANCH   1  16
ATOM     16  N   UNL     1       6.054   4.081  18.563  0.00  0.00    +0.000 N 
ATOM     17  H   UNL     1       6.915   3.925  19.096  0.00  0.00    +0.000 HD
BRANCH  16  23
ATOM     18  C   UNL     1       6.935   5.567  16.810  0.00  0.00    +0.000 A 
ATOM     19  C   UNL     1       7.106   5.833  15.440  0.00  0.00    +0.000 A 
ATOM     20  C   UNL     1       6.636   4.945  14.473  0.00  0.00    +0.000 A 
ATOM     21  C   UNL     1       5.989   3.782  14.865  0.00  0.00    +0.000 A 
ATOM     22  C   UNL     1       5.790   3.520  16.219  0.00  0.00    +0.000 A 
ATOM     23  C   UNL     1       6.234   4.412  17.206  0.00  0.00    +0.000 A 
BRANCH  18  24
ATOM     24  C   UNL     1       7.464   6.609  17.729  0.00  0.00    +0.000 C 
ATOM     25  O   UNL     1       7.934   6.344  18.827  0.00  0.00    +0.000 OA
BRANCH  24  27
ATOM     26  C   UNL     1       8.116   8.842  17.834  0.00  0.00    +0.000 C 
ATOM     27  O   UNL     1       7.254   7.860  17.249  0.00  0.00    +0.000 OA
ENDBRANCH  24  27
ENDBRANCH  18  24
ENDBRANCH  16  23
ENDBRANCH   1  16
TORSDOF 6
ENDMDL
MODEL 4
REMARK VINA RESULT:      -7.6      1.363      2.601
REMARK  Name = 
REMARK  7 active torsions:
REMARK  status: ('A' for Active; 'I' for Inactive)
REMARK    1  A    between atoms: C_1  and  O_2
REMARK    2  A    between atoms: O_2  and  C_3
REMARK    3  A    between atoms: C_3  and  C_5
REMARK    4  A    between atoms: C_10  and  N_11
REMARK    5  A    between atoms: N_11  and  C_12
REMARK    6  A    between atoms: C_12  and  N_14
REMARK    7  A    between atoms: C_15  and  C_17
REMARK                            x       y       z     vdW  Elec       q    Type
REMARK                         _______ _______ _______ _____ _____    ______ ____
ROOT
ATOM      1  C   UNL     1       3.610   3.705  17.676  0.00  0.00    +0.000 C 
ATOM      2  S   UNL     1       2.414   2.534  17.745  0.00  0.00    +0.000 S 
ENDROOT
BRANCH   1   3
ATOM      3  N   UNL     1       3.228   5.003  17.953  0.00  0.00    +0.000 N 
ATOM      4  C   UNL     1       2.999   5.569  19.196  0.00  0.00    +0.000 C 
ATOM      5  O   UNL     1       3.250   5.026  20.262  0.00  0.00    +0.000 OA
ATOM      6  H   UNL     1       3.081   5.553  17.121  0.00  0.00    +0.000 HD
BRANCH   4   7
ATOM      7  C   UNL     1       2.553   6.981  19.171  0.00  0.00    +0.000 A 
ATOM      8  C   UNL     1       2.691   7.676  17.947  0.00  0.00    +0.000 A 
ATOM      9  C   UNL     1       2.075   8.913  17.763  0.00  0.00    +0.000 A 
ATOM     10  C   UNL     1       1.318   9.395  18.805  0.00  0.00    +0.000 A 
ATOM     11  C   UNL     1       1.253   8.751  20.023  0.00  0.00    +0.000 A 
ATOM     12  C   UNL     1       1.896   7.560  20.261  0.00  0.00    +0.000 A 
ATOM     13  O   UNL     1       0.394   9.368  20.882  0.00  0.00    +0.000 OA
ATOM     14  C   UNL     1      -0.299  10.215  19.943  0.00  0.00    +0.000 C 
ATOM     15  O   UNL     1       0.486  10.471  18.759  0.00  0.00    +0.000 OA
ENDBRANCH   4   7
ENDBRANCH   1   3
BRANCH   1  16
ATOM     16  N   UNL     1       4.927   3.541  17.341  0.00  0.00    +0.000 N 
ATOM     17  H   UNL     1       5.494   3.004  18.006  0.00  0.00    +0.000 HD
BRANCH  16  23
ATOM     18  C   UNL     1       6.812   4.661  16.224  0.00  0.00    +0.000 A 
ATOM     19  C   UNL     1       7.447   5.026  15.024  0.00  0.00    +0.000 A 
ATOM     20  C   UNL     1       6.915   4.656  13.789  0.00  0.00    +0.000 A 
ATOM     21  C   UNL     1       5.741   3.919  13.741  0.00  0.00    +0.000 A 
ATOM     22  C   UNL     1       5.088   3.572  14.922  0.00  0.00    +0.000 A 
ATOM     23  C   UNL     1       5.595   3.956  16.172  0.00  0.00    +0.000 A 
BRANCH  18  24
ATOM     24  C   UNL     1       7.476   5.141  17.465  0.00  0.00    +0.000 C 
ATOM     25  O   UNL     1       7.649   4.424  18.441  0.00  0.00    +0.000 OA
BRANCH  24  27
ATOM     26  C   UNL     1       6.578   7.289  17.487  0.00  0.00    +0.000 C 
ATOM     27  O   UNL     1       7.749   6.468  17.410  0.00  0.00    +0.000 OA
ENDBRANCH  24  27
ENDBRANCH  18  24
ENDBRANCH  16  23
ENDBRANCH   1  16
TORSDOF 6
ENDMDL
MODEL 5
REMARK VINA RESULT:      -7.6      0.976      1.597
REMARK  Name = 
REMARK  7 active torsions:
REMARK  status: ('A' for Active; 'I' for Inactive)
REMARK    1  A    between atoms: C_1  and  O_2
REMARK    2  A    between atoms: O_2  and  C_3
REMARK    3  A    between atoms: C_3  and  C_5
REMARK    4  A    between atoms: C_10  and  N_11
REMARK    5  A    between atoms: N_11  and  C_12
REMARK    6  A    between atoms: C_12  and  N_14
REMARK    7  A    between atoms: C_15  and  C_17
REMARK                            x       y       z     vdW  Elec       q    Type
REMARK                         _______ _______ _______ _____ _____    ______ ____
ROOT
ATOM      1  C   UNL     1       4.282   3.542  18.108  0.00  0.00    +0.000 C 
ATOM      2  S   UNL     1       3.359   2.144  18.085  0.00  0.00    +0.000 S 
ENDROOT
BRANCH   1   3
ATOM      3  N   UNL     1       3.608   4.731  18.309  0.00  0.00    +0.000 N 
ATOM      4  C   UNL     1       3.072   5.208  19.493  0.00  0.00    +0.000 C 
ATOM      5  O   UNL     1       3.252   4.699  20.591  0.00  0.00    +0.000 OA
ATOM      6  H   UNL     1       3.489   5.261  17.460  0.00  0.00    +0.000 HD
BRANCH   4   7
ATOM      7  C   UNL     1       2.362   6.503  19.385  0.00  0.00    +0.000 A 
ATOM      8  C   UNL     1       1.774   7.013  20.566  0.00  0.00    +0.000 A 
ATOM      9  C   UNL     1       1.308   8.326  20.614  0.00  0.00    +0.000 A 
ATOM     10  C   UNL     1       1.476   9.089  19.482  0.00  0.00    +0.000 A 
ATOM     11  C   UNL     1       1.975   8.562  18.310  0.00  0.00    +0.000 A 
ATOM     12  C   UNL     1       2.389   7.257  18.208  0.00  0.00    +0.000 A 
ATOM     13  O   UNL     1       2.117   9.512  17.343  0.00  0.00    +0.000 OA
ATOM     14  C   UNL     1       1.992  10.693  18.162  0.00  0.00    +0.000 C 
ATOM     15  O   UNL     1       1.274  10.432  19.386  0.00  0.00    +0.000 OA
ENDBRANCH   4   7
ENDBRANCH   1   3
BRANCH   1  16
ATOM     16  N   UNL     1       5.632   3.660  17.916  0.00  0.00    +0.000 N 
ATOM     17  H   UNL     1       6.119   2.804  17.633  0.00  0.00    +0.000 HD
BRANCH  16  23
ATOM     18  C   UNL     1       6.583   5.687  16.897  0.00  0.00    +0.000 A 
ATOM     19  C   UNL     1       7.374   6.841  17.038  0.00  0.00    +0.000 A 
ATOM     20  C   UNL     1       7.968   7.157  18.260  0.00  0.00    +0.000 A 
ATOM     21  C   UNL     1       7.779   6.324  19.352  0.00  0.00    +0.000 A 
ATOM     22  C   UNL     1       7.018   5.163  19.218  0.00  0.00    +0.000 A 
ATOM     23  C   UNL     1       6.433   4.816  17.991  0.00  0.00    +0.000 A 
BRANCH  18  24
ATOM     24  C   UNL     1       6.030   5.461  15.535  0.00  0.00    +0.000 C 
ATOM     25  O   UNL     1       4.833   5.325  15.322  0.00  0.00    +0.000 OA
BRANCH  24  27
ATOM     26  C   UNL     1       6.712   4.321  13.622  0.00  0.00    +0.000 C 
ATOM     27  O   UNL     1       7.011   5.314  14.610  0.00  0.00    +0.000 OA
ENDBRANCH  24  27
ENDBRANCH  18  24
ENDBRANCH  16  23
ENDBRANCH   1  16
TORSDOF 6
ENDMDL
MODEL 6
REMARK VINA RESULT:      -7.5      2.504      3.639
REMARK  Name = 
REMARK  7 active torsions:
REMARK  status: ('A' for Active; 'I' for Inactive)
REMARK    1  A    between atoms: C_1  and  O_2
REMARK    2  A    between atoms: O_2  and  C_3
REMARK    3  A    between atoms: C_3  and  C_5
REMARK    4  A    between atoms: C_10  and  N_11
REMARK    5  A    between atoms: N_11  and  C_12
REMARK    6  A    between atoms: C_12  and  N_14
REMARK    7  A    between atoms: C_15  and  C_17
REMARK                            x       y       z     vdW  Elec       q    Type
REMARK                         _______ _______ _______ _____ _____    ______ ____
ROOT
ATOM      1  C   UNL     1       2.502   5.702  20.109  0.00  0.00    +0.000 C 
ATOM      2  S   UNL     1       1.499   4.365  20.214  0.00  0.00    +0.000 S 
ENDROOT
BRANCH   1   3
ATOM      3  N   UNL     1       1.950   6.924  20.439  0.00  0.00    +0.000 N 
ATOM      4  C   UNL     1       1.766   8.019  19.612  0.00  0.00    +0.000 C 
ATOM      5  O   UNL     1       1.938   8.011  18.401  0.00  0.00    +0.000 OA
ATOM      6  H   UNL     1       1.696   6.988  21.413  0.00  0.00    +0.000 HD
BRANCH   4   7
ATOM      7  C   UNL     1       1.185   9.213  20.268  0.00  0.00    +0.000 A 
ATOM      8  C   UNL     1       0.692  10.234  19.423  0.00  0.00    +0.000 A 
ATOM      9  C   UNL     1      -0.087  11.267  19.942  0.00  0.00    +0.000 A 
ATOM     10  C   UNL     1      -0.368  11.221  21.288  0.00  0.00    +0.000 A 
ATOM     11  C   UNL     1       0.182  10.268  22.120  0.00  0.00    +0.000 A 
ATOM     12  C   UNL     1       1.003   9.270  21.654  0.00  0.00    +0.000 A 
ATOM     13  O   UNL     1      -0.286  10.372  23.395  0.00  0.00    +0.000 OA
ATOM     14  C   UNL     1      -1.415  11.236  23.154  0.00  0.00    +0.000 C 
ATOM     15  O   UNL     1      -1.261  12.010  21.946  0.00  0.00    +0.000 OA
ENDBRANCH   4   7
ENDBRANCH   1   3
BRANCH   1  16
ATOM     16  N   UNL     1       3.807   5.742  19.697  0.00  0.00    +0.000 N 
ATOM     17  H   UNL     1       4.505   5.874  20.435  0.00  0.00    +0.000 HD
BRANCH  16  23
ATOM     18  C   UNL     1       4.497   4.280  17.841  0.00  0.00    +0.000 A 
ATOM     19  C   UNL     1       4.993   4.160  16.531  0.00  0.00    +0.000 A 
ATOM     20  C   UNL     1       5.267   5.291  15.763  0.00  0.00    +0.000 A 
ATOM     21  C   UNL     1       5.050   6.553  16.296  0.00  0.00    +0.000 A 
ATOM     22  C   UNL     1       4.583   6.685  17.603  0.00  0.00    +0.000 A 
ATOM     23  C   UNL     1       4.324   5.560  18.399  0.00  0.00    +0.000 A 
BRANCH  18  24
ATOM     24  C   UNL     1       4.270   2.994  18.553  0.00  0.00    +0.000 C 
ATOM     25  O   UNL     1       3.545   2.113  18.111  0.00  0.00    +0.000 OA
BRANCH  24  27
ATOM     26  C   UNL     1       4.745   1.721  20.444  0.00  0.00    +0.000 C 
ATOM     27  O   UNL     1       4.865   2.980  19.772  0.00  0.00    +0.000 OA
ENDBRANCH  24  27
ENDBRANCH  18  24
ENDBRANCH  16  23
ENDBRANCH   1  16
TORSDOF 6
ENDMDL
MODEL 7
REMARK VINA RESULT:      -7.4      1.951      3.219
REMARK  Name = 
REMARK  7 active torsions:
REMARK  status: ('A' for Active; 'I' for Inactive)
REMARK    1  A    between atoms: C_1  and  O_2
REMARK    2  A    between atoms: O_2  and  C_3
REMARK    3  A    between atoms: C_3  and  C_5
REMARK    4  A    between atoms: C_10  and  N_11
REMARK    5  A    between atoms: N_11  and  C_12
REMARK    6  A    between atoms: C_12  and  N_14
REMARK    7  A    between atoms: C_15  and  C_17
REMARK                            x       y       z     vdW  Elec       q    Type
REMARK                         _______ _______ _______ _____ _____    ______ ____
ROOT
ATOM      1  C   UNL     1       3.854   5.202  19.526  0.00  0.00    +0.000 C 
ATOM      2  S   UNL     1       3.401   3.630  19.885  0.00  0.00    +0.000 S 
ENDROOT
BRANCH   1   3
ATOM      3  N   UNL     1       2.979   6.204  19.898  0.00  0.00    +0.000 N 
ATOM      4  C   UNL     1       2.577   7.295  19.148  0.00  0.00    +0.000 C 
ATOM      5  O   UNL     1       2.834   7.456  17.963  0.00  0.00    +0.000 OA
ATOM      6  H   UNL     1       2.647   6.100  20.845  0.00  0.00    +0.000 HD
BRANCH   4   7
ATOM      7  C   UNL     1       1.658   8.229  19.839  0.00  0.00    +0.000 A 
ATOM      8  C   UNL     1       1.381   7.965  21.201  0.00  0.00    +0.000 A 
ATOM      9  C   UNL     1       0.735   8.917  21.988  0.00  0.00    +0.000 A 
ATOM     10  C   UNL     1       0.418  10.113  21.387  0.00  0.00    +0.000 A 
ATOM     11  C   UNL     1       0.619  10.333  20.040  0.00  0.00    +0.000 A 
ATOM     12  C   UNL     1       1.197   9.395  19.221  0.00  0.00    +0.000 A 
ATOM     13  O   UNL     1       0.296  11.606  19.677  0.00  0.00    +0.000 OA
ATOM     14  C   UNL     1       0.228  12.207  20.986  0.00  0.00    +0.000 C 
ATOM     15  O   UNL     1      -0.028  11.233  22.020  0.00  0.00    +0.000 OA
ENDBRANCH   4   7
ENDBRANCH   1   3
BRANCH   1  16
ATOM     16  N   UNL     1       4.979   5.622  18.869  0.00  0.00    +0.000 N 
ATOM     17  H   UNL     1       5.642   6.171  19.425  0.00  0.00    +0.000 HD
BRANCH  16  23
ATOM     18  C   UNL     1       6.575   5.861  17.012  0.00  0.00    +0.000 A 
ATOM     19  C   UNL     1       6.938   5.530  15.694  0.00  0.00    +0.000 A 
ATOM     20  C   UNL     1       6.159   4.660  14.933  0.00  0.00    +0.000 A 
ATOM     21  C   UNL     1       5.007   4.113  15.479  0.00  0.00    +0.000 A 
ATOM     22  C   UNL     1       4.622   4.454  16.775  0.00  0.00    +0.000 A 
ATOM     23  C   UNL     1       5.381   5.346  17.548  0.00  0.00    +0.000 A 
BRANCH  18  24
ATOM     24  C   UNL     1       7.485   6.816  17.699  0.00  0.00    +0.000 C 
ATOM     25  O   UNL     1       8.044   6.552  18.754  0.00  0.00    +0.000 OA
BRANCH  24  27
ATOM     26  C   UNL     1       8.144   9.044  17.858  0.00  0.00    +0.000 C 
ATOM     27  O   UNL     1       7.515   8.021  17.077  0.00  0.00    +0.000 OA
ENDBRANCH  24  27
ENDBRANCH  18  24
ENDBRANCH  16  23
ENDBRANCH   1  16
TORSDOF 6
ENDMDL
MODEL 8
REMARK VINA RESULT:      -7.4      2.146      3.490
REMARK  Name = 
REMARK  7 active torsions:
REMARK  status: ('A' for Active; 'I' for Inactive)
REMARK    1  A    between atoms: C_1  and  O_2
REMARK    2  A    between atoms: O_2  and  C_3
REMARK    3  A    between atoms: C_3  and  C_5
REMARK    4  A    between atoms: C_10  and  N_11
REMARK    5  A    between atoms: N_11  and  C_12
REMARK    6  A    between atoms: C_12  and  N_14
REMARK    7  A    between atoms: C_15  and  C_17
REMARK                            x       y       z     vdW  Elec       q    Type
REMARK                         _______ _______ _______ _____ _____    ______ ____
ROOT
ATOM      1  C   UNL     1       2.677   5.371  20.544  0.00  0.00    +0.000 C 
ATOM      2  S   UNL     1       1.863   4.004  21.068  0.00  0.00    +0.000 S 
ENDROOT
BRANCH   1   3
ATOM      3  N   UNL     1       2.057   6.586  20.760  0.00  0.00    +0.000 N 
ATOM      4  C   UNL     1       1.960   7.652  19.882  0.00  0.00    +0.000 C 
ATOM      5  O   UNL     1       2.293   7.615  18.705  0.00  0.00    +0.000 OA
ATOM      6  H   UNL     1       1.674   6.670  21.689  0.00  0.00    +0.000 HD
BRANCH   4   7
ATOM      7  C   UNL     1       1.270   8.848  20.418  0.00  0.00    +0.000 A 
ATOM      8  C   UNL     1       0.603   9.676  19.485  0.00  0.00    +0.000 A 
ATOM      9  C   UNL     1      -0.271  10.671  19.921  0.00  0.00    +0.000 A 
ATOM     10  C   UNL     1      -0.467  10.778  21.278  0.00  0.00    +0.000 A 
ATOM     11  C   UNL     1       0.246  10.022  22.185  0.00  0.00    +0.000 A 
ATOM     12  C   UNL     1       1.160   9.075  21.794  0.00  0.00    +0.000 A 
ATOM     13  O   UNL     1      -0.158  10.246  23.466  0.00  0.00    +0.000 OA
ATOM     14  C   UNL     1      -1.401  10.927  23.198  0.00  0.00    +0.000 C 
ATOM     15  O   UNL     1      -1.415  11.539  21.891  0.00  0.00    +0.000 OA
ENDBRANCH   4   7
ENDBRANCH   1   3
BRANCH   1  16
ATOM     16  N   UNL     1       3.877   5.433  19.889  0.00  0.00    +0.000 N 
ATOM     17  H   UNL     1       4.640   5.892  20.397  0.00  0.00    +0.000 HD
BRANCH  16  23
ATOM     18  C   UNL     1       5.535   4.965  18.133  0.00  0.00    +0.000 A 
ATOM     19  C   UNL     1       5.828   4.386  16.886  0.00  0.00    +0.000 A 
ATOM     20  C   UNL     1       4.850   3.700  16.167  0.00  0.00    +0.000 A 
ATOM     21  C   UNL     1       3.569   3.587  16.685  0.00  0.00    +0.000 A 
ATOM     22  C   UNL     1       3.259   4.180  17.908  0.00  0.00    +0.000 A 
ATOM     23  C   UNL     1       4.223   4.894  18.635  0.00  0.00    +0.000 A 
BRANCH  18  24
ATOM     24  C   UNL     1       6.665   5.685  18.779  0.00  0.00    +0.000 C 
ATOM     25  O   UNL     1       7.077   5.401  19.895  0.00  0.00    +0.000 OA
BRANCH  24  27
ATOM     26  C   UNL     1       8.272   7.354  18.545  0.00  0.00    +0.000 C 
ATOM     27  O   UNL     1       7.085   6.738  18.034  0.00  0.00    +0.000 OA
ENDBRANCH  24  27
ENDBRANCH  18  24
ENDBRANCH  16  23
ENDBRANCH   1  16
TORSDOF 6
ENDMDL
MODEL 9
REMARK VINA RESULT:      -7.4      1.534      3.025
REMARK  Name = 
REMARK  7 active torsions:
REMARK  status: ('A' for Active; 'I' for Inactive)
REMARK    1  A    between atoms: C_1  and  O_2
REMARK    2  A    between atoms: O_2  and  C_3
REMARK    3  A    between atoms: C_3  and  C_5
REMARK    4  A    between atoms: C_10  and  N_11
REMARK    5  A    between atoms: N_11  and  C_12
REMARK    6  A    between atoms: C_12  and  N_14
REMARK    7  A    between atoms: C_15  and  C_17
REMARK                            x       y       z     vdW  Elec       q    Type
REMARK                         _______ _______ _______ _____ _____    ______ ____
ROOT
ATOM      1  C   UNL     1       3.952   3.610  17.636  0.00  0.00    +0.000 C 
ATOM      2  S   UNL     1       3.011   2.224  17.678  0.00  0.00    +0.000 S 
ENDROOT
BRANCH   1   3
ATOM      3  N   UNL     1       3.321   4.802  17.933  0.00  0.00    +0.000 N 
ATOM      4  C   UNL     1       3.195   5.404  19.173  0.00  0.00    +0.000 C 
ATOM      5  O   UNL     1       3.766   5.030  20.188  0.00  0.00    +0.000 OA
ATOM      6  H   UNL     1       2.890   5.227  17.127  0.00  0.00    +0.000 HD
BRANCH   4   7
ATOM      7  C   UNL     1       2.418   6.665  19.183  0.00  0.00    +0.000 A 
ATOM      8  C   UNL     1       1.823   7.042  20.410  0.00  0.00    +0.000 A 
ATOM      9  C   UNL     1       1.291   8.320  20.574  0.00  0.00    +0.000 A 
ATOM     10  C   UNL     1       1.403   9.184  19.511  0.00  0.00    +0.000 A 
ATOM     11  C   UNL     1       1.912   8.786  18.292  0.00  0.00    +0.000 A 
ATOM     12  C   UNL     1       2.389   7.517  18.075  0.00  0.00    +0.000 A 
ATOM     13  O   UNL     1       1.991   9.820  17.409  0.00  0.00    +0.000 OA
ATOM     14  C   UNL     1       1.818  10.919  18.327  0.00  0.00    +0.000 C 
ATOM     15  O   UNL     1       1.132  10.518  19.532  0.00  0.00    +0.000 OA
ENDBRANCH   4   7
ENDBRANCH   1   3
BRANCH   1  16
ATOM     16  N   UNL     1       5.276   3.715  17.306  0.00  0.00    +0.000 N 
ATOM     17  H   UNL     1       5.941   3.409  18.023  0.00  0.00    +0.000 HD
BRANCH  16  23
ATOM     18  C   UNL     1       6.777   5.182  16.022  0.00  0.00    +0.000 A 
ATOM     19  C   UNL     1       7.335   5.534  14.780  0.00  0.00    +0.000 A 
ATOM     20  C   UNL     1       7.019   4.820  13.624  0.00  0.00    +0.000 A 
ATOM     21  C   UNL     1       6.141   3.749  13.697  0.00  0.00    +0.000 A 
ATOM     22  C   UNL     1       5.561   3.407  14.918  0.00  0.00    +0.000 A 
ATOM     23  C   UNL     1       5.848   4.127  16.086  0.00  0.00    +0.000 A 
BRANCH  18  24
ATOM     24  C   UNL     1       7.183   6.042  17.165  0.00  0.00    +0.000 C 
ATOM     25  O   UNL     1       7.163   5.652  18.325  0.00  0.00    +0.000 OA
BRANCH  24  27
ATOM     26  C   UNL     1       7.921   8.146  17.838  0.00  0.00    +0.000 C 
ATOM     27  O   UNL     1       7.457   7.310  16.771  0.00  0.00    +0.000 OA
ENDBRANCH  24  27
ENDBRANCH  18  24
ENDBRANCH  16  23
ENDBRANCH   1  16
TORSDOF 6
ENDMDL
