MODEL 1
REMARK VINA RESULT:      -7.7      0.000      0.000
REMARK  Name = 
REMARK  8 active torsions:
REMARK  status: ('A' for Active; 'I' for Inactive)
REMARK    1  A    between atoms: C_1  and  O_2
REMARK    2  A    between atoms: O_2  and  C_3
REMARK    3  A    between atoms: C_9  and  C_10
REMARK    4  A    between atoms: N_12  and  C_13
REMARK    5  A    between atoms: C_13  and  C_14
REMARK    6  A    between atoms: C_13  and  C_15
REMARK    7  A    between atoms: N_22  and  C_23
REMARK    8  A    between atoms: C_23  and  C_24
REMARK                            x       y       z     vdW  Elec       q    Type
REMARK                         _______ _______ _______ _____ _____    ______ ____
ROOT
ATOM      1  C   UNL     1      -3.339  12.289  20.095  0.00  0.00    +0.000 A 
ATOM      2  C   UNL     1      -3.337  11.944  18.802  0.00  0.00    +0.000 A 
ATOM      3  C   UNL     1      -2.129  11.411  18.157  0.00  0.00    +0.000 A 
ATOM      4  O   UNL     1      -2.222  11.000  17.004  0.00  0.00    +0.000 OA
ATOM      5  N   UNL     1      -0.980  11.394  18.931  0.00  0.00    +0.000 N 
ATOM      6  C   UNL     1      -0.956  11.806  20.283  0.00  0.00    +0.000 A 
ATOM      7  C   UNL     1      -2.105  12.208  20.906  0.00  0.00    +0.000 A 
ATOM      8  C   UNL     1       0.406  11.667  20.942  0.00  0.00    +0.000 C 
ATOM      9  C   UNL     1       0.666  10.205  21.313  0.00  0.00    +0.000 C 
ATOM     10  N   UNL     1       1.275   9.396  20.238  0.00  0.00    +0.000 NA
ATOM     11  C   UNL     1       0.478   9.359  18.989  0.00  0.00    +0.000 C 
ATOM     12  C   UNL     1       0.191  10.727  18.337  0.00  0.00    +0.000 C 
ENDROOT
BRANCH   7  13
ATOM     13  C   UNL     1      -2.129  12.459  22.426  0.00  0.00    +0.000 C 
ATOM     14  O   UNL     1      -1.963  11.581  23.266  0.00  0.00    +0.000 OA
ATOM     15  N   UNL     1      -2.420  13.732  22.822  0.00  0.00    +0.000 N 
ATOM     16  H   UNL     1      -2.457  14.461  22.122  0.00  0.00    +0.000 HD
BRANCH  15  17
ATOM     17  C   UNL     1      -2.548  14.172  24.197  0.00  0.00    +0.000 C 
ATOM     18  C   UNL     1      -1.303  14.925  24.652  0.00  0.00    +0.000 C 
BRANCH  17  19
ATOM     19  C   UNL     1      -3.768  15.036  24.263  0.00  0.00    +0.000 A 
ATOM     20  C   UNL     1      -5.038  14.910  23.738  0.00  0.00    +0.000 A 
ATOM     21  C   UNL     1      -5.739  16.085  24.097  0.00  0.00    +0.000 A 
ATOM     22  C   UNL     1      -4.860  16.851  24.825  0.00  0.00    +0.000 A 
ATOM     23  O   UNL     1      -3.660  16.227  24.930  0.00  0.00    +0.000 OA
ENDBRANCH  17  19
ENDBRANCH  15  17
ENDBRANCH   7  13
BRANCH   1  25
ATOM     24  C   UNL     1      -5.148  13.851  20.156  0.00  0.00    +0.000 C 
ATOM     25  O   UNL     1      -4.470  12.741  20.748  0.00  0.00    +0.000 OA
ENDBRANCH   1  25
BRANCH  10  26
ATOM     26  C   UNL     1       1.488   8.009  20.706  0.00  0.00    +0.000 C 
BRANCH  26  27
ATOM     27  C   UNL     1       2.167   7.117  19.684  0.00  0.00    +0.000 A 
ATOM     28  C   UNL     1       2.956   7.738  18.706  0.00  0.00    +0.000 A 
ATOM     29  C   UNL     1       3.549   6.957  17.738  0.00  0.00    +0.000 A 
ATOM     30  N   UNL     1       3.353   5.629  17.630  0.00  0.00    +0.000 NA
ATOM     31  C   UNL     1       2.584   5.026  18.550  0.00  0.00    +0.000 A 
ATOM     32  C   UNL     1       2.316   3.674  18.383  0.00  0.00    +0.000 A 
ATOM     33  C   UNL     1       1.547   2.952  19.297  0.00  0.00    +0.000 A 
ATOM     34  C   UNL     1       1.098   3.575  20.451  0.00  0.00    +0.000 A 
ATOM     35  C   UNL     1       1.330   4.938  20.629  0.00  0.00    +0.000 A 
ATOM     36  C   UNL     1       2.015   5.705  19.652  0.00  0.00    +0.000 A 
ENDBRANCH  26  27
ENDBRANCH  10  26
TORSDOF 6
ENDMDL
MODEL 2
REMARK VINA RESULT:      -7.7      3.257      9.513
REMARK  Name = 
REMARK  8 active torsions:
REMARK  status: ('A' for Active; 'I' for Inactive)
REMARK    1  A    between atoms: C_1  and  O_2
REMARK    2  A    between atoms: O_2  and  C_3
REMARK    3  A    between atoms: C_9  and  C_10
REMARK    4  A    between atoms: N_12  and  C_13
REMARK    5  A    between atoms: C_13  and  C_14
REMARK    6  A    between atoms: C_13  and  C_15
REMARK    7  A    between atoms: N_22  and  C_23
REMARK    8  A    between atoms: C_23  and  C_24
REMARK                            x       y       z     vdW  Elec       q    Type
REMARK                         _______ _______ _______ _____ _____    ______ ____
ROOT
ATOM      1  C   UNL     1      -0.201  10.218  20.026  0.00  0.00    +0.000 A 
ATOM      2  C   UNL     1       0.180   9.841  21.253  0.00  0.00    +0.000 A 
ATOM      3  C   UNL     1      -0.248  10.584  22.446  0.00  0.00    +0.000 A 
ATOM      4  O   UNL     1       0.032  10.121  23.547  0.00  0.00    +0.000 OA
ATOM      5  N   UNL     1      -0.964  11.748  22.216  0.00  0.00    +0.000 N 
ATOM      6  C   UNL     1      -1.327  12.187  20.923  0.00  0.00    +0.000 A 
ATOM      7  C   UNL     1      -1.012  11.437  19.823  0.00  0.00    +0.000 A 
ATOM      8  C   UNL     1      -2.142  13.469  20.916  0.00  0.00    +0.000 C 
ATOM      9  C   UNL     1      -3.594  13.174  21.296  0.00  0.00    +0.000 C 
ATOM     10  N   UNL     1      -3.867  13.190  22.749  0.00  0.00    +0.000 NA
ATOM     11  C   UNL     1      -3.045  12.232  23.525  0.00  0.00    +0.000 C 
ATOM     12  C   UNL     1      -1.517  12.413  23.409  0.00  0.00    +0.000 C 
ENDROOT
BRANCH   7  13
ATOM     13  C   UNL     1      -1.580  11.799  18.437  0.00  0.00    +0.000 C 
ATOM     14  O   UNL     1      -1.029  12.562  17.650  0.00  0.00    +0.000 OA
ATOM     15  N   UNL     1      -2.800  11.271  18.130  0.00  0.00    +0.000 N 
ATOM     16  H   UNL     1      -3.194  10.569  18.743  0.00  0.00    +0.000 HD
BRANCH  15  17
ATOM     17  C   UNL     1      -3.538  11.525  16.909  0.00  0.00    +0.000 C 
ATOM     18  C   UNL     1      -3.346  10.394  15.904  0.00  0.00    +0.000 C 
BRANCH  17  19
ATOM     19  C   UNL     1      -4.975  11.678  17.296  0.00  0.00    +0.000 A 
ATOM     20  C   UNL     1      -5.916  12.658  17.052  0.00  0.00    +0.000 A 
ATOM     21  C   UNL     1      -7.093  12.264  17.732  0.00  0.00    +0.000 A 
ATOM     22  C   UNL     1      -6.803  11.067  18.341  0.00  0.00    +0.000 A 
ATOM     23  O   UNL     1      -5.521  10.702  18.087  0.00  0.00    +0.000 OA
ENDBRANCH  17  19
ENDBRANCH  15  17
ENDBRANCH   7  13
BRANCH   1  25
ATOM     24  C   UNL     1       1.447   8.946  18.850  0.00  0.00    +0.000 C 
ATOM     25  O   UNL     1       0.135   9.511  18.887  0.00  0.00    +0.000 OA
ENDBRANCH   1  25
BRANCH  10  26
ATOM     26  C   UNL     1      -5.295  12.901  23.000  0.00  0.00    +0.000 C 
BRANCH  26  27
ATOM     27  C   UNL     1      -6.236  13.962  22.462  0.00  0.00    +0.000 A 
ATOM     28  C   UNL     1      -7.083  13.601  21.405  0.00  0.00    +0.000 A 
ATOM     29  C   UNL     1      -7.916  14.558  20.868  0.00  0.00    +0.000 A 
ATOM     30  N   UNL     1      -7.913  15.848  21.251  0.00  0.00    +0.000 NA
ATOM     31  C   UNL     1      -7.093  16.211  22.250  0.00  0.00    +0.000 A 
ATOM     32  C   UNL     1      -7.031  17.557  22.580  0.00  0.00    +0.000 A 
ATOM     33  C   UNL     1      -6.228  18.030  23.618  0.00  0.00    +0.000 A 
ATOM     34  C   UNL     1      -5.525  17.127  24.401  0.00  0.00    +0.000 A 
ATOM     35  C   UNL     1      -5.549  15.772  24.074  0.00  0.00    +0.000 A 
ATOM     36  C   UNL     1      -6.274  15.296  22.951  0.00  0.00    +0.000 A 
ENDBRANCH  26  27
ENDBRANCH  10  26
TORSDOF 6
ENDMDL
MODEL 3
REMARK VINA RESULT:      -7.6      1.087      1.336
REMARK  Name = 
REMARK  8 active torsions:
REMARK  status: ('A' for Active; 'I' for Inactive)
REMARK    1  A    between atoms: C_1  and  O_2
REMARK    2  A    between atoms: O_2  and  C_3
REMARK    3  A    between atoms: C_9  and  C_10
REMARK    4  A    between atoms: N_12  and  C_13
REMARK    5  A    between atoms: C_13  and  C_14
REMARK    6  A    between atoms: C_13  and  C_15
REMARK    7  A    between atoms: N_22  and  C_23
REMARK    8  A    between atoms: C_23  and  C_24
REMARK                            x       y       z     vdW  Elec       q    Type
REMARK                         _______ _______ _______ _____ _____    ______ ____
ROOT
ATOM      1  C   UNL     1      -3.247  12.095  19.544  0.00  0.00    +0.000 A 
ATOM      2  C   UNL     1      -3.099  11.763  18.256  0.00  0.00    +0.000 A 
ATOM      3  C   UNL     1      -1.826  11.237  17.746  0.00  0.00    +0.000 A 
ATOM      4  O   UNL     1      -1.788  10.838  16.586  0.00  0.00    +0.000 OA
ATOM      5  N   UNL     1      -0.770  11.215  18.643  0.00  0.00    +0.000 N 
ATOM      6  C   UNL     1      -0.898  11.615  19.993  0.00  0.00    +0.000 A 
ATOM      7  C   UNL     1      -2.111  12.008  20.487  0.00  0.00    +0.000 A 
ATOM      8  C   UNL     1       0.381  11.471  20.799  0.00  0.00    +0.000 C 
ATOM      9  C   UNL     1       0.602  10.007  21.183  0.00  0.00    +0.000 C 
ATOM     10  N   UNL     1       1.330   9.208  20.175  0.00  0.00    +0.000 NA
ATOM     11  C   UNL     1       0.678   9.182  18.845  0.00  0.00    +0.000 C 
ATOM     12  C   UNL     1       0.461  10.555  18.177  0.00  0.00    +0.000 C 
ENDROOT
BRANCH   7  13
ATOM     13  C   UNL     1      -2.305  12.245  21.998  0.00  0.00    +0.000 C 
ATOM     14  O   UNL     1      -1.911  11.474  22.866  0.00  0.00    +0.000 OA
ATOM     15  N   UNL     1      -3.020  13.354  22.347  0.00  0.00    +0.000 N 
ATOM     16  H   UNL     1      -3.252  14.028  21.629  0.00  0.00    +0.000 HD
BRANCH  15  17
ATOM     17  C   UNL     1      -3.365  13.734  23.702  0.00  0.00    +0.000 C 
ATOM     18  C   UNL     1      -2.815  15.114  24.044  0.00  0.00    +0.000 C 
BRANCH  17  19
ATOM     19  C   UNL     1      -4.858  13.700  23.793  0.00  0.00    +0.000 A 
ATOM     20  C   UNL     1      -5.825  14.685  23.766  0.00  0.00    +0.000 A 
ATOM     21  C   UNL     1      -7.067  14.035  23.954  0.00  0.00    +0.000 A 
ATOM     22  C   UNL     1      -6.786  12.696  24.074  0.00  0.00    +0.000 A 
ATOM     23  O   UNL     1      -5.450  12.479  23.981  0.00  0.00    +0.000 OA
ENDBRANCH  17  19
ENDBRANCH  15  17
ENDBRANCH   7  13
BRANCH   1  25
ATOM     24  C   UNL     1      -5.624  11.856  19.640  0.00  0.00    +0.000 C 
ATOM     25  O   UNL     1      -4.445  12.539  20.072  0.00  0.00    +0.000 OA
ENDBRANCH   1  25
BRANCH  10  26
ATOM     26  C   UNL     1       1.493   7.817  20.651  0.00  0.00    +0.000 C 
BRANCH  26  27
ATOM     27  C   UNL     1       2.165   6.903  19.645  0.00  0.00    +0.000 A 
ATOM     28  C   UNL     1       3.018   7.493  18.703  0.00  0.00    +0.000 A 
ATOM     29  C   UNL     1       3.607   6.692  17.749  0.00  0.00    +0.000 A 
ATOM     30  N   UNL     1       3.352   5.376  17.620  0.00  0.00    +0.000 NA
ATOM     31  C   UNL     1       2.520   4.803  18.505  0.00  0.00    +0.000 A 
ATOM     32  C   UNL     1       2.194   3.468  18.314  0.00  0.00    +0.000 A 
ATOM     33  C   UNL     1       1.358   2.776  19.192  0.00  0.00    +0.000 A 
ATOM     34  C   UNL     1       0.897   3.410  20.335  0.00  0.00    +0.000 A 
ATOM     35  C   UNL     1       1.189   4.758  20.536  0.00  0.00    +0.000 A 
ATOM     36  C   UNL     1       1.945   5.500  19.593  0.00  0.00    +0.000 A 
ENDBRANCH  26  27
ENDBRANCH  10  26
TORSDOF 6
ENDMDL
MODEL 4
REMARK VINA RESULT:      -7.6      3.107      5.554
REMARK  Name = 
REMARK  8 active torsions:
REMARK  status: ('A' for Active; 'I' for Inactive)
REMARK    1  A    between atoms: C_1  and  O_2
REMARK    2  A    between atoms: O_2  and  C_3
REMARK    3  A    between atoms: C_9  and  C_10
REMARK    4  A    between atoms: N_12  and  C_13
REMARK    5  A    between atoms: C_13  and  C_14
REMARK    6  A    between atoms: C_13  and  C_15
REMARK    7  A    between atoms: N_22  and  C_23
REMARK    8  A    between atoms: C_23  and  C_24
REMARK                            x       y       z     vdW  Elec       q    Type
REMARK                         _______ _______ _______ _____ _____    ______ ____
ROOT
ATOM      1  C   UNL     1      -0.536  12.407  21.757  0.00  0.00    +0.000 A 
ATOM      2  C   UNL     1      -0.518  11.523  22.762  0.00  0.00    +0.000 A 
ATOM      3  C   UNL     1      -0.341  10.087  22.510  0.00  0.00    +0.000 A 
ATOM      4  O   UNL     1      -0.212   9.342  23.476  0.00  0.00    +0.000 OA
ATOM      5  N   UNL     1      -0.308   9.699  21.180  0.00  0.00    +0.000 N 
ATOM      6  C   UNL     1      -0.381  10.617  20.108  0.00  0.00    +0.000 A 
ATOM      7  C   UNL     1      -0.445  11.962  20.350  0.00  0.00    +0.000 A 
ATOM      8  C   UNL     1      -0.289   9.968  18.737  0.00  0.00    +0.000 C 
ATOM      9  C   UNL     1       1.163   9.608  18.419  0.00  0.00    +0.000 C 
ATOM     10  N   UNL     1       1.590   8.280  18.907  0.00  0.00    +0.000 NA
ATOM     11  C   UNL     1       1.442   8.101  20.370  0.00  0.00    +0.000 C 
ATOM     12  C   UNL     1       0.015   8.284  20.927  0.00  0.00    +0.000 C 
ENDROOT
BRANCH   7  13
ATOM     13  C   UNL     1      -0.315  12.975  19.196  0.00  0.00    +0.000 C 
ATOM     14  O   UNL     1      -0.962  12.913  18.156  0.00  0.00    +0.000 OA
ATOM     15  N   UNL     1       0.632  13.945  19.351  0.00  0.00    +0.000 N 
ATOM     16  H   UNL     1       1.085  14.042  20.250  0.00  0.00    +0.000 HD
BRANCH  15  17
ATOM     17  C   UNL     1       0.957  14.961  18.369  0.00  0.00    +0.000 C 
ATOM     18  C   UNL     1       0.350  16.307  18.748  0.00  0.00    +0.000 C 
BRANCH  17  19
ATOM     19  C   UNL     1       2.450  15.031  18.299  0.00  0.00    +0.000 A 
ATOM     20  C   UNL     1       3.436  14.066  18.267  0.00  0.00    +0.000 A 
ATOM     21  C   UNL     1       4.672  14.755  18.258  0.00  0.00    +0.000 A 
ATOM     22  C   UNL     1       4.366  16.095  18.276  0.00  0.00    +0.000 A 
ATOM     23  O   UNL     1       3.022  16.276  18.303  0.00  0.00    +0.000 OA
ENDBRANCH  17  19
ENDBRANCH  15  17
ENDBRANCH   7  13
BRANCH   1  25
ATOM     24  C   UNL     1      -0.932  14.197  23.293  0.00  0.00    +0.000 C 
ATOM     25  O   UNL     1      -0.645  13.771  21.959  0.00  0.00    +0.000 OA
ENDBRANCH   1  25
BRANCH  10  26
ATOM     26  C   UNL     1       3.002   8.034  18.539  0.00  0.00    +0.000 C 
BRANCH  26  27
ATOM     27  C   UNL     1       3.264   6.631  18.027  0.00  0.00    +0.000 A 
ATOM     28  C   UNL     1       2.202   5.717  18.072  0.00  0.00    +0.000 A 
ATOM     29  C   UNL     1       2.424   4.423  17.655  0.00  0.00    +0.000 A 
ATOM     30  N   UNL     1       3.629   3.960  17.272  0.00  0.00    +0.000 NA
ATOM     31  C   UNL     1       4.658   4.822  17.243  0.00  0.00    +0.000 A 
ATOM     32  C   UNL     1       5.914   4.319  16.932  0.00  0.00    +0.000 A 
ATOM     33  C   UNL     1       7.041   5.137  16.852  0.00  0.00    +0.000 A 
ATOM     34  C   UNL     1       6.901   6.507  17.009  0.00  0.00    +0.000 A 
ATOM     35  C   UNL     1       5.656   7.034  17.349  0.00  0.00    +0.000 A 
ATOM     36  C   UNL     1       4.527   6.198  17.541  0.00  0.00    +0.000 A 
ENDBRANCH  26  27
ENDBRANCH  10  26
TORSDOF 6
ENDMDL
MODEL 5
REMARK VINA RESULT:      -7.4      3.053      5.365
REMARK  Name = 
REMARK  8 active torsions:
REMARK  status: ('A' for Active; 'I' for Inactive)
REMARK    1  A    between atoms: C_1  and  O_2
REMARK    2  A    between atoms: O_2  and  C_3
REMARK    3  A    between atoms: C_9  and  C_10
REMARK    4  A    between atoms: N_12  and  C_13
REMARK    5  A    between atoms: C_13  and  C_14
REMARK    6  A    between atoms: C_13  and  C_15
REMARK    7  A    between atoms: N_22  and  C_23
REMARK    8  A    between atoms: C_23  and  C_24
REMARK                            x       y       z     vdW  Elec       q    Type
REMARK                         _______ _______ _______ _____ _____    ______ ____
ROOT
ATOM      1  C   UNL     1      -0.324  12.843  21.723  0.00  0.00    +0.000 A 
ATOM      2  C   UNL     1      -0.609  12.076  22.783  0.00  0.00    +0.000 A 
ATOM      3  C   UNL     1      -0.617  10.610  22.683  0.00  0.00    +0.000 A 
ATOM      4  O   UNL     1      -0.766   9.961  23.713  0.00  0.00    +0.000 OA
ATOM      5  N   UNL     1      -0.427  10.084  21.415  0.00  0.00    +0.000 N 
ATOM      6  C   UNL     1      -0.179  10.885  20.277  0.00  0.00    +0.000 A 
ATOM      7  C   UNL     1      -0.074  12.243  20.396  0.00  0.00    +0.000 A 
ATOM      8  C   UNL     1       0.035  10.088  19.001  0.00  0.00    +0.000 C 
ATOM      9  C   UNL     1       1.447   9.498  18.977  0.00  0.00    +0.000 C 
ATOM     10  N   UNL     1       1.576   8.183  19.637  0.00  0.00    +0.000 NA
ATOM     11  C   UNL     1       1.164   8.182  21.060  0.00  0.00    +0.000 C 
ATOM     12  C   UNL     1      -0.289   8.619  21.338  0.00  0.00    +0.000 C 
ENDROOT
BRANCH   7  13
ATOM     13  C   UNL     1       0.400  13.101  19.206  0.00  0.00    +0.000 C 
ATOM     14  O   UNL     1      -0.121  13.076  18.095  0.00  0.00    +0.000 OA
ATOM     15  N   UNL     1       1.506  13.871  19.422  0.00  0.00    +0.000 N 
ATOM     16  H   UNL     1       1.862  13.956  20.364  0.00  0.00    +0.000 HD
BRANCH  15  17
ATOM     17  C   UNL     1       2.149  14.707  18.427  0.00  0.00    +0.000 C 
ATOM     18  C   UNL     1       1.511  16.091  18.377  0.00  0.00    +0.000 C 
BRANCH  17  19
ATOM     19  C   UNL     1       3.597  14.783  18.798  0.00  0.00    +0.000 A 
ATOM     20  C   UNL     1       4.254  14.865  20.009  0.00  0.00    +0.000 A 
ATOM     21  C   UNL     1       5.634  14.966  19.711  0.00  0.00    +0.000 A 
ATOM     22  C   UNL     1       5.735  14.931  18.341  0.00  0.00    +0.000 A 
ATOM     23  O   UNL     1       4.507  14.823  17.775  0.00  0.00    +0.000 OA
ENDBRANCH  17  19
ENDBRANCH  15  17
ENDBRANCH   7  13
BRANCH   1  25
ATOM     24  C   UNL     1      -1.463  14.908  22.121  0.00  0.00    +0.000 C 
ATOM     25  O   UNL     1      -0.252  14.222  21.793  0.00  0.00    +0.000 OA
ENDBRANCH   1  25
BRANCH  10  26
ATOM     26  C   UNL     1       2.974   7.707  19.548  0.00  0.00    +0.000 C 
BRANCH  26  27
ATOM     27  C   UNL     1       3.129   6.411  18.774  0.00  0.00    +0.000 A 
ATOM     28  C   UNL     1       3.974   6.423  17.656  0.00  0.00    +0.000 A 
ATOM     29  C   UNL     1       4.099   5.273  16.908  0.00  0.00    +0.000 A 
ATOM     30  N   UNL     1       3.395   4.150  17.145  0.00  0.00    +0.000 NA
ATOM     31  C   UNL     1       2.567   4.133  18.202  0.00  0.00    +0.000 A 
ATOM     32  C   UNL     1       1.780   3.005  18.390  0.00  0.00    +0.000 A 
ATOM     33  C   UNL     1       0.907   2.882  19.471  0.00  0.00    +0.000 A 
ATOM     34  C   UNL     1       0.873   3.875  20.436  0.00  0.00    +0.000 A 
ATOM     35  C   UNL     1       1.633   5.030  20.258  0.00  0.00    +0.000 A 
ATOM     36  C   UNL     1       2.440   5.214  19.105  0.00  0.00    +0.000 A 
ENDBRANCH  26  27
ENDBRANCH  10  26
TORSDOF 6
ENDMDL
MODEL 6
REMARK VINA RESULT:      -7.4      3.291      5.736
REMARK  Name = 
REMARK  8 active torsions:
REMARK  status: ('A' for Active; 'I' for Inactive)
REMARK    1  A    between atoms: C_1  and  O_2
REMARK    2  A    between atoms: O_2  and  C_3
REMARK    3  A    between atoms: C_9  and  C_10
REMARK    4  A    between atoms: N_12  and  C_13
REMARK    5  A    between atoms: C_13  and  C_14
REMARK    6  A    between atoms: C_13  and  C_15
REMARK    7  A    between atoms: N_22  and  C_23
REMARK    8  A    between atoms: C_23  and  C_24
REMARK                            x       y       z     vdW  Elec       q    Type
REMARK                         _______ _______ _______ _____ _____    ______ ____
ROOT
ATOM      1  C   UNL     1      -0.172  13.242  21.602  0.00  0.00    +0.000 A 
ATOM      2  C   UNL     1      -0.532  12.507  22.662  0.00  0.00    +0.000 A 
ATOM      3  C   UNL     1      -0.662  11.047  22.569  0.00  0.00    +0.000 A 
ATOM      4  O   UNL     1      -0.877  10.418  23.600  0.00  0.00    +0.000 OA
ATOM      5  N   UNL     1      -0.502  10.499  21.306  0.00  0.00    +0.000 N 
ATOM      6  C   UNL     1      -0.175  11.270  20.167  0.00  0.00    +0.000 A 
ATOM      7  C   UNL     1       0.043  12.615  20.280  0.00  0.00    +0.000 A 
ATOM      8  C   UNL     1      -0.014  10.451  18.898  0.00  0.00    +0.000 C 
ATOM      9  C   UNL     1       1.343   9.744  18.893  0.00  0.00    +0.000 C 
ATOM     10  N   UNL     1       1.355   8.427  19.562  0.00  0.00    +0.000 NA
ATOM     11  C   UNL     1       0.927   8.468  20.980  0.00  0.00    +0.000 C 
ATOM     12  C   UNL     1      -0.487   9.028  21.237  0.00  0.00    +0.000 C 
ENDROOT
BRANCH   7  13
ATOM     13  C   UNL     1       0.600  13.424  19.092  0.00  0.00    +0.000 C 
ATOM     14  O   UNL     1       0.088  13.442  17.978  0.00  0.00    +0.000 OA
ATOM     15  N   UNL     1       1.769  14.092  19.315  0.00  0.00    +0.000 N 
ATOM     16  H   UNL     1       2.125  14.147  20.260  0.00  0.00    +0.000 HD
BRANCH  15  17
ATOM     17  C   UNL     1       2.492  14.864  18.324  0.00  0.00    +0.000 C 
ATOM     18  C   UNL     1       1.905  16.264  18.181  0.00  0.00    +0.000 C 
BRANCH  17  19
ATOM     19  C   UNL     1       3.920  14.911  18.770  0.00  0.00    +0.000 A 
ATOM     20  C   UNL     1       5.120  14.848  18.090  0.00  0.00    +0.000 A 
ATOM     21  C   UNL     1       6.139  14.886  19.070  0.00  0.00    +0.000 A 
ATOM     22  C   UNL     1       5.503  14.978  20.285  0.00  0.00    +0.000 A 
ATOM     23  O   UNL     1       4.156  14.991  20.116  0.00  0.00    +0.000 OA
ENDBRANCH  17  19
ENDBRANCH  15  17
ENDBRANCH   7  13
BRANCH   1  25
ATOM     24  C   UNL     1      -0.695  15.303  22.695  0.00  0.00    +0.000 C 
ATOM     25  O   UNL     1       0.015  14.610  21.667  0.00  0.00    +0.000 OA
ENDBRANCH   1  25
BRANCH  10  26
ATOM     26  C   UNL     1       2.708   7.834  19.491  0.00  0.00    +0.000 C 
BRANCH  26  27
ATOM     27  C   UNL     1       2.728   6.419  18.945  0.00  0.00    +0.000 A 
ATOM     28  C   UNL     1       1.919   5.469  19.584  0.00  0.00    +0.000 A 
ATOM     29  C   UNL     1       1.951   4.166  19.137  0.00  0.00    +0.000 A 
ATOM     30  N   UNL     1       2.774   3.731  18.164  0.00  0.00    +0.000 NA
ATOM     31  C   UNL     1       3.567   4.629  17.558  0.00  0.00    +0.000 A 
ATOM     32  C   UNL     1       4.474   4.161  16.618  0.00  0.00    +0.000 A 
ATOM     33  C   UNL     1       5.324   5.017  15.917  0.00  0.00    +0.000 A 
ATOM     34  C   UNL     1       5.214   6.386  16.099  0.00  0.00    +0.000 A 
ATOM     35  C   UNL     1       4.330   6.881  17.057  0.00  0.00    +0.000 A 
ATOM     36  C   UNL     1       3.541   6.012  17.854  0.00  0.00    +0.000 A 
ENDBRANCH  26  27
ENDBRANCH  10  26
TORSDOF 6
ENDMDL
MODEL 7
REMARK VINA RESULT:      -7.4      0.910      1.067
REMARK  Name = 
REMARK  8 active torsions:
REMARK  status: ('A' for Active; 'I' for Inactive)
REMARK    1  A    between atoms: C_1  and  O_2
REMARK    2  A    between atoms: O_2  and  C_3
REMARK    3  A    between atoms: C_9  and  C_10
REMARK    4  A    between atoms: N_12  and  C_13
REMARK    5  A    between atoms: C_13  and  C_14
REMARK    6  A    between atoms: C_13  and  C_15
REMARK    7  A    between atoms: N_22  and  C_23
REMARK    8  A    between atoms: C_23  and  C_24
REMARK                            x       y       z     vdW  Elec       q    Type
REMARK                         _______ _______ _______ _____ _____    ______ ____
ROOT
ATOM      1  C   UNL     1      -3.080  12.545  20.343  0.00  0.00    +0.000 A 
ATOM      2  C   UNL     1      -3.460  11.970  19.195  0.00  0.00    +0.000 A 
ATOM      3  C   UNL     1      -2.502  11.236  18.358  0.00  0.00    +0.000 A 
ATOM      4  O   UNL     1      -2.933  10.630  17.382  0.00  0.00    +0.000 OA
ATOM      5  N   UNL     1      -1.178  11.272  18.768  0.00  0.00    +0.000 N 
ATOM      6  C   UNL     1      -0.756  11.922  19.950  0.00  0.00    +0.000 A 
ATOM      7  C   UNL     1      -1.667  12.518  20.777  0.00  0.00    +0.000 A 
ATOM      8  C   UNL     1       0.735  11.800  20.217  0.00  0.00    +0.000 C 
ATOM      9  C   UNL     1       1.059  10.415  20.781  0.00  0.00    +0.000 C 
ATOM     10  N   UNL     1       1.314   9.378  19.760  0.00  0.00    +0.000 NA
ATOM     11  C   UNL     1       0.189   9.175  18.816  0.00  0.00    +0.000 C 
ATOM     12  C   UNL     1      -0.245  10.419  18.014  0.00  0.00    +0.000 C 
ENDROOT
BRANCH   7  13
ATOM     13  C   UNL     1      -1.245  13.044  22.163  0.00  0.00    +0.000 C 
ATOM     14  O   UNL     1      -0.947  12.319  23.106  0.00  0.00    +0.000 OA
ATOM     15  N   UNL     1      -1.281  14.398  22.329  0.00  0.00    +0.000 N 
ATOM     16  H   UNL     1      -1.432  14.983  21.518  0.00  0.00    +0.000 HD
BRANCH  15  17
ATOM     17  C   UNL     1      -0.978  15.097  23.563  0.00  0.00    +0.000 C 
ATOM     18  C   UNL     1       0.129  16.124  23.355  0.00  0.00    +0.000 C 
BRANCH  17  19
ATOM     19  C   UNL     1      -2.249  15.743  24.016  0.00  0.00    +0.000 A 
ATOM     20  C   UNL     1      -2.844  15.882  25.254  0.00  0.00    +0.000 A 
ATOM     21  C   UNL     1      -4.075  16.544  25.037  0.00  0.00    +0.000 A 
ATOM     22  C   UNL     1      -4.153  16.777  23.685  0.00  0.00    +0.000 A 
ATOM     23  O   UNL     1      -3.053  16.293  23.054  0.00  0.00    +0.000 OA
ENDBRANCH  17  19
ENDBRANCH  15  17
ENDBRANCH   7  13
BRANCH   1  25
ATOM     24  C   UNL     1      -4.738  14.248  20.605  0.00  0.00    +0.000 C 
ATOM     25  O   UNL     1      -3.965  13.195  21.184  0.00  0.00    +0.000 OA
ENDBRANCH   1  25
BRANCH  10  26
ATOM     26  C   UNL     1       1.622   8.087  20.414  0.00  0.00    +0.000 C 
BRANCH  26  27
ATOM     27  C   UNL     1       2.274   7.076  19.491  0.00  0.00    +0.000 A 
ATOM     28  C   UNL     1       3.075   7.570  18.452  0.00  0.00    +0.000 A 
ATOM     29  C   UNL     1       3.644   6.676  17.572  0.00  0.00    +0.000 A 
ATOM     30  N   UNL     1       3.414   5.349  17.605  0.00  0.00    +0.000 NA
ATOM     31  C   UNL     1       2.632   4.866  18.584  0.00  0.00    +0.000 A 
ATOM     32  C   UNL     1       2.329   3.512  18.561  0.00  0.00    +0.000 A 
ATOM     33  C   UNL     1       1.546   2.911  19.546  0.00  0.00    +0.000 A 
ATOM     34  C   UNL     1       1.117   3.663  20.628  0.00  0.00    +0.000 A 
ATOM     35  C   UNL     1       1.385   5.031  20.662  0.00  0.00    +0.000 A 
ATOM     36  C   UNL     1       2.085   5.672  19.608  0.00  0.00    +0.000 A 
ENDBRANCH  26  27
ENDBRANCH  10  26
TORSDOF 6
ENDMDL
MODEL 8
REMARK VINA RESULT:      -7.3      3.803      6.382
REMARK  Name = 
REMARK  8 active torsions:
REMARK  status: ('A' for Active; 'I' for Inactive)
REMARK    1  A    between atoms: C_1  and  O_2
REMARK    2  A    between atoms: O_2  and  C_3
REMARK    3  A    between atoms: C_9  and  C_10
REMARK    4  A    between atoms: N_12  and  C_13
REMARK    5  A    between atoms: C_13  and  C_14
REMARK    6  A    between atoms: C_13  and  C_15
REMARK    7  A    between atoms: N_22  and  C_23
REMARK    8  A    between atoms: C_23  and  C_24
REMARK                            x       y       z     vdW  Elec       q    Type
REMARK                         _______ _______ _______ _____ _____    ______ ____
ROOT
ATOM      1  C   UNL     1       1.015  13.433  20.795  0.00  0.00    +0.000 A 
ATOM      2  C   UNL     1       0.229  12.990  21.783  0.00  0.00    +0.000 A 
ATOM      3  C   UNL     1      -0.303  11.621  21.779  0.00  0.00    +0.000 A 
ATOM      4  O   UNL     1      -0.916  11.235  22.770  0.00  0.00    +0.000 OA
ATOM      5  N   UNL     1      -0.036  10.866  20.648  0.00  0.00    +0.000 N 
ATOM      6  C   UNL     1       0.747  11.340  19.572  0.00  0.00    +0.000 A 
ATOM      7  C   UNL     1       1.322  12.580  19.627  0.00  0.00    +0.000 A 
ATOM      8  C   UNL     1       0.936  10.326  18.457  0.00  0.00    +0.000 C 
ATOM      9  C   UNL     1       1.990   9.291  18.856  0.00  0.00    +0.000 C 
ATOM     10  N   UNL     1       1.464   8.135  19.610  0.00  0.00    +0.000 NA
ATOM     11  C   UNL     1       0.765   8.502  20.864  0.00  0.00    +0.000 C 
ATOM     12  C   UNL     1      -0.442   9.451  20.705  0.00  0.00    +0.000 C 
ENDROOT
BRANCH   7  13
ATOM     13  C   UNL     1       2.341  13.022  18.559  0.00  0.00    +0.000 C 
ATOM     14  O   UNL     1       2.989  12.242  17.869  0.00  0.00    +0.000 OA
ATOM     15  N   UNL     1       2.555  14.366  18.451  0.00  0.00    +0.000 N 
ATOM     16  H   UNL     1       1.946  14.996  18.954  0.00  0.00    +0.000 HD
BRANCH  15  17
ATOM     17  C   UNL     1       3.507  14.991  17.554  0.00  0.00    +0.000 C 
ATOM     18  C   UNL     1       3.060  16.397  17.171  0.00  0.00    +0.000 C 
BRANCH  17  19
ATOM     19  C   UNL     1       4.824  15.007  18.265  0.00  0.00    +0.000 A 
ATOM     20  C   UNL     1       5.231  15.528  19.477  0.00  0.00    +0.000 A 
ATOM     21  C   UNL     1       6.620  15.275  19.576  0.00  0.00    +0.000 A 
ATOM     22  C   UNL     1       6.973  14.610  18.427  0.00  0.00    +0.000 A 
ATOM     23  O   UNL     1       5.894  14.443  17.622  0.00  0.00    +0.000 OA
ENDBRANCH  17  19
ENDBRANCH  15  17
ENDBRANCH   7  13
BRANCH   1  25
ATOM     24  C   UNL     1       2.417  15.022  21.904  0.00  0.00    +0.000 C 
ATOM     25  O   UNL     1       1.578  14.696  20.793  0.00  0.00    +0.000 OA
ENDBRANCH   1  25
BRANCH  10  26
ATOM     26  C   UNL     1       2.563   7.200  19.936  0.00  0.00    +0.000 C 
BRANCH  26  27
ATOM     27  C   UNL     1       2.567   5.943  19.086  0.00  0.00    +0.000 A 
ATOM     28  C   UNL     1       1.663   4.928  19.428  0.00  0.00    +0.000 A 
ATOM     29  C   UNL     1       1.676   3.758  18.702  0.00  0.00    +0.000 A 
ATOM     30  N   UNL     1       2.562   3.499  17.721  0.00  0.00    +0.000 NA
ATOM     31  C   UNL     1       3.446   4.457  17.398  0.00  0.00    +0.000 A 
ATOM     32  C   UNL     1       4.411   4.152  16.448  0.00  0.00    +0.000 A 
ATOM     33  C   UNL     1       5.358   5.086  16.027  0.00  0.00    +0.000 A 
ATOM     34  C   UNL     1       5.293   6.385  16.507  0.00  0.00    +0.000 A 
ATOM     35  C   UNL     1       4.350   6.710  17.481  0.00  0.00    +0.000 A 
ATOM     36  C   UNL     1       3.456   5.737  17.997  0.00  0.00    +0.000 A 
ENDBRANCH  26  27
ENDBRANCH  10  26
TORSDOF 6
ENDMDL
MODEL 9
REMARK VINA RESULT:      -7.2      2.553      4.823
REMARK  Name = 
REMARK  8 active torsions:
REMARK  status: ('A' for Active; 'I' for Inactive)
REMARK    1  A    between atoms: C_1  and  O_2
REMARK    2  A    between atoms: O_2  and  C_3
REMARK    3  A    between atoms: C_9  and  C_10
REMARK    4  A    between atoms: N_12  and  C_13
REMARK    5  A    between atoms: C_13  and  C_14
REMARK    6  A    between atoms: C_13  and  C_15
REMARK    7  A    between atoms: N_22  and  C_23
REMARK    8  A    between atoms: C_23  and  C_24
REMARK                            x       y       z     vdW  Elec       q    Type
REMARK                         _______ _______ _______ _____ _____    ______ ____
ROOT
ATOM      1  C   UNL     1      -0.961  11.876  21.151  0.00  0.00    +0.000 A 
ATOM      2  C   UNL     1      -0.339  11.385  22.230  0.00  0.00    +0.000 A 
ATOM      3  C   UNL     1       0.348  10.087  22.189  0.00  0.00    +0.000 A 
ATOM      4  O   UNL     1       1.001   9.747  23.171  0.00  0.00    +0.000 OA
ATOM      5  N   UNL     1       0.217   9.363  21.015  0.00  0.00    +0.000 N 
ATOM      6  C   UNL     1      -0.483   9.846  19.886  0.00  0.00    +0.000 A 
ATOM      7  C   UNL     1      -1.036  11.097  19.897  0.00  0.00    +0.000 A 
ATOM      8  C   UNL     1      -0.465   8.896  18.700  0.00  0.00    +0.000 C 
ATOM      9  C   UNL     1       0.884   8.975  17.982  0.00  0.00    +0.000 C 
ATOM     10  N   UNL     1       1.924   8.075  18.522  0.00  0.00    +0.000 NA
ATOM     11  C   UNL     1       2.219   8.292  19.957  0.00  0.00    +0.000 C 
ATOM     12  C   UNL     1       1.023   8.134  20.920  0.00  0.00    +0.000 C 
ENDROOT
BRANCH   7  13
ATOM     13  C   UNL     1      -1.617  11.710  18.607  0.00  0.00    +0.000 C 
ATOM     14  O   UNL     1      -1.115  12.660  18.016  0.00  0.00    +0.000 OA
ATOM     15  N   UNL     1      -2.796  11.181  18.167  0.00  0.00    +0.000 N 
ATOM     16  H   UNL     1      -3.144  10.339  18.607  0.00  0.00    +0.000 HD
BRANCH  15  17
ATOM     17  C   UNL     1      -3.540  11.643  17.013  0.00  0.00    +0.000 C 
ATOM     18  C   UNL     1      -3.362  10.698  15.829  0.00  0.00    +0.000 C 
BRANCH  17  19
ATOM     19  C   UNL     1      -4.973  11.735  17.431  0.00  0.00    +0.000 A 
ATOM     20  C   UNL     1      -5.765  10.955  18.251  0.00  0.00    +0.000 A 
ATOM     21  C   UNL     1      -7.062  11.521  18.213  0.00  0.00    +0.000 A 
ATOM     22  C   UNL     1      -6.981  12.613  17.383  0.00  0.00    +0.000 A 
ATOM     23  O   UNL     1      -5.721  12.752  16.900  0.00  0.00    +0.000 OA
ENDBRANCH  17  19
ENDBRANCH  15  17
ENDBRANCH   7  13
BRANCH   1  25
ATOM     24  C   UNL     1      -2.691  13.288  22.007  0.00  0.00    +0.000 C 
ATOM     25  O   UNL     1      -1.570  13.117  21.136  0.00  0.00    +0.000 OA
ENDBRANCH   1  25
BRANCH  10  26
ATOM     26  C   UNL     1       3.177   8.227  17.751  0.00  0.00    +0.000 C 
BRANCH  26  27
ATOM     27  C   UNL     1       3.975   6.944  17.625  0.00  0.00    +0.000 A 
ATOM     28  C   UNL     1       5.352   7.059  17.391  0.00  0.00    +0.000 A 
ATOM     29  C   UNL     1       6.095   5.910  17.227  0.00  0.00    +0.000 A 
ATOM     30  N   UNL     1       5.560   4.675  17.204  0.00  0.00    +0.000 NA
ATOM     31  C   UNL     1       4.239   4.553  17.408  0.00  0.00    +0.000 A 
ATOM     32  C   UNL     1       3.681   3.287  17.296  0.00  0.00    +0.000 A 
ATOM     33  C   UNL     1       2.323   3.053  17.513  0.00  0.00    +0.000 A 
ATOM     34  C   UNL     1       1.510   4.096  17.930  0.00  0.00    +0.000 A 
ATOM     35  C   UNL     1       2.039   5.382  18.023  0.00  0.00    +0.000 A 
ATOM     36  C   UNL     1       3.394   5.649  17.697  0.00  0.00    +0.000 A 
ENDBRANCH  26  27
ENDBRANCH  10  26
TORSDOF 6
ENDMDL
