MODEL 1
REMARK VINA RESULT:      -7.3      0.000      0.000
REMARK  Name = 
REMARK  5 active torsions:
REMARK  status: ('A' for Active; 'I' for Inactive)
REMARK    1  A    between atoms: C_2  and  C_3
REMARK    2  A    between atoms: C_3  and  C_4
REMARK    3  A    between atoms: C_4  and  N_5
REMARK    4  A    between atoms: C_8  and  C_9
REMARK    5  A    between atoms: N_20  and  C_21
REMARK                            x       y       z     vdW  Elec       q    Type
REMARK                         _______ _______ _______ _____ _____    ______ ____
ROOT
ATOM      1  N   UNL     1       0.166   9.898  19.122  0.00  0.00    +0.000 N 
ATOM      2  C   UNL     1       0.993   9.072  18.380  0.00  0.00    +0.000 A 
ATOM      3  O   UNL     1       1.052   9.131  17.158  0.00  0.00    +0.000 OA
ATOM      4  C   UNL     1       1.859   8.073  19.167  0.00  0.00    +0.000 A 
ATOM      5  N   UNL     1       1.870   8.056  20.474  0.00  0.00    +0.000 NA
ATOM      6  C   UNL     1       1.039   8.961  21.153  0.00  0.00    +0.000 A 
ATOM      7  C   UNL     1       1.011   9.027  22.531  0.00  0.00    +0.000 A 
ATOM      8  N   UNL     1       0.237   9.880  23.241  0.00  0.00    +0.000 NA
ATOM      9  C   UNL     1      -0.543  10.712  22.538  0.00  0.00    +0.000 A 
ATOM     10  N   UNL     1      -1.360  11.592  23.247  0.00  0.00    +0.000 N 
ATOM     11  N   UNL     1      -0.600  10.714  21.198  0.00  0.00    +0.000 NA
ATOM     12  C   UNL     1       0.189   9.857  20.531  0.00  0.00    +0.000 A 
ATOM     13  H   UNL     1      -1.167  11.501  24.236  0.00  0.00    +0.000 HD
ENDROOT
BRANCH   4  14
ATOM     14  C   UNL     1       2.727   7.113  18.421  0.00  0.00    +0.000 A 
ATOM     15  C   UNL     1       2.397   5.752  18.422  0.00  0.00    +0.000 A 
ATOM     16  C   UNL     1       3.202   4.833  17.744  0.00  0.00    +0.000 A 
ATOM     17  C   UNL     1       4.337   5.267  17.062  0.00  0.00    +0.000 A 
ATOM     18  C   UNL     1       4.664   6.619  17.046  0.00  0.00    +0.000 A 
ATOM     19  C   UNL     1       3.855   7.541  17.711  0.00  0.00    +0.000 A 
ENDBRANCH   4  14
BRANCH  10  20
ATOM     20  C   UNL     1      -1.719  12.897  22.858  0.00  0.00    +0.000 A 
ATOM     21  C   UNL     1      -3.043  13.154  22.481  0.00  0.00    +0.000 A 
ATOM     22  C   UNL     1      -3.442  14.438  22.098  0.00  0.00    +0.000 A 
ATOM     23  C   UNL     1      -2.528  15.489  22.114  0.00  0.00    +0.000 A 
ATOM     24  C   UNL     1      -1.214  15.255  22.511  0.00  0.00    +0.000 A 
ATOM     25  C   UNL     1      -0.815  13.969  22.881  0.00  0.00    +0.000 A 
ENDBRANCH  10  20
BRANCH   1  26
ATOM     26  C   UNL     1      -0.691  10.864  18.434  0.00  0.00    +0.000 C 
BRANCH  26  27
ATOM     27  C   UNL     1      -2.062  10.287  18.072  0.00  0.00    +0.000 C 
BRANCH  27  29
ATOM     28  N   UNL     1      -2.694  10.911  15.600  0.00  0.00    +0.000 NA
ATOM     29  C   UNL     1      -2.417  10.641  16.690  0.00  0.00    +0.000 C 
ENDBRANCH  27  29
ENDBRANCH  26  27
ENDBRANCH   1  26
TORSDOF 5
ENDMDL
MODEL 2
REMARK VINA RESULT:      -7.2      0.134      1.292
REMARK  Name = 
REMARK  5 active torsions:
REMARK  status: ('A' for Active; 'I' for Inactive)
REMARK    1  A    between atoms: C_2  and  C_3
REMARK    2  A    between atoms: C_3  and  C_4
REMARK    3  A    between atoms: C_4  and  N_5
REMARK    4  A    between atoms: C_8  and  C_9
REMARK    5  A    between atoms: N_20  and  C_21
REMARK                            x       y       z     vdW  Elec       q    Type
REMARK                         _______ _______ _______ _____ _____    ______ ____
ROOT
ATOM      1  N   UNL     1       0.206   9.938  19.127  0.00  0.00    +0.000 N 
ATOM      2  C   UNL     1       1.034   9.097  18.404  0.00  0.00    +0.000 A 
ATOM      3  O   UNL     1       1.121   9.153  17.184  0.00  0.00    +0.000 OA
ATOM      4  C   UNL     1       1.862   8.081  19.211  0.00  0.00    +0.000 A 
ATOM      5  N   UNL     1       1.843   8.064  20.518  0.00  0.00    +0.000 NA
ATOM      6  C   UNL     1       1.014   8.985  21.178  0.00  0.00    +0.000 A 
ATOM      7  C   UNL     1       0.956   9.052  22.555  0.00  0.00    +0.000 A 
ATOM      8  N   UNL     1       0.182   9.920  23.247  0.00  0.00    +0.000 NA
ATOM      9  C   UNL     1      -0.566  10.767  22.527  0.00  0.00    +0.000 A 
ATOM     10  N   UNL     1      -1.381  11.663  23.217  0.00  0.00    +0.000 N 
ATOM     11  N   UNL     1      -0.591  10.770  21.186  0.00  0.00    +0.000 NA
ATOM     12  C   UNL     1       0.195   9.898  20.536  0.00  0.00    +0.000 A 
ATOM     13  H   UNL     1      -1.212  11.568  24.210  0.00  0.00    +0.000 HD
ENDROOT
BRANCH   4  14
ATOM     14  C   UNL     1       2.728   7.105  18.485  0.00  0.00    +0.000 A 
ATOM     15  C   UNL     1       3.863   7.570  17.807  0.00  0.00    +0.000 A 
ATOM     16  C   UNL     1       4.680   6.677  17.109  0.00  0.00    +0.000 A 
ATOM     17  C   UNL     1       4.370   5.319  17.084  0.00  0.00    +0.000 A 
ATOM     18  C   UNL     1       3.252   4.847  17.766  0.00  0.00    +0.000 A 
ATOM     19  C   UNL     1       2.442   5.734  18.475  0.00  0.00    +0.000 A 
ENDBRANCH   4  14
BRANCH  10  20
ATOM     20  C   UNL     1      -1.706  12.975  22.820  0.00  0.00    +0.000 A 
ATOM     21  C   UNL     1      -0.743  13.983  22.951  0.00  0.00    +0.000 A 
ATOM     22  C   UNL     1      -1.023  15.296  22.559  0.00  0.00    +0.000 A 
ATOM     23  C   UNL     1      -2.260  15.611  22.003  0.00  0.00    +0.000 A 
ATOM     24  C   UNL     1      -3.220  14.615  21.843  0.00  0.00    +0.000 A 
ATOM     25  C   UNL     1      -2.942  13.307  22.247  0.00  0.00    +0.000 A 
ENDBRANCH  10  20
BRANCH   1  26
ATOM     26  C   UNL     1      -0.617  10.920  18.420  0.00  0.00    +0.000 C 
BRANCH  26  27
ATOM     27  C   UNL     1      -2.027  10.407  18.121  0.00  0.00    +0.000 C 
BRANCH  27  29
ATOM     28  N   UNL     1      -2.658  10.856  15.611  0.00  0.00    +0.000 NA
ATOM     29  C   UNL     1      -2.377  10.661  16.716  0.00  0.00    +0.000 C 
ENDBRANCH  27  29
ENDBRANCH  26  27
ENDBRANCH   1  26
TORSDOF 5
ENDMDL
MODEL 3
REMARK VINA RESULT:      -6.7      1.745      7.747
REMARK  Name = 
REMARK  5 active torsions:
REMARK  status: ('A' for Active; 'I' for Inactive)
REMARK    1  A    between atoms: C_2  and  C_3
REMARK    2  A    between atoms: C_3  and  C_4
REMARK    3  A    between atoms: C_4  and  N_5
REMARK    4  A    between atoms: C_8  and  C_9
REMARK    5  A    between atoms: N_20  and  C_21
REMARK                            x       y       z     vdW  Elec       q    Type
REMARK                         _______ _______ _______ _____ _____    ______ ____
ROOT
ATOM      1  N   UNL     1      -1.176  11.069  19.541  0.00  0.00    +0.000 N 
ATOM      2  C   UNL     1      -2.189  12.000  19.683  0.00  0.00    +0.000 A 
ATOM      3  O   UNL     1      -2.807  12.448  18.725  0.00  0.00    +0.000 OA
ATOM      4  C   UNL     1      -2.523  12.446  21.118  0.00  0.00    +0.000 A 
ATOM      5  N   UNL     1      -1.930  11.916  22.156  0.00  0.00    +0.000 NA
ATOM      6  C   UNL     1      -0.947  10.940  21.928  0.00  0.00    +0.000 A 
ATOM      7  C   UNL     1      -0.294  10.311  22.968  0.00  0.00    +0.000 A 
ATOM      8  N   UNL     1       0.657   9.361  22.812  0.00  0.00    +0.000 NA
ATOM      9  C   UNL     1       0.965   9.018  21.554  0.00  0.00    +0.000 A 
ATOM     10  N   UNL     1       1.950   8.049  21.367  0.00  0.00    +0.000 N 
ATOM     11  N   UNL     1       0.399   9.581  20.477  0.00  0.00    +0.000 NA
ATOM     12  C   UNL     1      -0.545  10.516  20.674  0.00  0.00    +0.000 A 
ATOM     13  H   UNL     1       2.240   7.693  22.268  0.00  0.00    +0.000 HD
ENDROOT
BRANCH   4  14
ATOM     14  C   UNL     1      -3.565  13.494  21.333  0.00  0.00    +0.000 A 
ATOM     15  C   UNL     1      -4.871  13.102  21.655  0.00  0.00    +0.000 A 
ATOM     16  C   UNL     1      -5.866  14.064  21.847  0.00  0.00    +0.000 A 
ATOM     17  C   UNL     1      -5.563  15.418  21.720  0.00  0.00    +0.000 A 
ATOM     18  C   UNL     1      -4.266  15.816  21.414  0.00  0.00    +0.000 A 
ATOM     19  C   UNL     1      -3.267  14.858  21.235  0.00  0.00    +0.000 A 
ENDBRANCH   4  14
BRANCH  10  20
ATOM     20  C   UNL     1       1.995   7.091  20.336  0.00  0.00    +0.000 A 
ATOM     21  C   UNL     1       2.406   7.487  19.057  0.00  0.00    +0.000 A 
ATOM     22  C   UNL     1       2.475   6.564  18.009  0.00  0.00    +0.000 A 
ATOM     23  C   UNL     1       2.160   5.226  18.234  0.00  0.00    +0.000 A 
ATOM     24  C   UNL     1       1.774   4.811  19.506  0.00  0.00    +0.000 A 
ATOM     25  C   UNL     1       1.695   5.738  20.548  0.00  0.00    +0.000 A 
ENDBRANCH  10  20
BRANCH   1  26
ATOM     26  C   UNL     1      -0.802  10.610  18.202  0.00  0.00    +0.000 C 
BRANCH  26  27
ATOM     27  C   UNL     1      -1.846   9.681  17.581  0.00  0.00    +0.000 C 
BRANCH  27  29
ATOM     28  N   UNL     1      -2.773  10.700  15.344  0.00  0.00    +0.000 NA
ATOM     29  C   UNL     1      -2.364  10.255  16.331  0.00  0.00    +0.000 C 
ENDBRANCH  27  29
ENDBRANCH  26  27
ENDBRANCH   1  26
TORSDOF 5
ENDMDL
MODEL 4
REMARK VINA RESULT:      -6.7      2.222      4.100
REMARK  Name = 
REMARK  5 active torsions:
REMARK  status: ('A' for Active; 'I' for Inactive)
REMARK    1  A    between atoms: C_2  and  C_3
REMARK    2  A    between atoms: C_3  and  C_4
REMARK    3  A    between atoms: C_4  and  N_5
REMARK    4  A    between atoms: C_8  and  C_9
REMARK    5  A    between atoms: N_20  and  C_21
REMARK                            x       y       z     vdW  Elec       q    Type
REMARK                         _______ _______ _______ _____ _____    ______ ____
ROOT
ATOM      1  N   UNL     1       1.550   7.588  20.569  0.00  0.00    +0.000 N 
ATOM      2  C   UNL     1       1.824   6.247  20.366  0.00  0.00    +0.000 A 
ATOM      3  O   UNL     1       1.612   5.398  21.223  0.00  0.00    +0.000 OA
ATOM      4  C   UNL     1       2.400   5.858  18.993  0.00  0.00    +0.000 A 
ATOM      5  N   UNL     1       2.554   6.739  18.039  0.00  0.00    +0.000 NA
ATOM      6  C   UNL     1       2.205   8.072  18.310  0.00  0.00    +0.000 A 
ATOM      7  C   UNL     1       2.310   9.058  17.350  0.00  0.00    +0.000 A 
ATOM      8  N   UNL     1       1.985  10.357  17.548  0.00  0.00    +0.000 NA
ATOM      9  C   UNL     1       1.526  10.684  18.764  0.00  0.00    +0.000 A 
ATOM     10  N   UNL     1       1.196  12.018  18.996  0.00  0.00    +0.000 N 
ATOM     11  N   UNL     1       1.403   9.803  19.767  0.00  0.00    +0.000 NA
ATOM     12  C   UNL     1       1.730   8.523  19.528  0.00  0.00    +0.000 A 
ATOM     13  H   UNL     1       1.298  12.540  18.136  0.00  0.00    +0.000 HD
ENDROOT
BRANCH   4  14
ATOM     14  C   UNL     1       2.774   4.436  18.734  0.00  0.00    +0.000 A 
ATOM     15  C   UNL     1       3.959   3.930  19.284  0.00  0.00    +0.000 A 
ATOM     16  C   UNL     1       4.337   2.606  19.044  0.00  0.00    +0.000 A 
ATOM     17  C   UNL     1       3.535   1.783  18.256  0.00  0.00    +0.000 A 
ATOM     18  C   UNL     1       2.350   2.274  17.717  0.00  0.00    +0.000 A 
ATOM     19  C   UNL     1       1.963   3.591  17.966  0.00  0.00    +0.000 A 
ENDBRANCH   4  14
BRANCH  10  20
ATOM     20  C   UNL     1       0.163  12.491  19.828  0.00  0.00    +0.000 A 
ATOM     21  C   UNL     1      -1.163  12.168  19.515  0.00  0.00    +0.000 A 
ATOM     22  C   UNL     1      -2.217  12.609  20.321  0.00  0.00    +0.000 A 
ATOM     23  C   UNL     1      -1.956  13.356  21.467  0.00  0.00    +0.000 A 
ATOM     24  C   UNL     1      -0.642  13.666  21.805  0.00  0.00    +0.000 A 
ATOM     25  C   UNL     1       0.409  13.234  20.992  0.00  0.00    +0.000 A 
ENDBRANCH  10  20
BRANCH   1  26
ATOM     26  C   UNL     1       1.010   8.027  21.856  0.00  0.00    +0.000 C 
BRANCH  26  27
ATOM     27  C   UNL     1      -0.429   8.538  21.751  0.00  0.00    +0.000 C 
BRANCH  27  29
ATOM     28  N   UNL     1      -0.799  10.550  23.400  0.00  0.00    +0.000 NA
ATOM     29  C   UNL     1      -0.640   9.665  22.672  0.00  0.00    +0.000 C 
ENDBRANCH  27  29
ENDBRANCH  26  27
ENDBRANCH   1  26
TORSDOF 5
ENDMDL
MODEL 5
REMARK VINA RESULT:      -6.7      2.210      4.096
REMARK  Name = 
REMARK  5 active torsions:
REMARK  status: ('A' for Active; 'I' for Inactive)
REMARK    1  A    between atoms: C_2  and  C_3
REMARK    2  A    between atoms: C_3  and  C_4
REMARK    3  A    between atoms: C_4  and  N_5
REMARK    4  A    between atoms: C_8  and  C_9
REMARK    5  A    between atoms: N_20  and  C_21
REMARK                            x       y       z     vdW  Elec       q    Type
REMARK                         _______ _______ _______ _____ _____    ______ ____
ROOT
ATOM      1  N   UNL     1       1.560   7.637  20.581  0.00  0.00    +0.000 N 
ATOM      2  C   UNL     1       1.851   6.300  20.368  0.00  0.00    +0.000 A 
ATOM      3  O   UNL     1       1.655   5.443  21.220  0.00  0.00    +0.000 OA
ATOM      4  C   UNL     1       2.426   5.929  18.990  0.00  0.00    +0.000 A 
ATOM      5  N   UNL     1       2.563   6.818  18.041  0.00  0.00    +0.000 NA
ATOM      6  C   UNL     1       2.198   8.144  18.322  0.00  0.00    +0.000 A 
ATOM      7  C   UNL     1       2.284   9.137  17.368  0.00  0.00    +0.000 A 
ATOM      8  N   UNL     1       1.943  10.431  17.576  0.00  0.00    +0.000 NA
ATOM      9  C   UNL     1       1.485  10.743  18.796  0.00  0.00    +0.000 A 
ATOM     10  N   UNL     1       1.138  12.071  19.039  0.00  0.00    +0.000 N 
ATOM     11  N   UNL     1       1.379   9.854  19.794  0.00  0.00    +0.000 NA
ATOM     12  C   UNL     1       1.723   8.580  19.545  0.00  0.00    +0.000 A 
ATOM     13  H   UNL     1       1.228  12.601  18.182  0.00  0.00    +0.000 HD
ENDROOT
BRANCH   4  14
ATOM     14  C   UNL     1       2.818   4.513  18.720  0.00  0.00    +0.000 A 
ATOM     15  C   UNL     1       1.962   3.700  17.965  0.00  0.00    +0.000 A 
ATOM     16  C   UNL     1       2.300   2.368  17.712  0.00  0.00    +0.000 A 
ATOM     17  C   UNL     1       3.491   1.842  18.208  0.00  0.00    +0.000 A 
ATOM     18  C   UNL     1       4.353   2.647  18.947  0.00  0.00    +0.000 A 
ATOM     19  C   UNL     1       4.025   3.981  19.190  0.00  0.00    +0.000 A 
ENDBRANCH   4  14
BRANCH  10  20
ATOM     20  C   UNL     1       0.102  12.525  19.879  0.00  0.00    +0.000 A 
ATOM     21  C   UNL     1       0.419  13.351  20.964  0.00  0.00    +0.000 A 
ATOM     22  C   UNL     1      -0.581  13.830  21.815  0.00  0.00    +0.000 A 
ATOM     23  C   UNL     1      -1.916  13.512  21.575  0.00  0.00    +0.000 A 
ATOM     24  C   UNL     1      -2.250  12.712  20.486  0.00  0.00    +0.000 A 
ATOM     25  C   UNL     1      -1.247  12.224  19.644  0.00  0.00    +0.000 A 
ENDBRANCH  10  20
BRANCH   1  26
ATOM     26  C   UNL     1       1.020   8.059  21.873  0.00  0.00    +0.000 C 
BRANCH  26  27
ATOM     27  C   UNL     1      -0.426   8.548  21.780  0.00  0.00    +0.000 C 
BRANCH  27  29
ATOM     28  N   UNL     1      -0.801  10.614  23.360  0.00  0.00    +0.000 NA
ATOM     29  C   UNL     1      -0.633   9.707  22.662  0.00  0.00    +0.000 C 
ENDBRANCH  27  29
ENDBRANCH  26  27
ENDBRANCH   1  26
TORSDOF 5
ENDMDL
MODEL 6
REMARK VINA RESULT:      -6.7      1.689      7.767
REMARK  Name = 
REMARK  5 active torsions:
REMARK  status: ('A' for Active; 'I' for Inactive)
REMARK    1  A    between atoms: C_2  and  C_3
REMARK    2  A    between atoms: C_3  and  C_4
REMARK    3  A    between atoms: C_4  and  N_5
REMARK    4  A    between atoms: C_8  and  C_9
REMARK    5  A    between atoms: N_20  and  C_21
REMARK                            x       y       z     vdW  Elec       q    Type
REMARK                         _______ _______ _______ _____ _____    ______ ____
ROOT
ATOM      1  N   UNL     1      -1.049  10.984  19.599  0.00  0.00    +0.000 N 
ATOM      2  C   UNL     1      -2.046  11.924  19.790  0.00  0.00    +0.000 A 
ATOM      3  O   UNL     1      -2.661  12.426  18.858  0.00  0.00    +0.000 OA
ATOM      4  C   UNL     1      -2.365  12.308  21.246  0.00  0.00    +0.000 A 
ATOM      5  N   UNL     1      -1.777  11.721  22.255  0.00  0.00    +0.000 NA
ATOM      6  C   UNL     1      -0.810  10.741  21.976  0.00  0.00    +0.000 A 
ATOM      7  C   UNL     1      -0.163  10.054  22.983  0.00  0.00    +0.000 A 
ATOM      8  N   UNL     1       0.771   9.096  22.778  0.00  0.00    +0.000 NA
ATOM      9  C   UNL     1       1.068   8.807  21.503  0.00  0.00    +0.000 A 
ATOM     10  N   UNL     1       2.036   7.833  21.266  0.00  0.00    +0.000 N 
ATOM     11  N   UNL     1       0.506   9.430  20.456  0.00  0.00    +0.000 NA
ATOM     12  C   UNL     1      -0.421  10.369  20.702  0.00  0.00    +0.000 A 
ATOM     13  H   UNL     1       2.325   7.430  22.147  0.00  0.00    +0.000 HD
ENDROOT
BRANCH   4  14
ATOM     14  C   UNL     1      -3.389  13.361  21.516  0.00  0.00    +0.000 A 
ATOM     15  C   UNL     1      -2.994  14.705  21.548  0.00  0.00    +0.000 A 
ATOM     16  C   UNL     1      -3.931  15.707  21.813  0.00  0.00    +0.000 A 
ATOM     17  C   UNL     1      -5.264  15.374  22.046  0.00  0.00    +0.000 A 
ATOM     18  C   UNL     1      -5.667  14.043  22.002  0.00  0.00    +0.000 A 
ATOM     19  C   UNL     1      -4.736  13.041  21.725  0.00  0.00    +0.000 A 
ENDBRANCH   4  14
BRANCH  10  20
ATOM     20  C   UNL     1       2.061   6.923  20.191  0.00  0.00    +0.000 A 
ATOM     21  C   UNL     1       1.648   5.603  20.408  0.00  0.00    +0.000 A 
ATOM     22  C   UNL     1       1.648   4.672  19.365  0.00  0.00    +0.000 A 
ATOM     23  C   UNL     1       2.035   5.057  18.084  0.00  0.00    +0.000 A 
ATOM     24  C   UNL     1       2.425   6.372  17.846  0.00  0.00    +0.000 A 
ATOM     25  C   UNL     1       2.435   7.297  18.892  0.00  0.00    +0.000 A 
ENDBRANCH  10  20
BRANCH   1  26
ATOM     26  C   UNL     1      -0.688  10.583  18.239  0.00  0.00    +0.000 C 
BRANCH  26  27
ATOM     27  C   UNL     1      -1.724   9.654  17.602  0.00  0.00    +0.000 C 
BRANCH  27  29
ATOM     28  N   UNL     1      -2.767  10.782  15.471  0.00  0.00    +0.000 NA
ATOM     29  C   UNL     1      -2.308  10.281  16.407  0.00  0.00    +0.000 C 
ENDBRANCH  27  29
ENDBRANCH  26  27
ENDBRANCH   1  26
TORSDOF 5
ENDMDL
MODEL 7
REMARK VINA RESULT:      -6.6      1.348      1.744
REMARK  Name = 
REMARK  5 active torsions:
REMARK  status: ('A' for Active; 'I' for Inactive)
REMARK    1  A    between atoms: C_2  and  C_3
REMARK    2  A    between atoms: C_3  and  C_4
REMARK    3  A    between atoms: C_4  and  N_5
REMARK    4  A    between atoms: C_8  and  C_9
REMARK    5  A    between atoms: N_20  and  C_21
REMARK                            x       y       z     vdW  Elec       q    Type
REMARK                         _______ _______ _______ _____ _____    ______ ____
ROOT
ATOM      1  N   UNL     1       0.380  10.452  19.330  0.00  0.00    +0.000 N 
ATOM      2  C   UNL     1       1.184   9.522  18.694  0.00  0.00    +0.000 A 
ATOM      3  O   UNL     1       1.478   9.613  17.508  0.00  0.00    +0.000 OA
ATOM      4  C   UNL     1       1.712   8.360  19.553  0.00  0.00    +0.000 A 
ATOM      5  N   UNL     1       1.477   8.295  20.837  0.00  0.00    +0.000 NA
ATOM      6  C   UNL     1       0.694   9.306  21.417  0.00  0.00    +0.000 A 
ATOM      7  C   UNL     1       0.422   9.327  22.770  0.00  0.00    +0.000 A 
ATOM      8  N   UNL     1      -0.321  10.275  23.387  0.00  0.00    +0.000 NA
ATOM      9  C   UNL     1      -0.809  11.255  22.614  0.00  0.00    +0.000 A 
ATOM     10  N   UNL     1      -1.587  12.238  23.224  0.00  0.00    +0.000 N 
ATOM     11  N   UNL     1      -0.614  11.315  21.288  0.00  0.00    +0.000 NA
ATOM     12  C   UNL     1       0.133  10.358  20.715  0.00  0.00    +0.000 A 
ATOM     13  H   UNL     1      -1.599  12.079  24.223  0.00  0.00    +0.000 HD
ENDROOT
BRANCH   4  14
ATOM     14  C   UNL     1       2.534   7.292  18.911  0.00  0.00    +0.000 A 
ATOM     15  C   UNL     1       2.403   5.969  19.356  0.00  0.00    +0.000 A 
ATOM     16  C   UNL     1       3.172   4.954  18.780  0.00  0.00    +0.000 A 
ATOM     17  C   UNL     1       4.072   5.253  17.759  0.00  0.00    +0.000 A 
ATOM     18  C   UNL     1       4.198   6.561  17.302  0.00  0.00    +0.000 A 
ATOM     19  C   UNL     1       3.422   7.575  17.866  0.00  0.00    +0.000 A 
ENDBRANCH   4  14
BRANCH  10  20
ATOM     20  C   UNL     1      -1.648  13.598  22.865  0.00  0.00    +0.000 A 
ATOM     21  C   UNL     1      -2.825  14.099  22.295  0.00  0.00    +0.000 A 
ATOM     22  C   UNL     1      -2.930  15.445  21.935  0.00  0.00    +0.000 A 
ATOM     23  C   UNL     1      -1.868  16.316  22.166  0.00  0.00    +0.000 A 
ATOM     24  C   UNL     1      -0.699  15.840  22.755  0.00  0.00    +0.000 A 
ATOM     25  C   UNL     1      -0.593  14.491  23.103  0.00  0.00    +0.000 A 
ENDBRANCH  10  20
BRANCH   1  26
ATOM     26  C   UNL     1      -0.164  11.576  18.568  0.00  0.00    +0.000 C 
BRANCH  26  27
ATOM     27  C   UNL     1       0.791  12.770  18.510  0.00  0.00    +0.000 C 
BRANCH  27  29
ATOM     28  N   UNL     1      -0.460  14.975  19.202  0.00  0.00    +0.000 NA
ATOM     29  C   UNL     1       0.090  14.005  18.893  0.00  0.00    +0.000 C 
ENDBRANCH  27  29
ENDBRANCH  26  27
ENDBRANCH   1  26
TORSDOF 5
ENDMDL
MODEL 8
REMARK VINA RESULT:      -6.6      1.178      1.907
REMARK  Name = 
REMARK  5 active torsions:
REMARK  status: ('A' for Active; 'I' for Inactive)
REMARK    1  A    between atoms: C_2  and  C_3
REMARK    2  A    between atoms: C_3  and  C_4
REMARK    3  A    between atoms: C_4  and  N_5
REMARK    4  A    between atoms: C_8  and  C_9
REMARK    5  A    between atoms: N_20  and  C_21
REMARK                            x       y       z     vdW  Elec       q    Type
REMARK                         _______ _______ _______ _____ _____    ______ ____
ROOT
ATOM      1  N   UNL     1       0.276  10.238  19.242  0.00  0.00    +0.000 N 
ATOM      2  C   UNL     1       1.089   9.354  18.554  0.00  0.00    +0.000 A 
ATOM      3  O   UNL     1       1.290   9.451  17.350  0.00  0.00    +0.000 OA
ATOM      4  C   UNL     1       1.753   8.238  19.379  0.00  0.00    +0.000 A 
ATOM      5  N   UNL     1       1.616   8.171  20.678  0.00  0.00    +0.000 NA
ATOM      6  C   UNL     1       0.813   9.136  21.307  0.00  0.00    +0.000 A 
ATOM      7  C   UNL     1       0.640   9.153  22.676  0.00  0.00    +0.000 A 
ATOM      8  N   UNL     1      -0.115  10.059  23.340  0.00  0.00    +0.000 NA
ATOM      9  C   UNL     1      -0.721  10.998  22.600  0.00  0.00    +0.000 A 
ATOM     10  N   UNL     1      -1.514  11.935  23.259  0.00  0.00    +0.000 N 
ATOM     11  N   UNL     1      -0.627  11.056  21.263  0.00  0.00    +0.000 NA
ATOM     12  C   UNL     1       0.137  10.143  20.643  0.00  0.00    +0.000 A 
ATOM     13  H   UNL     1      -1.443  11.786  24.258  0.00  0.00    +0.000 HD
ENDROOT
BRANCH   4  14
ATOM     14  C   UNL     1       2.592   7.217  18.684  0.00  0.00    +0.000 A 
ATOM     15  C   UNL     1       3.596   7.642  17.804  0.00  0.00    +0.000 A 
ATOM     16  C   UNL     1       4.385   6.706  17.131  0.00  0.00    +0.000 A 
ATOM     17  C   UNL     1       4.177   5.343  17.334  0.00  0.00    +0.000 A 
ATOM     18  C   UNL     1       3.191   4.912  18.217  0.00  0.00    +0.000 A 
ATOM     19  C   UNL     1       2.411   5.845  18.900  0.00  0.00    +0.000 A 
ENDBRANCH   4  14
BRANCH  10  20
ATOM     20  C   UNL     1      -1.688  13.285  22.898  0.00  0.00    +0.000 A 
ATOM     21  C   UNL     1      -2.953  13.719  22.481  0.00  0.00    +0.000 A 
ATOM     22  C   UNL     1      -3.170  15.053  22.124  0.00  0.00    +0.000 A 
ATOM     23  C   UNL     1      -2.131  15.978  22.207  0.00  0.00    +0.000 A 
ATOM     24  C   UNL     1      -0.874  15.567  22.643  0.00  0.00    +0.000 A 
ATOM     25  C   UNL     1      -0.657  14.231  22.988  0.00  0.00    +0.000 A 
ENDBRANCH  10  20
BRANCH   1  26
ATOM     26  C   UNL     1      -0.393  11.317  18.515  0.00  0.00    +0.000 C 
BRANCH  26  27
ATOM     27  C   UNL     1       0.166  12.699  18.859  0.00  0.00    +0.000 C 
BRANCH  27  29
ATOM     28  N   UNL     1       2.694  12.855  18.159  0.00  0.00    +0.000 NA
ATOM     29  C   UNL     1       1.582  12.789  18.470  0.00  0.00    +0.000 C 
ENDBRANCH  27  29
ENDBRANCH  26  27
ENDBRANCH   1  26
TORSDOF 5
ENDMDL
MODEL 9
REMARK VINA RESULT:      -6.6      1.188      1.912
REMARK  Name = 
REMARK  5 active torsions:
REMARK  status: ('A' for Active; 'I' for Inactive)
REMARK    1  A    between atoms: C_2  and  C_3
REMARK    2  A    between atoms: C_3  and  C_4
REMARK    3  A    between atoms: C_4  and  N_5
REMARK    4  A    between atoms: C_8  and  C_9
REMARK    5  A    between atoms: N_20  and  C_21
REMARK                            x       y       z     vdW  Elec       q    Type
REMARK                         _______ _______ _______ _____ _____    ______ ____
ROOT
ATOM      1  N   UNL     1       0.262  10.246  19.238  0.00  0.00    +0.000 N 
ATOM      2  C   UNL     1       1.081   9.363  18.556  0.00  0.00    +0.000 A 
ATOM      3  O   UNL     1       1.285   9.455  17.352  0.00  0.00    +0.000 OA
ATOM      4  C   UNL     1       1.745   8.252  19.388  0.00  0.00    +0.000 A 
ATOM      5  N   UNL     1       1.605   8.190  20.687  0.00  0.00    +0.000 NA
ATOM      6  C   UNL     1       0.797   9.155  21.310  0.00  0.00    +0.000 A 
ATOM      7  C   UNL     1       0.619   9.178  22.678  0.00  0.00    +0.000 A 
ATOM      8  N   UNL     1      -0.142  10.084  23.336  0.00  0.00    +0.000 NA
ATOM      9  C   UNL     1      -0.748  11.017  22.589  0.00  0.00    +0.000 A 
ATOM     10  N   UNL     1      -1.547  11.954  23.242  0.00  0.00    +0.000 N 
ATOM     11  N   UNL     1      -0.650  11.069  21.252  0.00  0.00    +0.000 NA
ATOM     12  C   UNL     1       0.118  10.156  20.638  0.00  0.00    +0.000 A 
ATOM     13  H   UNL     1      -1.479  11.810  24.241  0.00  0.00    +0.000 HD
ENDROOT
BRANCH   4  14
ATOM     14  C   UNL     1       2.591   7.231  18.701  0.00  0.00    +0.000 A 
ATOM     15  C   UNL     1       2.401   5.875  18.997  0.00  0.00    +0.000 A 
ATOM     16  C   UNL     1       3.190   4.903  18.377  0.00  0.00    +0.000 A 
ATOM     17  C   UNL     1       4.170   5.278  17.460  0.00  0.00    +0.000 A 
ATOM     18  C   UNL     1       4.356   6.622  17.151  0.00  0.00    +0.000 A 
ATOM     19  C   UNL     1       3.561   7.594  17.758  0.00  0.00    +0.000 A 
ENDBRANCH   4  14
BRANCH  10  20
ATOM     20  C   UNL     1      -1.726  13.302  22.875  0.00  0.00    +0.000 A 
ATOM     21  C   UNL     1      -0.661  14.197  23.036  0.00  0.00    +0.000 A 
ATOM     22  C   UNL     1      -0.794  15.541  22.673  0.00  0.00    +0.000 A 
ATOM     23  C   UNL     1      -1.986  16.000  22.118  0.00  0.00    +0.000 A 
ATOM     24  C   UNL     1      -3.046  15.118  21.928  0.00  0.00    +0.000 A 
ATOM     25  C   UNL     1      -2.914  13.778  22.303  0.00  0.00    +0.000 A 
ENDBRANCH  10  20
BRANCH   1  26
ATOM     26  C   UNL     1      -0.409  11.319  18.504  0.00  0.00    +0.000 C 
BRANCH  26  27
ATOM     27  C   UNL     1       0.140  12.705  18.849  0.00  0.00    +0.000 C 
BRANCH  27  29
ATOM     28  N   UNL     1       2.672  12.882  18.173  0.00  0.00    +0.000 NA
ATOM     29  C   UNL     1       1.556  12.805  18.466  0.00  0.00    +0.000 C 
ENDBRANCH  27  29
ENDBRANCH  26  27
ENDBRANCH   1  26
TORSDOF 5
ENDMDL
