MODEL 1
REMARK VINA RESULT:      -6.0      0.000      0.000
REMARK  Name = 
REMARK  21 active torsions:
REMARK  status: ('A' for Active; 'I' for Inactive)
REMARK    1  A    between atoms: C_1  and  S_2
REMARK    2  A    between atoms: S_2  and  C_4
REMARK    3  A    between atoms: C_4  and  C_5
REMARK    4  A    between atoms: C_5  and  C_6
REMARK    5  A    between atoms: C_6  and  C_7
REMARK    6  A    between atoms: C_7  and  N_8
REMARK    7  A    between atoms: N_8  and  C_9
REMARK    8  A    between atoms: C_9  and  S_11
REMARK    9  A    between atoms: S_11  and  C_12
REMARK   10  A    between atoms: C_12  and  C_13
REMARK   11  A    between atoms: C_13  and  N_14
REMARK   12  A    between atoms: C_13  and  C_24
REMARK   13  A    between atoms: C_15  and  C_17
REMARK   14  A    between atoms: C_17  and  C_18
REMARK   15  A    between atoms: C_18  and  C_19
REMARK   16  A    between atoms: C_19  and  N_20
REMARK   17  A    between atoms: C_19  and  C_21
REMARK   18  A    between atoms: C_21  and  O_23
REMARK   19  A    between atoms: N_26  and  CA_27
REMARK   20  A    between atoms: CA_27  and  C_28
REMARK   21  A    between atoms: C_28  and  OXT_30
REMARK                            x       y       z     vdW  Elec       q    Type
REMARK                         _______ _______ _______ _____ _____    ______ ____
ROOT
ATOM      1  C   UNK A   1       2.847   6.463  17.665  0.00  0.00    +0.000 C 
ENDROOT
BRANCH   1   2
ATOM      2  C   UNK A   1       4.203   6.158  16.980  0.00  0.00    +0.000 C 
ATOM      3  O   UNK A   1       4.897   7.030  16.458  0.00  0.00    +0.000 OA
ATOM      4  N   GLY A   2       4.548   4.831  16.868  0.00  0.00    +0.000 N 
ATOM      5  H   GLY A   2       3.890   4.104  17.142  0.00  0.00    +0.000 HD
BRANCH   4   6
ATOM      6  CA  GLY A   2       5.756   4.452  16.150  0.00  0.00    +0.000 C 
BRANCH   6   7
ATOM      7  C   GLY A   2       7.017   4.914  16.852  0.00  0.00    +0.000 C 
ATOM      8  O   GLY A   2       7.479   4.383  17.853  0.00  0.00    +0.000 OA
BRANCH   7   9
ATOM      9  OXT GLY A   2       7.598   5.987  16.263  0.00  0.00    +0.000 OA
ATOM     10  HXT GLY A   2       6.976   6.693  15.999  0.00  0.00    +0.000 HD
ENDBRANCH   7   9
ENDBRANCH   6   7
ENDBRANCH   4   6
ENDBRANCH   1   2
BRANCH   1  11
ATOM     11  N   UNK A   1       2.542   5.451  18.689  0.00  0.00    +0.000 N 
ATOM     12  C   UNK A   1       1.745   4.357  18.450  0.00  0.00    +0.000 C 
ATOM     13  O   UNK A   1       1.255   4.055  17.363  0.00  0.00    +0.000 OA
ATOM     14  H   UNK A   1       2.781   5.681  19.647  0.00  0.00    +0.000 HD
BRANCH  12  15
ATOM     15  C   UNK A   1       1.425   3.533  19.677  0.00  0.00    +0.000 C 
BRANCH  15  16
ATOM     16  C   UNK A   1       2.110   2.166  19.627  0.00  0.00    +0.000 C 
BRANCH  16  17
ATOM     17  C   UNK A   1       3.475   2.140  18.918  0.00  0.00    +0.000 C 
BRANCH  17  18
ATOM     18  N   UNK A   1       3.719   0.755  18.439  0.00  0.00    +0.000 NA
ATOM     19  H   UNK A   1       4.079   0.215  19.233  0.00  0.00    +0.000 HD
ATOM     20  H   UNK A   1       4.517   0.778  17.797  0.00  0.00    +0.000 HD
ENDBRANCH  17  18
BRANCH  17  21
ATOM     21  C   UNK A   1       4.616   2.568  19.859  0.00  0.00    +0.000 C 
ATOM     22  O   UNK A   1       5.032   1.877  20.778  0.00  0.00    +0.000 OA
BRANCH  21  23
ATOM     23  O   UNK A   1       5.128   3.786  19.578  0.00  0.00    +0.000 OA
ATOM     24  H   UNK A   1       5.627   4.208  20.317  0.00  0.00    +0.000 HD
ENDBRANCH  21  23
ENDBRANCH  17  21
ENDBRANCH  16  17
ENDBRANCH  15  16
ENDBRANCH  12  15
ENDBRANCH   1  11
BRANCH   1  25
ATOM     25  C   UNK A   1       2.925   7.902  18.224  0.00  0.00    +0.000 C 
BRANCH  25  26
ATOM     26  S   UNK A   1       1.399   8.455  19.049  0.00  0.00    +0.000 S 
BRANCH  26  27
ATOM     27  C   UNK A   1       1.096  10.042  18.353  0.00  0.00    +0.000 C 
ATOM     28  S   UNK A   1       2.133  11.344  18.338  0.00  0.00    +0.000 S 
BRANCH  27  29
ATOM     29  N   UNK A   1      -0.143   9.982  17.762  0.00  0.00    +0.000 N 
ATOM     30  H   UNK A   1      -0.117   9.959  16.750  0.00  0.00    +0.000 HD
BRANCH  29  31
ATOM     31  C   UNK A   1      -1.429  10.295  18.373  0.00  0.00    +0.000 C 
BRANCH  31  32
ATOM     32  C   UNK A   1      -2.611   9.711  17.594  0.00  0.00    +0.000 C 
BRANCH  32  33
ATOM     33  C   UNK A   1      -3.862  10.603  17.603  0.00  0.00    +0.000 C 
BRANCH  33  34
ATOM     34  C   UNK A   1      -3.794  11.768  18.595  0.00  0.00    +0.000 C 
BRANCH  34  36
ATOM     35  C   UNK A   1      -6.393  11.150  18.138  0.00  0.00    +0.000 C 
ATOM     36  S   UNK A   1      -5.448  12.356  19.098  0.00  0.00    +0.000 S 
ATOM     37  O   UNK A   1      -5.660  11.975  20.607  0.00  0.00    +0.000 OA
ENDBRANCH  34  36
ENDBRANCH  33  34
ENDBRANCH  32  33
ENDBRANCH  31  32
ENDBRANCH  29  31
ENDBRANCH  27  29
ENDBRANCH  26  27
ENDBRANCH  25  26
ENDBRANCH   1  25
TORSDOF 20
ENDMDL
MODEL 2
REMARK VINA RESULT:      -6.0      4.608      7.258
REMARK  Name = 
REMARK  21 active torsions:
REMARK  status: ('A' for Active; 'I' for Inactive)
REMARK    1  A    between atoms: C_1  and  S_2
REMARK    2  A    between atoms: S_2  and  C_4
REMARK    3  A    between atoms: C_4  and  C_5
REMARK    4  A    between atoms: C_5  and  C_6
REMARK    5  A    between atoms: C_6  and  C_7
REMARK    6  A    between atoms: C_7  and  N_8
REMARK    7  A    between atoms: N_8  and  C_9
REMARK    8  A    between atoms: C_9  and  S_11
REMARK    9  A    between atoms: S_11  and  C_12
REMARK   10  A    between atoms: C_12  and  C_13
REMARK   11  A    between atoms: C_13  and  N_14
REMARK   12  A    between atoms: C_13  and  C_24
REMARK   13  A    between atoms: C_15  and  C_17
REMARK   14  A    between atoms: C_17  and  C_18
REMARK   15  A    between atoms: C_18  and  C_19
REMARK   16  A    between atoms: C_19  and  N_20
REMARK   17  A    between atoms: C_19  and  C_21
REMARK   18  A    between atoms: C_21  and  O_23
REMARK   19  A    between atoms: N_26  and  CA_27
REMARK   20  A    between atoms: CA_27  and  C_28
REMARK   21  A    between atoms: C_28  and  OXT_30
REMARK                            x       y       z     vdW  Elec       q    Type
REMARK                         _______ _______ _______ _____ _____    ______ ____
ROOT
ATOM      1  C   UNK A   1       6.375   6.262  17.263  0.00  0.00    +0.000 C 
ENDROOT
BRANCH   1   2
ATOM      2  C   UNK A   1       6.995   5.367  16.162  0.00  0.00    +0.000 C 
ATOM      3  O   UNK A   1       7.801   4.471  16.407  0.00  0.00    +0.000 OA
ATOM      4  N   GLY A   2       6.696   5.700  14.860  0.00  0.00    +0.000 N 
ATOM      5  H   GLY A   2       6.172   6.548  14.655  0.00  0.00    +0.000 HD
BRANCH   4   6
ATOM      6  CA  GLY A   2       7.316   4.973  13.763  0.00  0.00    +0.000 C 
BRANCH   6   7
ATOM      7  C   GLY A   2       6.471   3.807  13.288  0.00  0.00    +0.000 C 
ATOM      8  O   GLY A   2       6.187   3.598  12.117  0.00  0.00    +0.000 OA
BRANCH   7   9
ATOM      9  OXT GLY A   2       6.051   3.004  14.295  0.00  0.00    +0.000 OA
ATOM     10  HXT GLY A   2       5.141   2.662  14.190  0.00  0.00    +0.000 HD
ENDBRANCH   7   9
ENDBRANCH   6   7
ENDBRANCH   4   6
ENDBRANCH   1   2
BRANCH   1  11
ATOM     11  N   UNK A   1       6.941   7.620  17.211  0.00  0.00    +0.000 N 
ATOM     12  C   UNK A   1       7.956   8.043  18.037  0.00  0.00    +0.000 C 
ATOM     13  O   UNK A   1       8.550   7.342  18.853  0.00  0.00    +0.000 OA
ATOM     14  H   UNK A   1       6.429   8.310  16.674  0.00  0.00    +0.000 HD
BRANCH  12  15
ATOM     15  C   UNK A   1       8.276   9.517  17.934  0.00  0.00    +0.000 C 
BRANCH  15  16
ATOM     16  C   UNK A   1       9.353   9.927  18.939  0.00  0.00    +0.000 C 
BRANCH  16  17
ATOM     17  C   UNK A   1       9.754  11.411  18.906  0.00  0.00    +0.000 C 
BRANCH  17  18
ATOM     18  N   UNK A   1       9.156  12.024  17.690  0.00  0.00    +0.000 NA
ATOM     19  H   UNK A   1       8.222  12.362  17.946  0.00  0.00    +0.000 HD
ATOM     20  H   UNK A   1       8.953  11.273  17.025  0.00  0.00    +0.000 HD
ENDBRANCH  17  18
BRANCH  17  21
ATOM     21  C   UNK A   1      11.283  11.590  18.872  0.00  0.00    +0.000 C 
ATOM     22  O   UNK A   1      11.959  11.841  19.860  0.00  0.00    +0.000 OA
BRANCH  21  23
ATOM     23  O   UNK A   1      11.823  11.443  17.642  0.00  0.00    +0.000 OA
ATOM     24  H   UNK A   1      11.507  12.091  16.969  0.00  0.00    +0.000 HD
ENDBRANCH  21  23
ENDBRANCH  17  21
ENDBRANCH  16  17
ENDBRANCH  15  16
ENDBRANCH  12  15
ENDBRANCH   1  11
BRANCH   1  25
ATOM     25  C   UNK A   1       4.840   6.227  17.078  0.00  0.00    +0.000 C 
BRANCH  25  26
ATOM     26  S   UNK A   1       4.150   4.546  16.965  0.00  0.00    +0.000 S 
BRANCH  26  27
ATOM     27  C   UNK A   1       3.525   4.239  18.580  0.00  0.00    +0.000 C 
ATOM     28  S   UNK A   1       4.029   3.059  19.642  0.00  0.00    +0.000 S 
BRANCH  27  29
ATOM     29  N   UNK A   1       2.581   5.206  18.827  0.00  0.00    +0.000 N 
ATOM     30  H   UNK A   1       2.261   5.691  17.998  0.00  0.00    +0.000 HD
BRANCH  29  31
ATOM     31  C   UNK A   1       2.270   5.830  20.108  0.00  0.00    +0.000 C 
BRANCH  31  32
ATOM     32  C   UNK A   1       2.159   7.355  20.010  0.00  0.00    +0.000 C 
BRANCH  32  33
ATOM     33  C   UNK A   1       1.100   7.960  20.942  0.00  0.00    +0.000 C 
BRANCH  33  34
ATOM     34  C   UNK A   1       0.444   9.235  20.404  0.00  0.00    +0.000 C 
BRANCH  34  36
ATOM     35  C   UNK A   1      -0.942  11.441  21.147  0.00  0.00    +0.000 C 
ATOM     36  S   UNK A   1       0.638  10.654  21.537  0.00  0.00    +0.000 S 
ATOM     37  O   UNK A   1       0.508  10.121  23.009  0.00  0.00    +0.000 OA
ENDBRANCH  34  36
ENDBRANCH  33  34
ENDBRANCH  32  33
ENDBRANCH  31  32
ENDBRANCH  29  31
ENDBRANCH  27  29
ENDBRANCH  26  27
ENDBRANCH  25  26
ENDBRANCH   1  25
TORSDOF 20
ENDMDL
MODEL 3
REMARK VINA RESULT:      -5.9      4.471      9.620
REMARK  Name = 
REMARK  21 active torsions:
REMARK  status: ('A' for Active; 'I' for Inactive)
REMARK    1  A    between atoms: C_1  and  S_2
REMARK    2  A    between atoms: S_2  and  C_4
REMARK    3  A    between atoms: C_4  and  C_5
REMARK    4  A    between atoms: C_5  and  C_6
REMARK    5  A    between atoms: C_6  and  C_7
REMARK    6  A    between atoms: C_7  and  N_8
REMARK    7  A    between atoms: N_8  and  C_9
REMARK    8  A    between atoms: C_9  and  S_11
REMARK    9  A    between atoms: S_11  and  C_12
REMARK   10  A    between atoms: C_12  and  C_13
REMARK   11  A    between atoms: C_13  and  N_14
REMARK   12  A    between atoms: C_13  and  C_24
REMARK   13  A    between atoms: C_15  and  C_17
REMARK   14  A    between atoms: C_17  and  C_18
REMARK   15  A    between atoms: C_18  and  C_19
REMARK   16  A    between atoms: C_19  and  N_20
REMARK   17  A    between atoms: C_19  and  C_21
REMARK   18  A    between atoms: C_21  and  O_23
REMARK   19  A    between atoms: N_26  and  CA_27
REMARK   20  A    between atoms: CA_27  and  C_28
REMARK   21  A    between atoms: C_28  and  OXT_30
REMARK                            x       y       z     vdW  Elec       q    Type
REMARK                         _______ _______ _______ _____ _____    ______ ____
ROOT
ATOM      1  C   UNK A   1       2.887   6.403  18.193  0.00  0.00    +0.000 C 
ENDROOT
BRANCH   1   2
ATOM      2  C   UNK A   1       2.134   5.081  18.479  0.00  0.00    +0.000 C 
ATOM      3  O   UNK A   1       1.842   4.275  17.597  0.00  0.00    +0.000 OA
ATOM      4  N   GLY A   2       1.688   4.896  19.768  0.00  0.00    +0.000 N 
ATOM      5  H   GLY A   2       1.777   5.643  20.454  0.00  0.00    +0.000 HD
BRANCH   4   6
ATOM      6  CA  GLY A   2       0.885   3.729  20.100  0.00  0.00    +0.000 C 
BRANCH   6   7
ATOM      7  C   GLY A   2       1.723   2.582  20.631  0.00  0.00    +0.000 C 
ATOM      8  O   GLY A   2       2.342   1.799  19.922  0.00  0.00    +0.000 OA
BRANCH   7   9
ATOM      9  OXT GLY A   2       1.725   2.498  21.983  0.00  0.00    +0.000 OA
ATOM     10  HXT GLY A   2       1.686   1.587  22.334  0.00  0.00    +0.000 HD
ENDBRANCH   7   9
ENDBRANCH   6   7
ENDBRANCH   4   6
ENDBRANCH   1   2
BRANCH   1  11
ATOM     11  N   UNK A   1       2.316   7.509  18.979  0.00  0.00    +0.000 N 
ATOM     12  C   UNK A   1       1.912   8.698  18.419  0.00  0.00    +0.000 C 
ATOM     13  O   UNK A   1       1.911   8.958  17.218  0.00  0.00    +0.000 OA
ATOM     14  H   UNK A   1       2.404   7.449  19.987  0.00  0.00    +0.000 HD
BRANCH  12  15
ATOM     15  C   UNK A   1       1.510   9.759  19.420  0.00  0.00    +0.000 C 
BRANCH  15  16
ATOM     16  C   UNK A   1       0.806  10.932  18.738  0.00  0.00    +0.000 C 
BRANCH  16  17
ATOM     17  C   UNK A   1      -0.724  10.812  18.636  0.00  0.00    +0.000 C 
BRANCH  17  18
ATOM     18  N   UNK A   1      -1.046  10.069  17.389  0.00  0.00    +0.000 NA
ATOM     19  H   UNK A   1      -1.172  10.763  16.644  0.00  0.00    +0.000 HD
ATOM     20  H   UNK A   1      -1.983   9.670  17.491  0.00  0.00    +0.000 HD
ENDBRANCH  17  18
BRANCH  17  21
ATOM     21  C   UNK A   1      -1.406  12.192  18.602  0.00  0.00    +0.000 C 
ATOM     22  O   UNK A   1      -2.212  12.571  19.440  0.00  0.00    +0.000 OA
BRANCH  21  23
ATOM     23  O   UNK A   1      -1.032  12.961  17.556  0.00  0.00    +0.000 OA
ATOM     24  H   UNK A   1      -1.702  13.039  16.836  0.00  0.00    +0.000 HD
ENDBRANCH  21  23
ENDBRANCH  17  21
ENDBRANCH  16  17
ENDBRANCH  15  16
ENDBRANCH  12  15
ENDBRANCH   1  11
BRANCH   1  25
ATOM     25  C   UNK A   1       4.386   6.154  18.478  0.00  0.00    +0.000 C 
BRANCH  25  26
ATOM     26  S   UNK A   1       5.484   6.609  17.099  0.00  0.00    +0.000 S 
BRANCH  26  27
ATOM     27  C   UNK A   1       7.073   6.718  17.847  0.00  0.00    +0.000 C 
ATOM     28  S   UNK A   1       7.694   5.725  19.029  0.00  0.00    +0.000 S 
BRANCH  27  29
ATOM     29  N   UNK A   1       7.733   7.747  17.218  0.00  0.00    +0.000 N 
ATOM     30  H   UNK A   1       8.419   7.442  16.538  0.00  0.00    +0.000 HD
BRANCH  29  31
ATOM     31  C   UNK A   1       7.818   9.137  17.651  0.00  0.00    +0.000 C 
BRANCH  31  32
ATOM     32  C   UNK A   1       8.879   9.354  18.734  0.00  0.00    +0.000 C 
BRANCH  32  33
ATOM     33  C   UNK A   1       9.263  10.827  18.939  0.00  0.00    +0.000 C 
BRANCH  33  34
ATOM     34  C   UNK A   1      10.268  11.361  17.915  0.00  0.00    +0.000 C 
BRANCH  34  36
ATOM     35  C   UNK A   1      11.768  13.605  18.166  0.00  0.00    +0.000 C 
ATOM     36  S   UNK A   1      11.844  11.874  18.683  0.00  0.00    +0.000 S 
ATOM     37  O   UNK A   1      11.647  11.875  20.241  0.00  0.00    +0.000 OA
ENDBRANCH  34  36
ENDBRANCH  33  34
ENDBRANCH  32  33
ENDBRANCH  31  32
ENDBRANCH  29  31
ENDBRANCH  27  29
ENDBRANCH  26  27
ENDBRANCH  25  26
ENDBRANCH   1  25
TORSDOF 20
ENDMDL
MODEL 4
REMARK VINA RESULT:      -5.9      4.318      8.022
REMARK  Name = 
REMARK  21 active torsions:
REMARK  status: ('A' for Active; 'I' for Inactive)
REMARK    1  A    between atoms: C_1  and  S_2
REMARK    2  A    between atoms: S_2  and  C_4
REMARK    3  A    between atoms: C_4  and  C_5
REMARK    4  A    between atoms: C_5  and  C_6
REMARK    5  A    between atoms: C_6  and  C_7
REMARK    6  A    between atoms: C_7  and  N_8
REMARK    7  A    between atoms: N_8  and  C_9
REMARK    8  A    between atoms: C_9  and  S_11
REMARK    9  A    between atoms: S_11  and  C_12
REMARK   10  A    between atoms: C_12  and  C_13
REMARK   11  A    between atoms: C_13  and  N_14
REMARK   12  A    between atoms: C_13  and  C_24
REMARK   13  A    between atoms: C_15  and  C_17
REMARK   14  A    between atoms: C_17  and  C_18
REMARK   15  A    between atoms: C_18  and  C_19
REMARK   16  A    between atoms: C_19  and  N_20
REMARK   17  A    between atoms: C_19  and  C_21
REMARK   18  A    between atoms: C_21  and  O_23
REMARK   19  A    between atoms: N_26  and  CA_27
REMARK   20  A    between atoms: CA_27  and  C_28
REMARK   21  A    between atoms: C_28  and  OXT_30
REMARK                            x       y       z     vdW  Elec       q    Type
REMARK                         _______ _______ _______ _____ _____    ______ ____
ROOT
ATOM      1  C   UNK A   1       3.451   6.792  18.210  0.00  0.00    +0.000 C 
ENDROOT
BRANCH   1   2
ATOM      2  C   UNK A   1       2.419   7.839  18.695  0.00  0.00    +0.000 C 
ATOM      3  O   UNK A   1       1.943   7.831  19.829  0.00  0.00    +0.000 OA
ATOM      4  N   GLY A   2       1.955   8.725  17.750  0.00  0.00    +0.000 N 
ATOM      5  H   GLY A   2       2.218   8.618  16.772  0.00  0.00    +0.000 HD
BRANCH   4   6
ATOM      6  CA  GLY A   2       0.911   9.678  18.096  0.00  0.00    +0.000 C 
BRANCH   6   7
ATOM      7  C   GLY A   2       1.470  11.001  18.580  0.00  0.00    +0.000 C 
ATOM      8  O   GLY A   2       1.204  11.503  19.664  0.00  0.00    +0.000 OA
BRANCH   7   9
ATOM      9  OXT GLY A   2       2.305  11.590  17.690  0.00  0.00    +0.000 OA
ATOM     10  HXT GLY A   2       2.794  10.967  17.117  0.00  0.00    +0.000 HD
ENDBRANCH   7   9
ENDBRANCH   6   7
ENDBRANCH   4   6
ENDBRANCH   1   2
BRANCH   1  11
ATOM     11  N   UNK A   1       2.799   5.497  17.957  0.00  0.00    +0.000 N 
ATOM     12  C   UNK A   1       3.287   4.303  18.434  0.00  0.00    +0.000 C 
ATOM     13  O   UNK A   1       4.263   4.175  19.171  0.00  0.00    +0.000 OA
ATOM     14  H   UNK A   1       2.074   5.478  17.249  0.00  0.00    +0.000 HD
BRANCH  12  15
ATOM     15  C   UNK A   1       2.562   3.078  17.923  0.00  0.00    +0.000 C 
BRANCH  15  16
ATOM     16  C   UNK A   1       2.566   1.954  18.959  0.00  0.00    +0.000 C 
BRANCH  16  17
ATOM     17  C   UNK A   1       1.478   2.053  20.042  0.00  0.00    +0.000 C 
BRANCH  17  18
ATOM     18  N   UNK A   1       0.499   3.088  19.619  0.00  0.00    +0.000 NA
ATOM     19  H   UNK A   1      -0.439   2.714  19.798  0.00  0.00    +0.000 HD
ATOM     20  H   UNK A   1       0.529   3.153  18.598  0.00  0.00    +0.000 HD
ENDBRANCH  17  18
BRANCH  17  21
ATOM     21  C   UNK A   1       2.068   2.433  21.413  0.00  0.00    +0.000 C 
ATOM     22  O   UNK A   1       1.389   2.759  22.377  0.00  0.00    +0.000 OA
BRANCH  21  23
ATOM     23  O   UNK A   1       3.417   2.372  21.462  0.00  0.00    +0.000 OA
ATOM     24  H   UNK A   1       3.816   1.595  21.004  0.00  0.00    +0.000 HD
ENDBRANCH  21  23
ENDBRANCH  17  21
ENDBRANCH  16  17
ENDBRANCH  15  16
ENDBRANCH  12  15
ENDBRANCH   1  11
BRANCH   1  25
ATOM     25  C   UNK A   1       4.159   7.379  16.967  0.00  0.00    +0.000 C 
BRANCH  25  26
ATOM     26  S   UNK A   1       5.224   6.189  16.094  0.00  0.00    +0.000 S 
BRANCH  26  27
ATOM     27  C   UNK A   1       6.709   6.183  17.037  0.00  0.00    +0.000 C 
ATOM     28  S   UNK A   1       7.459   4.862  17.717  0.00  0.00    +0.000 S 
BRANCH  27  29
ATOM     29  N   UNK A   1       7.171   7.477  17.050  0.00  0.00    +0.000 N 
ATOM     30  H   UNK A   1       7.008   7.983  16.188  0.00  0.00    +0.000 HD
BRANCH  29  31
ATOM     31  C   UNK A   1       8.136   8.061  17.975  0.00  0.00    +0.000 C 
BRANCH  31  32
ATOM     32  C   UNK A   1       8.085   9.592  17.993  0.00  0.00    +0.000 C 
BRANCH  32  33
ATOM     33  C   UNK A   1       9.419  10.252  18.369  0.00  0.00    +0.000 C 
BRANCH  33  34
ATOM     34  C   UNK A   1       9.296  11.371  19.407  0.00  0.00    +0.000 C 
BRANCH  34  36
ATOM     35  C   UNK A   1      10.981  12.381  17.542  0.00  0.00    +0.000 C 
ATOM     36  S   UNK A   1       9.780  13.001  18.742  0.00  0.00    +0.000 S 
ATOM     37  O   UNK A   1       8.575  13.560  17.904  0.00  0.00    +0.000 OA
ENDBRANCH  34  36
ENDBRANCH  33  34
ENDBRANCH  32  33
ENDBRANCH  31  32
ENDBRANCH  29  31
ENDBRANCH  27  29
ENDBRANCH  26  27
ENDBRANCH  25  26
ENDBRANCH   1  25
TORSDOF 20
ENDMDL
MODEL 5
REMARK VINA RESULT:      -5.8      3.039      3.315
REMARK  Name = 
REMARK  21 active torsions:
REMARK  status: ('A' for Active; 'I' for Inactive)
REMARK    1  A    between atoms: C_1  and  S_2
REMARK    2  A    between atoms: S_2  and  C_4
REMARK    3  A    between atoms: C_4  and  C_5
REMARK    4  A    between atoms: C_5  and  C_6
REMARK    5  A    between atoms: C_6  and  C_7
REMARK    6  A    between atoms: C_7  and  N_8
REMARK    7  A    between atoms: N_8  and  C_9
REMARK    8  A    between atoms: C_9  and  S_11
REMARK    9  A    between atoms: S_11  and  C_12
REMARK   10  A    between atoms: C_12  and  C_13
REMARK   11  A    between atoms: C_13  and  N_14
REMARK   12  A    between atoms: C_13  and  C_24
REMARK   13  A    between atoms: C_15  and  C_17
REMARK   14  A    between atoms: C_17  and  C_18
REMARK   15  A    between atoms: C_18  and  C_19
REMARK   16  A    between atoms: C_19  and  N_20
REMARK   17  A    between atoms: C_19  and  C_21
REMARK   18  A    between atoms: C_21  and  O_23
REMARK   19  A    between atoms: N_26  and  CA_27
REMARK   20  A    between atoms: CA_27  and  C_28
REMARK   21  A    between atoms: C_28  and  OXT_30
REMARK                            x       y       z     vdW  Elec       q    Type
REMARK                         _______ _______ _______ _____ _____    ______ ____
ROOT
ATOM      1  C   UNK A   1       2.998   5.911  17.670  0.00  0.00    +0.000 C 
ENDROOT
BRANCH   1   2
ATOM      2  C   UNK A   1       4.490   5.660  17.336  0.00  0.00    +0.000 C 
ATOM      3  O   UNK A   1       4.853   5.001  16.362  0.00  0.00    +0.000 OA
ATOM      4  N   GLY A   2       5.408   6.110  18.257  0.00  0.00    +0.000 N 
ATOM      5  H   GLY A   2       5.097   6.497  19.145  0.00  0.00    +0.000 HD
BRANCH   4   6
ATOM      6  CA  GLY A   2       6.823   5.828  18.070  0.00  0.00    +0.000 C 
BRANCH   6   7
ATOM      7  C   GLY A   2       7.654   7.090  17.946  0.00  0.00    +0.000 C 
ATOM      8  O   GLY A   2       7.555   7.888  17.024  0.00  0.00    +0.000 OA
BRANCH   7   9
ATOM      9  OXT GLY A   2       8.532   7.257  18.964  0.00  0.00    +0.000 OA
ATOM     10  HXT GLY A   2       9.440   7.488  18.685  0.00  0.00    +0.000 HD
ENDBRANCH   7   9
ENDBRANCH   6   7
ENDBRANCH   4   6
ENDBRANCH   1   2
BRANCH   1  11
ATOM     11  N   UNK A   1       2.475   4.849  18.545  0.00  0.00    +0.000 N 
ATOM     12  C   UNK A   1       1.392   4.069  18.216  0.00  0.00    +0.000 C 
ATOM     13  O   UNK A   1       0.782   4.109  17.149  0.00  0.00    +0.000 OA
ATOM     14  H   UNK A   1       2.817   4.831  19.499  0.00  0.00    +0.000 HD
BRANCH  12  15
ATOM     15  C   UNK A   1       0.917   3.154  19.322  0.00  0.00    +0.000 C 
BRANCH  15  16
ATOM     16  C   UNK A   1       1.792   1.904  19.427  0.00  0.00    +0.000 C 
BRANCH  16  17
ATOM     17  C   UNK A   1       3.085   2.072  20.244  0.00  0.00    +0.000 C 
BRANCH  17  18
ATOM     18  N   UNK A   1       2.833   3.085  21.302  0.00  0.00    +0.000 NA
ATOM     19  H   UNK A   1       3.289   2.753  22.159  0.00  0.00    +0.000 HD
ATOM     20  H   UNK A   1       1.839   3.050  21.544  0.00  0.00    +0.000 HD
ENDBRANCH  17  18
BRANCH  17  21
ATOM     21  C   UNK A   1       4.263   2.529  19.364  0.00  0.00    +0.000 C 
ATOM     22  O   UNK A   1       5.167   3.251  19.762  0.00  0.00    +0.000 OA
BRANCH  21  23
ATOM     23  O   UNK A   1       4.215   2.057  18.099  0.00  0.00    +0.000 OA
ATOM     24  H   UNK A   1       3.373   1.605  17.856  0.00  0.00    +0.000 HD
ENDBRANCH  21  23
ENDBRANCH  17  21
ENDBRANCH  16  17
ENDBRANCH  15  16
ENDBRANCH  12  15
ENDBRANCH   1  11
BRANCH   1  25
ATOM     25  C   UNK A   1       2.893   7.325  18.285  0.00  0.00    +0.000 C 
BRANCH  25  26
ATOM     26  S   UNK A   1       2.204   7.347  19.970  0.00  0.00    +0.000 S 
BRANCH  26  27
ATOM     27  C   UNK A   1       1.344   8.879  20.053  0.00  0.00    +0.000 C 
ATOM     28  S   UNK A   1       0.957   9.881  18.780  0.00  0.00    +0.000 S 
BRANCH  27  29
ATOM     29  N   UNK A   1       0.992   9.062  21.368  0.00  0.00    +0.000 N 
ATOM     30  H   UNK A   1       1.774   9.037  22.012  0.00  0.00    +0.000 HD
BRANCH  29  31
ATOM     31  C   UNK A   1      -0.337   8.931  21.953  0.00  0.00    +0.000 C 
BRANCH  31  32
ATOM     32  C   UNK A   1      -0.558   9.880  23.135  0.00  0.00    +0.000 C 
BRANCH  32  33
ATOM     33  C   UNK A   1      -0.825  11.335  22.720  0.00  0.00    +0.000 C 
BRANCH  33  34
ATOM     34  C   UNK A   1      -2.209  11.856  23.115  0.00  0.00    +0.000 C 
BRANCH  34  36
ATOM     35  C   UNK A   1      -3.534  13.787  24.480  0.00  0.00    +0.000 C 
ATOM     36  S   UNK A   1      -2.277  13.680  23.185  0.00  0.00    +0.000 S 
ATOM     37  O   UNK A   1      -0.939  14.190  23.832  0.00  0.00    +0.000 OA
ENDBRANCH  34  36
ENDBRANCH  33  34
ENDBRANCH  32  33
ENDBRANCH  31  32
ENDBRANCH  29  31
ENDBRANCH  27  29
ENDBRANCH  26  27
ENDBRANCH  25  26
ENDBRANCH   1  25
TORSDOF 20
ENDMDL
MODEL 6
REMARK VINA RESULT:      -5.8      1.240      1.314
REMARK  Name = 
REMARK  21 active torsions:
REMARK  status: ('A' for Active; 'I' for Inactive)
REMARK    1  A    between atoms: C_1  and  S_2
REMARK    2  A    between atoms: S_2  and  C_4
REMARK    3  A    between atoms: C_4  and  C_5
REMARK    4  A    between atoms: C_5  and  C_6
REMARK    5  A    between atoms: C_6  and  C_7
REMARK    6  A    between atoms: C_7  and  N_8
REMARK    7  A    between atoms: N_8  and  C_9
REMARK    8  A    between atoms: C_9  and  S_11
REMARK    9  A    between atoms: S_11  and  C_12
REMARK   10  A    between atoms: C_12  and  C_13
REMARK   11  A    between atoms: C_13  and  N_14
REMARK   12  A    between atoms: C_13  and  C_24
REMARK   13  A    between atoms: C_15  and  C_17
REMARK   14  A    between atoms: C_17  and  C_18
REMARK   15  A    between atoms: C_18  and  C_19
REMARK   16  A    between atoms: C_19  and  N_20
REMARK   17  A    between atoms: C_19  and  C_21
REMARK   18  A    between atoms: C_21  and  O_23
REMARK   19  A    between atoms: N_26  and  CA_27
REMARK   20  A    between atoms: CA_27  and  C_28
REMARK   21  A    between atoms: C_28  and  OXT_30
REMARK                            x       y       z     vdW  Elec       q    Type
REMARK                         _______ _______ _______ _____ _____    ______ ____
ROOT
ATOM      1  C   UNK A   1       2.433   6.801  18.106  0.00  0.00    +0.000 C 
ENDROOT
BRANCH   1   2
ATOM      2  C   UNK A   1       3.828   7.000  17.463  0.00  0.00    +0.000 C 
ATOM      3  O   UNK A   1       3.994   7.596  16.399  0.00  0.00    +0.000 OA
ATOM      4  N   GLY A   2       4.883   6.366  18.079  0.00  0.00    +0.000 N 
ATOM      5  H   GLY A   2       4.717   5.731  18.857  0.00  0.00    +0.000 HD
BRANCH   4   6
ATOM      6  CA  GLY A   2       6.211   6.419  17.485  0.00  0.00    +0.000 C 
BRANCH   6   7
ATOM      7  C   GLY A   2       6.473   5.256  16.548  0.00  0.00    +0.000 C 
ATOM      8  O   GLY A   2       7.118   4.262  16.852  0.00  0.00    +0.000 OA
BRANCH   7   9
ATOM      9  OXT GLY A   2       5.920   5.419  15.322  0.00  0.00    +0.000 OA
ATOM     10  HXT GLY A   2       5.783   4.590  14.823  0.00  0.00    +0.000 HD
ENDBRANCH   7   9
ENDBRANCH   6   7
ENDBRANCH   4   6
ENDBRANCH   1   2
BRANCH   1  11
ATOM     11  N   UNK A   1       2.411   5.586  18.937  0.00  0.00    +0.000 N 
ATOM     12  C   UNK A   1       1.762   4.433  18.564  0.00  0.00    +0.000 C 
ATOM     13  O   UNK A   1       1.193   4.250  17.491  0.00  0.00    +0.000 OA
ATOM     14  H   UNK A   1       2.729   5.680  19.895  0.00  0.00    +0.000 HD
BRANCH  12  15
ATOM     15  C   UNK A   1       1.723   3.362  19.632  0.00  0.00    +0.000 C 
BRANCH  15  16
ATOM     16  C   UNK A   1       2.246   2.026  19.103  0.00  0.00    +0.000 C 
BRANCH  16  17
ATOM     17  C   UNK A   1       3.698   2.044  18.595  0.00  0.00    +0.000 C 
BRANCH  17  18
ATOM     18  N   UNK A   1       4.055   0.664  18.170  0.00  0.00    +0.000 NA
ATOM     19  H   UNK A   1       3.327   0.036  18.528  0.00  0.00    +0.000 HD
ATOM     20  H   UNK A   1       4.884   0.376  18.696  0.00  0.00    +0.000 HD
ENDBRANCH  17  18
BRANCH  17  21
ATOM     21  C   UNK A   1       4.680   2.516  19.683  0.00  0.00    +0.000 C 
ATOM     22  O   UNK A   1       4.792   1.979  20.776  0.00  0.00    +0.000 OA
BRANCH  21  23
ATOM     23  O   UNK A   1       5.419   3.588  19.322  0.00  0.00    +0.000 OA
ATOM     24  H   UNK A   1       6.382   3.517  19.526  0.00  0.00    +0.000 HD
ENDBRANCH  21  23
ENDBRANCH  17  21
ENDBRANCH  16  17
ENDBRANCH  15  16
ENDBRANCH  12  15
ENDBRANCH   1  11
BRANCH   1  25
ATOM     25  C   UNK A   1       2.097   8.091  18.889  0.00  0.00    +0.000 C 
BRANCH  25  26
ATOM     26  S   UNK A   1       1.571   9.478  17.834  0.00  0.00    +0.000 S 
BRANCH  26  27
ATOM     27  C   UNK A   1       0.117  10.078  18.623  0.00  0.00    +0.000 C 
ATOM     28  S   UNK A   1      -0.067  10.447  20.236  0.00  0.00    +0.000 S 
BRANCH  27  29
ATOM     29  N   UNK A   1      -0.823  10.249  17.636  0.00  0.00    +0.000 N 
ATOM     30  H   UNK A   1      -0.680  11.075  17.068  0.00  0.00    +0.000 HD
BRANCH  29  31
ATOM     31  C   UNK A   1      -2.134   9.616  17.547  0.00  0.00    +0.000 C 
BRANCH  31  32
ATOM     32  C   UNK A   1      -3.036  10.273  16.497  0.00  0.00    +0.000 C 
BRANCH  32  33
ATOM     33  C   UNK A   1      -3.756  11.533  16.999  0.00  0.00    +0.000 C 
BRANCH  33  34
ATOM     34  C   UNK A   1      -4.235  11.446  18.451  0.00  0.00    +0.000 C 
BRANCH  34  36
ATOM     35  C   UNK A   1      -6.134  12.833  17.104  0.00  0.00    +0.000 C 
ATOM     36  S   UNK A   1      -5.999  11.879  18.634  0.00  0.00    +0.000 S 
ATOM     37  O   UNK A   1      -6.845  10.574  18.410  0.00  0.00    +0.000 OA
ENDBRANCH  34  36
ENDBRANCH  33  34
ENDBRANCH  32  33
ENDBRANCH  31  32
ENDBRANCH  29  31
ENDBRANCH  27  29
ENDBRANCH  26  27
ENDBRANCH  25  26
ENDBRANCH   1  25
TORSDOF 20
ENDMDL
MODEL 7
REMARK VINA RESULT:      -5.8      3.405      4.769
REMARK  Name = 
REMARK  21 active torsions:
REMARK  status: ('A' for Active; 'I' for Inactive)
REMARK    1  A    between atoms: C_1  and  S_2
REMARK    2  A    between atoms: S_2  and  C_4
REMARK    3  A    between atoms: C_4  and  C_5
REMARK    4  A    between atoms: C_5  and  C_6
REMARK    5  A    between atoms: C_6  and  C_7
REMARK    6  A    between atoms: C_7  and  N_8
REMARK    7  A    between atoms: N_8  and  C_9
REMARK    8  A    between atoms: C_9  and  S_11
REMARK    9  A    between atoms: S_11  and  C_12
REMARK   10  A    between atoms: C_12  and  C_13
REMARK   11  A    between atoms: C_13  and  N_14
REMARK   12  A    between atoms: C_13  and  C_24
REMARK   13  A    between atoms: C_15  and  C_17
REMARK   14  A    between atoms: C_17  and  C_18
REMARK   15  A    between atoms: C_18  and  C_19
REMARK   16  A    between atoms: C_19  and  N_20
REMARK   17  A    between atoms: C_19  and  C_21
REMARK   18  A    between atoms: C_21  and  O_23
REMARK   19  A    between atoms: N_26  and  CA_27
REMARK   20  A    between atoms: CA_27  and  C_28
REMARK   21  A    between atoms: C_28  and  OXT_30
REMARK                            x       y       z     vdW  Elec       q    Type
REMARK                         _______ _______ _______ _____ _____    ______ ____
ROOT
ATOM      1  C   UNK A   1       2.696   6.239  18.020  0.00  0.00    +0.000 C 
ENDROOT
BRANCH   1   2
ATOM      2  C   UNK A   1       4.185   6.040  17.643  0.00  0.00    +0.000 C 
ATOM      3  O   UNK A   1       4.651   6.388  16.559  0.00  0.00    +0.000 OA
ATOM      4  N   GLY A   2       4.956   5.335  18.539  0.00  0.00    +0.000 N 
ATOM      5  H   GLY A   2       4.527   4.897  19.352  0.00  0.00    +0.000 HD
BRANCH   4   6
ATOM      6  CA  GLY A   2       6.339   5.017  18.217  0.00  0.00    +0.000 C 
BRANCH   6   7
ATOM      7  C   GLY A   2       7.324   5.909  18.947  0.00  0.00    +0.000 C 
ATOM      8  O   GLY A   2       7.877   6.877  18.442  0.00  0.00    +0.000 OA
BRANCH   7   9
ATOM      9  OXT GLY A   2       7.541   5.533  20.230  0.00  0.00    +0.000 OA
ATOM     10  HXT GLY A   2       7.712   6.271  20.847  0.00  0.00    +0.000 HD
ENDBRANCH   7   9
ENDBRANCH   6   7
ENDBRANCH   4   6
ENDBRANCH   1   2
BRANCH   1  11
ATOM     11  N   UNK A   1       2.182   5.067  18.746  0.00  0.00    +0.000 N 
ATOM     12  C   UNK A   1       1.590   3.995  18.119  0.00  0.00    +0.000 C 
ATOM     13  O   UNK A   1       1.482   3.851  16.903  0.00  0.00    +0.000 OA
ATOM     14  H   UNK A   1       2.097   5.150  19.752  0.00  0.00    +0.000 HD
BRANCH  12  15
ATOM     15  C   UNK A   1       0.984   2.975  19.056  0.00  0.00    +0.000 C 
BRANCH  15  16
ATOM     16  C   UNK A   1       1.915   1.779  19.259  0.00  0.00    +0.000 C 
BRANCH  16  17
ATOM     17  C   UNK A   1       3.388   2.022  18.888  0.00  0.00    +0.000 C 
BRANCH  17  18
ATOM     18  N   UNK A   1       3.912   0.787  18.248  0.00  0.00    +0.000 NA
ATOM     19  H   UNK A   1       4.384   1.067  17.382  0.00  0.00    +0.000 HD
ATOM     20  H   UNK A   1       3.114   0.243  17.908  0.00  0.00    +0.000 HD
ENDBRANCH  17  18
BRANCH  17  21
ATOM     21  C   UNK A   1       4.241   2.362  20.124  0.00  0.00    +0.000 C 
ATOM     22  O   UNK A   1       5.174   1.675  20.514  0.00  0.00    +0.000 OA
BRANCH  21  23
ATOM     23  O   UNK A   1       3.868   3.501  20.748  0.00  0.00    +0.000 OA
ATOM     24  H   UNK A   1       3.098   3.965  20.342  0.00  0.00    +0.000 HD
ENDBRANCH  21  23
ENDBRANCH  17  21
ENDBRANCH  16  17
ENDBRANCH  15  16
ENDBRANCH  12  15
ENDBRANCH   1  11
BRANCH   1  25
ATOM     25  C   UNK A   1       2.595   7.556  18.825  0.00  0.00    +0.000 C 
BRANCH  25  26
ATOM     26  S   UNK A   1       2.114   8.997  17.822  0.00  0.00    +0.000 S 
BRANCH  26  27
ATOM     27  C   UNK A   1       1.208  10.006  18.943  0.00  0.00    +0.000 C 
ATOM     28  S   UNK A   1       0.610   9.561  20.432  0.00  0.00    +0.000 S 
BRANCH  27  29
ATOM     29  N   UNK A   1       1.143  11.258  18.381  0.00  0.00    +0.000 N 
ATOM     30  H   UNK A   1       0.250  11.474  17.956  0.00  0.00    +0.000 HD
BRANCH  29  31
ATOM     31  C   UNK A   1       2.261  12.124  18.024  0.00  0.00    +0.000 C 
BRANCH  31  32
ATOM     32  C   UNK A   1       2.524  13.210  19.071  0.00  0.00    +0.000 C 
BRANCH  32  33
ATOM     33  C   UNK A   1       3.345  14.395  18.542  0.00  0.00    +0.000 C 
BRANCH  33  34
ATOM     34  C   UNK A   1       4.215  15.078  19.601  0.00  0.00    +0.000 C 
BRANCH  34  36
ATOM     35  C   UNK A   1       5.890  17.206  19.485  0.00  0.00    +0.000 C 
ATOM     36  S   UNK A   1       4.109  16.900  19.527  0.00  0.00    +0.000 S 
ATOM     37  O   UNK A   1       3.564  17.297  18.108  0.00  0.00    +0.000 OA
ENDBRANCH  34  36
ENDBRANCH  33  34
ENDBRANCH  32  33
ENDBRANCH  31  32
ENDBRANCH  29  31
ENDBRANCH  27  29
ENDBRANCH  26  27
ENDBRANCH  25  26
ENDBRANCH   1  25
TORSDOF 20
ENDMDL
MODEL 8
REMARK VINA RESULT:      -5.8      1.462      1.780
REMARK  Name = 
REMARK  21 active torsions:
REMARK  status: ('A' for Active; 'I' for Inactive)
REMARK    1  A    between atoms: C_1  and  S_2
REMARK    2  A    between atoms: S_2  and  C_4
REMARK    3  A    between atoms: C_4  and  C_5
REMARK    4  A    between atoms: C_5  and  C_6
REMARK    5  A    between atoms: C_6  and  C_7
REMARK    6  A    between atoms: C_7  and  N_8
REMARK    7  A    between atoms: N_8  and  C_9
REMARK    8  A    between atoms: C_9  and  S_11
REMARK    9  A    between atoms: S_11  and  C_12
REMARK   10  A    between atoms: C_12  and  C_13
REMARK   11  A    between atoms: C_13  and  N_14
REMARK   12  A    between atoms: C_13  and  C_24
REMARK   13  A    between atoms: C_15  and  C_17
REMARK   14  A    between atoms: C_17  and  C_18
REMARK   15  A    between atoms: C_18  and  C_19
REMARK   16  A    between atoms: C_19  and  N_20
REMARK   17  A    between atoms: C_19  and  C_21
REMARK   18  A    between atoms: C_21  and  O_23
REMARK   19  A    between atoms: N_26  and  CA_27
REMARK   20  A    between atoms: CA_27  and  C_28
REMARK   21  A    between atoms: C_28  and  OXT_30
REMARK                            x       y       z     vdW  Elec       q    Type
REMARK                         _______ _______ _______ _____ _____    ______ ____
ROOT
ATOM      1  C   UNK A   1       2.864   6.134  17.968  0.00  0.00    +0.000 C 
ENDROOT
BRANCH   1   2
ATOM      2  C   UNK A   1       4.325   5.901  17.510  0.00  0.00    +0.000 C 
ATOM      3  O   UNK A   1       4.611   5.396  16.425  0.00  0.00    +0.000 OA
ATOM      4  N   GLY A   2       5.308   6.174  18.433  0.00  0.00    +0.000 N 
ATOM      5  H   GLY A   2       5.061   6.424  19.388  0.00  0.00    +0.000 HD
BRANCH   4   6
ATOM      6  CA  GLY A   2       6.700   5.889  18.119  0.00  0.00    +0.000 C 
BRANCH   6   7
ATOM      7  C   GLY A   2       7.268   6.842  17.085  0.00  0.00    +0.000 C 
ATOM      8  O   GLY A   2       7.434   8.039  17.274  0.00  0.00    +0.000 OA
BRANCH   7   9
ATOM      9  OXT GLY A   2       7.581   6.239  15.913  0.00  0.00    +0.000 OA
ATOM     10  HXT GLY A   2       8.402   5.707  15.935  0.00  0.00    +0.000 HD
ENDBRANCH   7   9
ENDBRANCH   6   7
ENDBRANCH   4   6
ENDBRANCH   1   2
BRANCH   1  11
ATOM     11  N   UNK A   1       2.392   5.010  18.793  0.00  0.00    +0.000 N 
ATOM     12  C   UNK A   1       1.555   4.028  18.317  0.00  0.00    +0.000 C 
ATOM     13  O   UNK A   1       1.162   3.927  17.157  0.00  0.00    +0.000 OA
ATOM     14  H   UNK A   1       2.544   5.078  19.793  0.00  0.00    +0.000 HD
BRANCH  12  15
ATOM     15  C   UNK A   1       1.059   3.061  19.369  0.00  0.00    +0.000 C 
BRANCH  15  16
ATOM     16  C   UNK A   1       1.964   1.832  19.470  0.00  0.00    +0.000 C 
BRANCH  16  17
ATOM     17  C   UNK A   1       3.382   2.011  18.899  0.00  0.00    +0.000 C 
BRANCH  17  18
ATOM     18  N   UNK A   1       3.848   0.690  18.401  0.00  0.00    +0.000 NA
ATOM     19  H   UNK A   1       3.103   0.010  18.593  0.00  0.00    +0.000 HD
ATOM     20  H   UNK A   1       4.608   0.373  19.009  0.00  0.00    +0.000 HD
ENDBRANCH  17  18
BRANCH  17  21
ATOM     21  C   UNK A   1       4.365   2.536  19.961  0.00  0.00    +0.000 C 
ATOM     22  O   UNK A   1       5.205   3.397  19.741  0.00  0.00    +0.000 OA
BRANCH  21  23
ATOM     23  O   UNK A   1       4.217   1.959  21.174  0.00  0.00    +0.000 OA
ATOM     24  H   UNK A   1       5.019   1.495  21.515  0.00  0.00    +0.000 HD
ENDBRANCH  21  23
ENDBRANCH  17  21
ENDBRANCH  16  17
ENDBRANCH  15  16
ENDBRANCH  12  15
ENDBRANCH   1  11
BRANCH   1  25
ATOM     25  C   UNK A   1       2.820   7.496  18.699  0.00  0.00    +0.000 C 
BRANCH  25  26
ATOM     26  S   UNK A   1       2.027   8.822  17.736  0.00  0.00    +0.000 S 
BRANCH  26  27
ATOM     27  C   UNK A   1       0.993   9.631  18.908  0.00  0.00    +0.000 C 
ATOM     28  S   UNK A   1       0.915   9.339  20.545  0.00  0.00    +0.000 S 
BRANCH  27  29
ATOM     29  N   UNK A   1       0.304  10.601  18.221  0.00  0.00    +0.000 N 
ATOM     30  H   UNK A   1       0.893  11.326  17.829  0.00  0.00    +0.000 HD
BRANCH  29  31
ATOM     31  C   UNK A   1      -1.123  10.890  18.294  0.00  0.00    +0.000 C 
BRANCH  31  32
ATOM     32  C   UNK A   1      -1.489  11.752  19.506  0.00  0.00    +0.000 C 
BRANCH  32  33
ATOM     33  C   UNK A   1      -2.967  12.170  19.545  0.00  0.00    +0.000 C 
BRANCH  33  34
ATOM     34  C   UNK A   1      -3.284  13.257  20.575  0.00  0.00    +0.000 C 
BRANCH  34  36
ATOM     35  C   UNK A   1      -5.630  12.104  19.860  0.00  0.00    +0.000 C 
ATOM     36  S   UNK A   1      -5.004  13.166  21.183  0.00  0.00    +0.000 S 
ATOM     37  O   UNK A   1      -5.013  12.290  22.486  0.00  0.00    +0.000 OA
ENDBRANCH  34  36
ENDBRANCH  33  34
ENDBRANCH  32  33
ENDBRANCH  31  32
ENDBRANCH  29  31
ENDBRANCH  27  29
ENDBRANCH  26  27
ENDBRANCH  25  26
ENDBRANCH   1  25
TORSDOF 20
ENDMDL
MODEL 9
REMARK VINA RESULT:      -5.7      2.258      2.526
REMARK  Name = 
REMARK  21 active torsions:
REMARK  status: ('A' for Active; 'I' for Inactive)
REMARK    1  A    between atoms: C_1  and  S_2
REMARK    2  A    between atoms: S_2  and  C_4
REMARK    3  A    between atoms: C_4  and  C_5
REMARK    4  A    between atoms: C_5  and  C_6
REMARK    5  A    between atoms: C_6  and  C_7
REMARK    6  A    between atoms: C_7  and  N_8
REMARK    7  A    between atoms: N_8  and  C_9
REMARK    8  A    between atoms: C_9  and  S_11
REMARK    9  A    between atoms: S_11  and  C_12
REMARK   10  A    between atoms: C_12  and  C_13
REMARK   11  A    between atoms: C_13  and  N_14
REMARK   12  A    between atoms: C_13  and  C_24
REMARK   13  A    between atoms: C_15  and  C_17
REMARK   14  A    between atoms: C_17  and  C_18
REMARK   15  A    between atoms: C_18  and  C_19
REMARK   16  A    between atoms: C_19  and  N_20
REMARK   17  A    between atoms: C_19  and  C_21
REMARK   18  A    between atoms: C_21  and  O_23
REMARK   19  A    between atoms: N_26  and  CA_27
REMARK   20  A    between atoms: CA_27  and  C_28
REMARK   21  A    between atoms: C_28  and  OXT_30
REMARK                            x       y       z     vdW  Elec       q    Type
REMARK                         _______ _______ _______ _____ _____    ______ ____
ROOT
ATOM      1  C   UNK A   1       2.915   6.151  17.852  0.00  0.00    +0.000 C 
ENDROOT
BRANCH   1   2
ATOM      2  C   UNK A   1       4.329   5.834  17.304  0.00  0.00    +0.000 C 
ATOM      3  O   UNK A   1       4.589   4.801  16.688  0.00  0.00    +0.000 OA
ATOM      4  N   GLY A   2       5.330   6.714  17.645  0.00  0.00    +0.000 N 
ATOM      5  H   GLY A   2       5.147   7.471  18.300  0.00  0.00    +0.000 HD
BRANCH   4   6
ATOM      6  CA  GLY A   2       6.705   6.439  17.255  0.00  0.00    +0.000 C 
BRANCH   6   7
ATOM      7  C   GLY A   2       7.476   5.702  18.333  0.00  0.00    +0.000 C 
ATOM      8  O   GLY A   2       7.411   4.494  18.519  0.00  0.00    +0.000 OA
BRANCH   7   9
ATOM      9  OXT GLY A   2       8.257   6.514  19.085  0.00  0.00    +0.000 OA
ATOM     10  HXT GLY A   2       8.203   6.353  20.048  0.00  0.00    +0.000 HD
ENDBRANCH   7   9
ENDBRANCH   6   7
ENDBRANCH   4   6
ENDBRANCH   1   2
BRANCH   1  11
ATOM     11  N   UNK A   1       2.416   5.040  18.678  0.00  0.00    +0.000 N 
ATOM     12  C   UNK A   1       1.462   4.150  18.244  0.00  0.00    +0.000 C 
ATOM     13  O   UNK A   1       0.969   4.126  17.119  0.00  0.00    +0.000 OA
ATOM     14  H   UNK A   1       2.655   5.057  19.664  0.00  0.00    +0.000 HD
BRANCH  12  15
ATOM     15  C   UNK A   1       0.972   3.189  19.304  0.00  0.00    +0.000 C 
BRANCH  15  16
ATOM     16  C   UNK A   1       1.989   2.077  19.564  0.00  0.00    +0.000 C 
BRANCH  16  17
ATOM     17  C   UNK A   1       2.903   2.293  20.782  0.00  0.00    +0.000 C 
BRANCH  17  18
ATOM     18  N   UNK A   1       2.560   3.606  21.390  0.00  0.00    +0.000 NA
ATOM     19  H   UNK A   1       2.599   4.308  20.643  0.00  0.00    +0.000 HD
ATOM     20  H   UNK A   1       3.330   3.882  22.004  0.00  0.00    +0.000 HD
ENDBRANCH  17  18
BRANCH  17  21
ATOM     21  C   UNK A   1       4.392   2.282  20.390  0.00  0.00    +0.000 C 
ATOM     22  O   UNK A   1       5.260   1.710  21.035  0.00  0.00    +0.000 OA
BRANCH  21  23
ATOM     23  O   UNK A   1       4.662   2.966  19.256  0.00  0.00    +0.000 OA
ATOM     24  H   UNK A   1       4.387   2.515  18.423  0.00  0.00    +0.000 HD
ENDBRANCH  21  23
ENDBRANCH  17  21
ENDBRANCH  16  17
ENDBRANCH  15  16
ENDBRANCH  12  15
ENDBRANCH   1  11
BRANCH   1  25
ATOM     25  C   UNK A   1       3.004   7.494  18.613  0.00  0.00    +0.000 C 
BRANCH  25  26
ATOM     26  S   UNK A   1       1.987   8.819  17.889  0.00  0.00    +0.000 S 
BRANCH  26  27
ATOM     27  C   UNK A   1       1.008   9.380  19.239  0.00  0.00    +0.000 C 
ATOM     28  S   UNK A   1       1.052   8.826  20.808  0.00  0.00    +0.000 S 
BRANCH  27  29
ATOM     29  N   UNK A   1       0.241  10.417  18.763  0.00  0.00    +0.000 N 
ATOM     30  H   UNK A   1      -0.404  10.150  18.030  0.00  0.00    +0.000 HD
BRANCH  29  31
ATOM     31  C   UNK A   1       0.487  11.845  18.926  0.00  0.00    +0.000 C 
BRANCH  31  32
ATOM     32  C   UNK A   1      -0.066  12.392  20.245  0.00  0.00    +0.000 C 
BRANCH  32  33
ATOM     33  C   UNK A   1      -1.529  12.008  20.511  0.00  0.00    +0.000 C 
BRANCH  33  34
ATOM     34  C   UNK A   1      -2.436  13.191  20.859  0.00  0.00    +0.000 C 
BRANCH  34  36
ATOM     35  C   UNK A   1      -2.614  13.498  23.546  0.00  0.00    +0.000 C 
ATOM     36  S   UNK A   1      -3.608  12.804  22.205  0.00  0.00    +0.000 S 
ATOM     37  O   UNK A   1      -4.853  13.749  22.051  0.00  0.00    +0.000 OA
ENDBRANCH  34  36
ENDBRANCH  33  34
ENDBRANCH  32  33
ENDBRANCH  31  32
ENDBRANCH  29  31
ENDBRANCH  27  29
ENDBRANCH  26  27
ENDBRANCH  25  26
ENDBRANCH   1  25
TORSDOF 20
ENDMDL
