MODEL 1
REMARK VINA RESULT:      -8.2      0.000      0.000
REMARK  Name = 
REMARK  8 active torsions:
REMARK  status: ('A' for Active; 'I' for Inactive)
REMARK    1  A    between atoms: C_1  and  C_2
REMARK    2  A    between atoms: C_2  and  C_3
REMARK    3  A    between atoms: C_10  and  C_11
REMARK    4  A    between atoms: C_11  and  C_13
REMARK    5  A    between atoms: C_14  and  C_15
REMARK    6  A    between atoms: C_16  and  O_17
REMARK    7  A    between atoms: C_21  and  O_22
REMARK    8  A    between atoms: C_23  and  O_24
REMARK                            x       y       z     vdW  Elec       q    Type
REMARK                         _______ _______ _______ _____ _____    ______ ____
ROOT
ATOM      1  C   UNL     1      -0.557  13.113  22.451  0.00  0.00    +0.000 C 
ATOM      2  C   UNL     1      -1.458  11.878  22.316  0.00  0.00    +0.000 C 
ATOM      3  C   UNL     1      -2.861  12.215  22.835  0.00  0.00    +0.000 C 
ATOM      4  C   UNL     1      -0.873  10.725  23.101  0.00  0.00    +0.000 C 
ATOM      5  C   UNL     1      -0.133   9.776  22.518  0.00  0.00    +0.000 C 
ATOM      6  C   UNL     1       0.091   9.865  21.074  0.00  0.00    +0.000 A 
ATOM      7  C   UNL     1      -0.691  10.761  20.341  0.00  0.00    +0.000 A 
ATOM      8  C   UNL     1      -0.585  10.826  18.955  0.00  0.00    +0.000 A 
ATOM      9  C   UNL     1       0.338  10.023  18.283  0.00  0.00    +0.000 A 
ATOM     10  C   UNL     1       1.175   9.148  18.991  0.00  0.00    +0.000 A 
ATOM     11  C   UNL     1       1.031   9.066  20.395  0.00  0.00    +0.000 A 
ATOM     12  O   UNL     1      -1.620  11.593  20.909  0.00  0.00    +0.000 OA
ENDROOT
BRANCH  10  13
ATOM     13  C   UNL     1       2.184   8.287  18.295  0.00  0.00    +0.000 C 
ATOM     14  O   UNL     1       2.926   8.791  17.451  0.00  0.00    +0.000 OA
BRANCH  13  15
ATOM     15  C   UNL     1       2.261   6.832  18.603  0.00  0.00    +0.000 C 
ATOM     16  C   UNL     1       3.099   6.044  17.914  0.00  0.00    +0.000 C 
BRANCH  16  17
ATOM     17  C   UNL     1       3.214   4.610  18.219  0.00  0.00    +0.000 A 
ATOM     18  C   UNL     1       2.224   3.694  17.836  0.00  0.00    +0.000 A 
ATOM     19  C   UNL     1       2.324   2.342  18.166  0.00  0.00    +0.000 A 
ATOM     20  C   UNL     1       3.430   1.878  18.878  0.00  0.00    +0.000 A 
ATOM     21  C   UNL     1       4.433   2.767  19.263  0.00  0.00    +0.000 A 
ATOM     22  C   UNL     1       4.319   4.123  18.938  0.00  0.00    +0.000 A 
BRANCH  18  23
ATOM     23  O   UNL     1       1.114   4.058  17.122  0.00  0.00    +0.000 OA
ATOM     24  H   UNL     1       0.881   4.972  17.359  0.00  0.00    +0.000 HD
ENDBRANCH  18  23
BRANCH  22  25
ATOM     25  O   UNL     1       5.300   4.993  19.334  0.00  0.00    +0.000 OA
ATOM     26  H   UNL     1       5.374   5.706  18.679  0.00  0.00    +0.000 HD
ENDBRANCH  22  25
ENDBRANCH  16  17
ENDBRANCH  13  15
ENDBRANCH  10  13
BRANCH  11  27
ATOM     27  O   UNL     1       1.802   8.214  21.156  0.00  0.00    +0.000 OA
ATOM     28  H   UNL     1       1.880   8.590  22.061  0.00  0.00    +0.000 HD
ENDBRANCH  11  27
TORSDOF 6
ENDMDL
MODEL 2
REMARK VINA RESULT:      -8.0      2.490      8.141
REMARK  Name = 
REMARK  8 active torsions:
REMARK  status: ('A' for Active; 'I' for Inactive)
REMARK    1  A    between atoms: C_1  and  C_2
REMARK    2  A    between atoms: C_2  and  C_3
REMARK    3  A    between atoms: C_10  and  C_11
REMARK    4  A    between atoms: C_11  and  C_13
REMARK    5  A    between atoms: C_14  and  C_15
REMARK    6  A    between atoms: C_16  and  O_17
REMARK    7  A    between atoms: C_21  and  O_22
REMARK    8  A    between atoms: C_23  and  O_24
REMARK                            x       y       z     vdW  Elec       q    Type
REMARK                         _______ _______ _______ _____ _____    ______ ____
ROOT
ATOM      1  C   UNL     1       1.955   3.991  17.698  0.00  0.00    +0.000 C 
ATOM      2  C   UNL     1       3.159   4.642  18.393  0.00  0.00    +0.000 C 
ATOM      3  C   UNL     1       4.424   3.835  18.076  0.00  0.00    +0.000 C 
ATOM      4  C   UNL     1       2.929   4.687  19.887  0.00  0.00    +0.000 C 
ATOM      5  C   UNL     1       2.470   5.783  20.499  0.00  0.00    +0.000 C 
ATOM      6  C   UNL     1       2.203   6.968  19.683  0.00  0.00    +0.000 A 
ATOM      7  C   UNL     1       2.694   6.991  18.375  0.00  0.00    +0.000 A 
ATOM      8  C   UNL     1       2.548   8.125  17.581  0.00  0.00    +0.000 A 
ATOM      9  C   UNL     1       1.870   9.242  18.072  0.00  0.00    +0.000 A 
ATOM     10  C   UNL     1       1.321   9.237  19.363  0.00  0.00    +0.000 A 
ATOM     11  C   UNL     1       1.507   8.092  20.170  0.00  0.00    +0.000 A 
ATOM     12  O   UNL     1       3.368   5.944  17.803  0.00  0.00    +0.000 OA
ENDROOT
BRANCH  10  13
ATOM     13  C   UNL     1       0.576  10.418  19.906  0.00  0.00    +0.000 C 
ATOM     14  O   UNL     1       1.163  11.214  20.640  0.00  0.00    +0.000 OA
BRANCH  13  15
ATOM     15  C   UNL     1      -0.866  10.601  19.583  0.00  0.00    +0.000 C 
ATOM     16  C   UNL     1      -1.229  11.390  18.561  0.00  0.00    +0.000 C 
BRANCH  16  17
ATOM     17  C   UNL     1      -2.645  11.565  18.204  0.00  0.00    +0.000 A 
ATOM     18  C   UNL     1      -3.579  12.069  19.121  0.00  0.00    +0.000 A 
ATOM     19  C   UNL     1      -4.927  12.192  18.784  0.00  0.00    +0.000 A 
ATOM     20  C   UNL     1      -5.364  11.824  17.512  0.00  0.00    +0.000 A 
ATOM     21  C   UNL     1      -4.454  11.328  16.579  0.00  0.00    +0.000 A 
ATOM     22  C   UNL     1      -3.106  11.196  16.928  0.00  0.00    +0.000 A 
BRANCH  18  23
ATOM     23  O   UNL     1      -3.235  12.470  20.383  0.00  0.00    +0.000 OA
ATOM     24  H   UNL     1      -4.028  12.430  20.946  0.00  0.00    +0.000 HD
ENDBRANCH  18  23
BRANCH  22  25
ATOM     25  O   UNL     1      -2.220  10.693  16.013  0.00  0.00    +0.000 OA
ATOM     26  H   UNL     1      -2.682  10.547  15.172  0.00  0.00    +0.000 HD
ENDBRANCH  22  25
ENDBRANCH  16  17
ENDBRANCH  13  15
ENDBRANCH  10  13
BRANCH  11  27
ATOM     27  O   UNL     1       1.016   8.021  21.456  0.00  0.00    +0.000 OA
ATOM     28  H   UNL     1       1.205   7.125  21.812  0.00  0.00    +0.000 HD
ENDBRANCH  11  27
TORSDOF 6
ENDMDL
MODEL 3
REMARK VINA RESULT:      -8.0      1.131      1.453
REMARK  Name = 
REMARK  8 active torsions:
REMARK  status: ('A' for Active; 'I' for Inactive)
REMARK    1  A    between atoms: C_1  and  C_2
REMARK    2  A    between atoms: C_2  and  C_3
REMARK    3  A    between atoms: C_10  and  C_11
REMARK    4  A    between atoms: C_11  and  C_13
REMARK    5  A    between atoms: C_14  and  C_15
REMARK    6  A    between atoms: C_16  and  O_17
REMARK    7  A    between atoms: C_21  and  O_22
REMARK    8  A    between atoms: C_23  and  O_24
REMARK                            x       y       z     vdW  Elec       q    Type
REMARK                         _______ _______ _______ _____ _____    ______ ____
ROOT
ATOM      1  C   UNL     1      -0.552  13.138  22.395  0.00  0.00    +0.000 C 
ATOM      2  C   UNL     1      -1.461  11.910  22.257  0.00  0.00    +0.000 C 
ATOM      3  C   UNL     1      -2.867  12.260  22.761  0.00  0.00    +0.000 C 
ATOM      4  C   UNL     1      -0.894  10.757  23.055  0.00  0.00    +0.000 C 
ATOM      5  C   UNL     1      -0.155   9.798  22.485  0.00  0.00    +0.000 C 
ATOM      6  C   UNL     1       0.084   9.877  21.044  0.00  0.00    +0.000 A 
ATOM      7  C   UNL     1      -0.683  10.775  20.297  0.00  0.00    +0.000 A 
ATOM      8  C   UNL     1      -0.563  10.831  18.912  0.00  0.00    +0.000 A 
ATOM      9  C   UNL     1       0.361  10.017  18.254  0.00  0.00    +0.000 A 
ATOM     10  C   UNL     1       1.184   9.138  18.977  0.00  0.00    +0.000 A 
ATOM     11  C   UNL     1       1.025   9.067  20.379  0.00  0.00    +0.000 A 
ATOM     12  O   UNL     1      -1.612  11.618  20.850  0.00  0.00    +0.000 OA
ENDROOT
BRANCH  10  13
ATOM     13  C   UNL     1       2.193   8.265  18.296  0.00  0.00    +0.000 C 
ATOM     14  O   UNL     1       3.206   8.777  17.818  0.00  0.00    +0.000 OA
BRANCH  13  15
ATOM     15  C   UNL     1       1.950   6.801  18.175  0.00  0.00    +0.000 C 
ATOM     16  C   UNL     1       2.722   5.936  18.848  0.00  0.00    +0.000 C 
BRANCH  16  17
ATOM     17  C   UNL     1       2.484   4.487  18.769  0.00  0.00    +0.000 A 
ATOM     18  C   UNL     1       3.105   3.691  17.795  0.00  0.00    +0.000 A 
ATOM     19  C   UNL     1       2.840   2.325  17.703  0.00  0.00    +0.000 A 
ATOM     20  C   UNL     1       1.955   1.724  18.598  0.00  0.00    +0.000 A 
ATOM     21  C   UNL     1       1.331   2.492  19.581  0.00  0.00    +0.000 A 
ATOM     22  C   UNL     1       1.592   3.864  19.658  0.00  0.00    +0.000 A 
BRANCH  18  23
ATOM     23  O   UNL     1       4.000   4.192  16.889  0.00  0.00    +0.000 OA
ATOM     24  H   UNL     1       4.330   5.046  17.220  0.00  0.00    +0.000 HD
ENDBRANCH  18  23
BRANCH  22  25
ATOM     25  O   UNL     1       0.963   4.615  20.616  0.00  0.00    +0.000 OA
ATOM     26  H   UNL     1       1.495   4.602  21.428  0.00  0.00    +0.000 HD
ENDBRANCH  22  25
ENDBRANCH  16  17
ENDBRANCH  13  15
ENDBRANCH  10  13
BRANCH  11  27
ATOM     27  O   UNL     1       1.781   8.213  21.153  0.00  0.00    +0.000 OA
ATOM     28  H   UNL     1       2.727   8.330  20.911  0.00  0.00    +0.000 HD
ENDBRANCH  11  27
TORSDOF 6
ENDMDL
MODEL 4
REMARK VINA RESULT:      -8.0      1.114      1.232
REMARK  Name = 
REMARK  8 active torsions:
REMARK  status: ('A' for Active; 'I' for Inactive)
REMARK    1  A    between atoms: C_1  and  C_2
REMARK    2  A    between atoms: C_2  and  C_3
REMARK    3  A    between atoms: C_10  and  C_11
REMARK    4  A    between atoms: C_11  and  C_13
REMARK    5  A    between atoms: C_14  and  C_15
REMARK    6  A    between atoms: C_16  and  O_17
REMARK    7  A    between atoms: C_21  and  O_22
REMARK    8  A    between atoms: C_23  and  O_24
REMARK                            x       y       z     vdW  Elec       q    Type
REMARK                         _______ _______ _______ _____ _____    ______ ____
ROOT
ATOM      1  C   UNL     1      -0.510  13.168  22.379  0.00  0.00    +0.000 C 
ATOM      2  C   UNL     1      -1.435  11.951  22.240  0.00  0.00    +0.000 C 
ATOM      3  C   UNL     1      -2.839  12.322  22.731  0.00  0.00    +0.000 C 
ATOM      4  C   UNL     1      -0.889  10.795  23.048  0.00  0.00    +0.000 C 
ATOM      5  C   UNL     1      -0.159   9.823  22.489  0.00  0.00    +0.000 C 
ATOM      6  C   UNL     1       0.093   9.892  21.049  0.00  0.00    +0.000 A 
ATOM      7  C   UNL     1      -0.657  10.796  20.292  0.00  0.00    +0.000 A 
ATOM      8  C   UNL     1      -0.524  10.844  18.907  0.00  0.00    +0.000 A 
ATOM      9  C   UNL     1       0.394  10.015  18.261  0.00  0.00    +0.000 A 
ATOM     10  C   UNL     1       1.199   9.129  18.994  0.00  0.00    +0.000 A 
ATOM     11  C   UNL     1       1.028   9.066  20.395  0.00  0.00    +0.000 A 
ATOM     12  O   UNL     1      -1.578  11.654  20.834  0.00  0.00    +0.000 OA
ENDROOT
BRANCH  10  13
ATOM     13  C   UNL     1       2.202   8.239  18.325  0.00  0.00    +0.000 C 
ATOM     14  O   UNL     1       3.220   8.737  17.842  0.00  0.00    +0.000 OA
BRANCH  13  15
ATOM     15  C   UNL     1       1.947   6.776  18.222  0.00  0.00    +0.000 C 
ATOM     16  C   UNL     1       2.801   5.906  18.782  0.00  0.00    +0.000 C 
BRANCH  16  17
ATOM     17  C   UNL     1       2.556   4.457  18.719  0.00  0.00    +0.000 A 
ATOM     18  C   UNL     1       1.696   3.816  19.623  0.00  0.00    +0.000 A 
ATOM     19  C   UNL     1       1.503   2.435  19.579  0.00  0.00    +0.000 A 
ATOM     20  C   UNL     1       2.159   1.669  18.617  0.00  0.00    +0.000 A 
ATOM     21  C   UNL     1       3.013   2.284  17.701  0.00  0.00    +0.000 A 
ATOM     22  C   UNL     1       3.211   3.667  17.759  0.00  0.00    +0.000 A 
BRANCH  18  23
ATOM     23  O   UNL     1       0.999   4.490  20.588  0.00  0.00    +0.000 OA
ATOM     24  H   UNL     1       0.057   4.492  20.345  0.00  0.00    +0.000 HD
ENDBRANCH  18  23
BRANCH  22  25
ATOM     25  O   UNL     1       4.062   4.262  16.866  0.00  0.00    +0.000 OA
ATOM     26  H   UNL     1       4.666   3.592  16.509  0.00  0.00    +0.000 HD
ENDBRANCH  22  25
ENDBRANCH  16  17
ENDBRANCH  13  15
ENDBRANCH  10  13
BRANCH  11  27
ATOM     27  O   UNL     1       1.767   8.206  21.179  0.00  0.00    +0.000 OA
ATOM     28  H   UNL     1       1.247   7.382  21.310  0.00  0.00    +0.000 HD
ENDBRANCH  11  27
TORSDOF 6
ENDMDL
MODEL 5
REMARK VINA RESULT:      -8.0      2.535      7.926
REMARK  Name = 
REMARK  8 active torsions:
REMARK  status: ('A' for Active; 'I' for Inactive)
REMARK    1  A    between atoms: C_1  and  C_2
REMARK    2  A    between atoms: C_2  and  C_3
REMARK    3  A    between atoms: C_10  and  C_11
REMARK    4  A    between atoms: C_11  and  C_13
REMARK    5  A    between atoms: C_14  and  C_15
REMARK    6  A    between atoms: C_16  and  O_17
REMARK    7  A    between atoms: C_21  and  O_22
REMARK    8  A    between atoms: C_23  and  O_24
REMARK                            x       y       z     vdW  Elec       q    Type
REMARK                         _______ _______ _______ _____ _____    ______ ____
ROOT
ATOM      1  C   UNL     1       1.622   4.162  17.807  0.00  0.00    +0.000 C 
ATOM      2  C   UNL     1       2.823   4.729  18.577  0.00  0.00    +0.000 C 
ATOM      3  C   UNL     1       4.021   3.786  18.413  0.00  0.00    +0.000 C 
ATOM      4  C   UNL     1       2.472   4.877  20.040  0.00  0.00    +0.000 C 
ATOM      5  C   UNL     1       2.076   6.045  20.558  0.00  0.00    +0.000 C 
ATOM      6  C   UNL     1       2.004   7.204  19.668  0.00  0.00    +0.000 A 
ATOM      7  C   UNL     1       2.604   7.108  18.410  0.00  0.00    +0.000 A 
ATOM      8  C   UNL     1       2.644   8.205  17.556  0.00  0.00    +0.000 A 
ATOM      9  C   UNL     1       2.044   9.409  17.931  0.00  0.00    +0.000 A 
ATOM     10  C   UNL     1       1.389   9.528  19.166  0.00  0.00    +0.000 A 
ATOM     11  C   UNL     1       1.387   8.416  20.038  0.00  0.00    +0.000 A 
ATOM     12  O   UNL     1       3.214   5.970  17.949  0.00  0.00    +0.000 OA
ENDROOT
BRANCH  10  13
ATOM     13  C   UNL     1       0.725  10.804  19.585  0.00  0.00    +0.000 C 
ATOM     14  O   UNL     1       1.188  11.440  20.533  0.00  0.00    +0.000 OA
BRANCH  13  15
ATOM     15  C   UNL     1      -0.498  11.274  18.878  0.00  0.00    +0.000 C 
ATOM     16  C   UNL     1      -1.611  10.526  18.895  0.00  0.00    +0.000 C 
BRANCH  16  17
ATOM     17  C   UNL     1      -2.840  10.982  18.228  0.00  0.00    +0.000 A 
ATOM     18  C   UNL     1      -3.139  10.620  16.906  0.00  0.00    +0.000 A 
ATOM     19  C   UNL     1      -4.287  11.091  16.271  0.00  0.00    +0.000 A 
ATOM     20  C   UNL     1      -5.170  11.926  16.955  0.00  0.00    +0.000 A 
ATOM     21  C   UNL     1      -4.901  12.294  18.273  0.00  0.00    +0.000 A 
ATOM     22  C   UNL     1      -3.740  11.827  18.899  0.00  0.00    +0.000 A 
BRANCH  18  23
ATOM     23  O   UNL     1      -2.339   9.792  16.166  0.00  0.00    +0.000 OA
ATOM     24  H   UNL     1      -1.624   9.461  16.738  0.00  0.00    +0.000 HD
ENDBRANCH  18  23
BRANCH  22  25
ATOM     25  O   UNL     1      -3.474  12.205  20.188  0.00  0.00    +0.000 OA
ATOM     26  H   UNL     1      -4.309  12.274  20.677  0.00  0.00    +0.000 HD
ENDBRANCH  22  25
ENDBRANCH  16  17
ENDBRANCH  13  15
ENDBRANCH  10  13
BRANCH  11  27
ATOM     27  O   UNL     1       0.783   8.464  21.276  0.00  0.00    +0.000 OA
ATOM     28  H   UNL     1       0.150   7.715  21.342  0.00  0.00    +0.000 HD
ENDBRANCH  11  27
TORSDOF 6
ENDMDL
MODEL 6
REMARK VINA RESULT:      -7.8      2.489      8.246
REMARK  Name = 
REMARK  8 active torsions:
REMARK  status: ('A' for Active; 'I' for Inactive)
REMARK    1  A    between atoms: C_1  and  C_2
REMARK    2  A    between atoms: C_2  and  C_3
REMARK    3  A    between atoms: C_10  and  C_11
REMARK    4  A    between atoms: C_11  and  C_13
REMARK    5  A    between atoms: C_14  and  C_15
REMARK    6  A    between atoms: C_16  and  O_17
REMARK    7  A    between atoms: C_21  and  O_22
REMARK    8  A    between atoms: C_23  and  O_24
REMARK                            x       y       z     vdW  Elec       q    Type
REMARK                         _______ _______ _______ _____ _____    ______ ____
ROOT
ATOM      1  C   UNL     1       5.598   5.416  19.342  0.00  0.00    +0.000 C 
ATOM      2  C   UNL     1       4.318   5.003  18.603  0.00  0.00    +0.000 C 
ATOM      3  C   UNL     1       4.373   3.503  18.291  0.00  0.00    +0.000 C 
ATOM      4  C   UNL     1       4.184   5.798  17.323  0.00  0.00    +0.000 C 
ATOM      5  C   UNL     1       3.419   6.893  17.247  0.00  0.00    +0.000 C 
ATOM      6  C   UNL     1       2.686   7.306  18.444  0.00  0.00    +0.000 A 
ATOM      7  C   UNL     1       2.598   6.404  19.507  0.00  0.00    +0.000 A 
ATOM      8  C   UNL     1       1.841   6.706  20.635  0.00  0.00    +0.000 A 
ATOM      9  C   UNL     1       1.191   7.938  20.734  0.00  0.00    +0.000 A 
ATOM     10  C   UNL     1       1.297   8.888  19.707  0.00  0.00    +0.000 A 
ATOM     11  C   UNL     1       2.041   8.553  18.553  0.00  0.00    +0.000 A 
ATOM     12  O   UNL     1       3.204   5.174  19.506  0.00  0.00    +0.000 OA
ENDROOT
BRANCH  10  13
ATOM     13  C   UNL     1       0.622  10.223  19.797  0.00  0.00    +0.000 C 
ATOM     14  O   UNL     1       1.260  11.193  20.205  0.00  0.00    +0.000 OA
BRANCH  13  15
ATOM     15  C   UNL     1      -0.813  10.357  19.424  0.00  0.00    +0.000 C 
ATOM     16  C   UNL     1      -1.200  11.330  18.585  0.00  0.00    +0.000 C 
BRANCH  16  17
ATOM     17  C   UNL     1      -2.606  11.465  18.179  0.00  0.00    +0.000 A 
ATOM     18  C   UNL     1      -3.042  11.093  16.898  0.00  0.00    +0.000 A 
ATOM     19  C   UNL     1      -4.371  11.264  16.510  0.00  0.00    +0.000 A 
ATOM     20  C   UNL     1      -5.295  11.800  17.405  0.00  0.00    +0.000 A 
ATOM     21  C   UNL     1      -4.890  12.170  18.688  0.00  0.00    +0.000 A 
ATOM     22  C   UNL     1      -3.553  12.007  19.065  0.00  0.00    +0.000 A 
BRANCH  18  23
ATOM     23  O   UNL     1      -2.208  10.544  15.962  0.00  0.00    +0.000 OA
ATOM     24  H   UNL     1      -1.295  10.592  16.296  0.00  0.00    +0.000 HD
ENDBRANCH  18  23
BRANCH  22  25
ATOM     25  O   UNL     1      -3.157  12.387  20.320  0.00  0.00    +0.000 OA
ATOM     26  H   UNL     1      -3.931  12.398  20.906  0.00  0.00    +0.000 HD
ENDBRANCH  22  25
ENDBRANCH  16  17
ENDBRANCH  13  15
ENDBRANCH  10  13
BRANCH  11  27
ATOM     27  O   UNL     1       2.171   9.426  17.495  0.00  0.00    +0.000 OA
ATOM     28  H   UNL     1       1.386   9.328  16.912  0.00  0.00    +0.000 HD
ENDBRANCH  11  27
TORSDOF 6
ENDMDL
MODEL 7
REMARK VINA RESULT:      -7.6      2.990      8.566
REMARK  Name = 
REMARK  8 active torsions:
REMARK  status: ('A' for Active; 'I' for Inactive)
REMARK    1  A    between atoms: C_1  and  C_2
REMARK    2  A    between atoms: C_2  and  C_3
REMARK    3  A    between atoms: C_10  and  C_11
REMARK    4  A    between atoms: C_11  and  C_13
REMARK    5  A    between atoms: C_14  and  C_15
REMARK    6  A    between atoms: C_16  and  O_17
REMARK    7  A    between atoms: C_21  and  O_22
REMARK    8  A    between atoms: C_23  and  O_24
REMARK                            x       y       z     vdW  Elec       q    Type
REMARK                         _______ _______ _______ _____ _____    ______ ____
ROOT
ATOM      1  C   UNL     1       1.853   4.074  17.752  0.00  0.00    +0.000 C 
ATOM      2  C   UNL     1       3.069   4.725  18.425  0.00  0.00    +0.000 C 
ATOM      3  C   UNL     1       4.327   3.912  18.094  0.00  0.00    +0.000 C 
ATOM      4  C   UNL     1       2.862   4.779  19.922  0.00  0.00    +0.000 C 
ATOM      5  C   UNL     1       2.416   5.881  20.535  0.00  0.00    +0.000 C 
ATOM      6  C   UNL     1       2.141   7.062  19.715  0.00  0.00    +0.000 A 
ATOM      7  C   UNL     1       2.613   7.076  18.400  0.00  0.00    +0.000 A 
ATOM      8  C   UNL     1       2.459   8.205  17.602  0.00  0.00    +0.000 A 
ATOM      9  C   UNL     1       1.792   9.328  18.096  0.00  0.00    +0.000 A 
ATOM     10  C   UNL     1       1.262   9.333  19.395  0.00  0.00    +0.000 A 
ATOM     11  C   UNL     1       1.457   8.191  20.206  0.00  0.00    +0.000 A 
ATOM     12  O   UNL     1       3.274   6.023  17.824  0.00  0.00    +0.000 OA
ENDROOT
BRANCH  10  13
ATOM     13  C   UNL     1       0.530  10.519  19.943  0.00  0.00    +0.000 C 
ATOM     14  O   UNL     1      -0.552  10.351  20.507  0.00  0.00    +0.000 OA
BRANCH  13  15
ATOM     15  C   UNL     1       1.096  11.886  19.774  0.00  0.00    +0.000 C 
ATOM     16  C   UNL     1       0.659  12.675  18.782  0.00  0.00    +0.000 C 
BRANCH  16  17
ATOM     17  C   UNL     1       1.181  14.039  18.612  0.00  0.00    +0.000 A 
ATOM     18  C   UNL     1       2.502  14.276  18.204  0.00  0.00    +0.000 A 
ATOM     19  C   UNL     1       2.999  15.574  18.085  0.00  0.00    +0.000 A 
ATOM     20  C   UNL     1       2.175  16.664  18.362  0.00  0.00    +0.000 A 
ATOM     21  C   UNL     1       0.855  16.456  18.761  0.00  0.00    +0.000 A 
ATOM     22  C   UNL     1       0.368  15.151  18.890  0.00  0.00    +0.000 A 
BRANCH  18  23
ATOM     23  O   UNL     1       3.375  13.268  17.896  0.00  0.00    +0.000 OA
ATOM     24  H   UNL     1       3.022  12.776  17.133  0.00  0.00    +0.000 HD
ENDBRANCH  18  23
BRANCH  22  25
ATOM     25  O   UNL     1      -0.924  14.953  19.298  0.00  0.00    +0.000 OA
ATOM     26  H   UNL     1      -1.080  15.458  20.112  0.00  0.00    +0.000 HD
ENDBRANCH  22  25
ENDBRANCH  16  17
ENDBRANCH  13  15
ENDBRANCH  10  13
BRANCH  11  27
ATOM     27  O   UNL     1       0.985   8.130  21.499  0.00  0.00    +0.000 OA
ATOM     28  H   UNL     1       1.270   8.943  21.973  0.00  0.00    +0.000 HD
ENDBRANCH  11  27
TORSDOF 6
ENDMDL
MODEL 8
REMARK VINA RESULT:      -7.6      1.648      8.473
REMARK  Name = 
REMARK  8 active torsions:
REMARK  status: ('A' for Active; 'I' for Inactive)
REMARK    1  A    between atoms: C_1  and  C_2
REMARK    2  A    between atoms: C_2  and  C_3
REMARK    3  A    between atoms: C_10  and  C_11
REMARK    4  A    between atoms: C_11  and  C_13
REMARK    5  A    between atoms: C_14  and  C_15
REMARK    6  A    between atoms: C_16  and  O_17
REMARK    7  A    between atoms: C_21  and  O_22
REMARK    8  A    between atoms: C_23  and  O_24
REMARK                            x       y       z     vdW  Elec       q    Type
REMARK                         _______ _______ _______ _____ _____    ______ ____
ROOT
ATOM      1  C   UNL     1       5.544   4.867  19.449  0.00  0.00    +0.000 C 
ATOM      2  C   UNL     1       4.215   4.479  18.787  0.00  0.00    +0.000 C 
ATOM      3  C   UNL     1       4.137   2.952  18.663  0.00  0.00    +0.000 C 
ATOM      4  C   UNL     1       4.114   5.120  17.421  0.00  0.00    +0.000 C 
ATOM      5  C   UNL     1       3.441   6.258  17.222  0.00  0.00    +0.000 C 
ATOM      6  C   UNL     1       2.776   6.876  18.370  0.00  0.00    +0.000 A 
ATOM      7  C   UNL     1       2.642   6.121  19.538  0.00  0.00    +0.000 A 
ATOM      8  C   UNL     1       1.942   6.623  20.631  0.00  0.00    +0.000 A 
ATOM      9  C   UNL     1       1.400   7.909  20.588  0.00  0.00    +0.000 A 
ATOM     10  C   UNL     1       1.557   8.714  19.449  0.00  0.00    +0.000 A 
ATOM     11  C   UNL     1       2.240   8.178  18.334  0.00  0.00    +0.000 A 
ATOM     12  O   UNL     1       3.143   4.853  19.680  0.00  0.00    +0.000 OA
ENDROOT
BRANCH  10  13
ATOM     13  C   UNL     1       0.998  10.102  19.384  0.00  0.00    +0.000 C 
ATOM     14  O   UNL     1       1.599  10.963  18.741  0.00  0.00    +0.000 OA
BRANCH  13  15
ATOM     15  C   UNL     1      -0.255  10.435  20.116  0.00  0.00    +0.000 C 
ATOM     16  C   UNL     1      -0.432  11.667  20.617  0.00  0.00    +0.000 C 
BRANCH  16  17
ATOM     17  C   UNL     1      -1.672  12.029  21.319  0.00  0.00    +0.000 A 
ATOM     18  C   UNL     1      -2.751  12.625  20.649  0.00  0.00    +0.000 A 
ATOM     19  C   UNL     1      -3.906  13.000  21.333  0.00  0.00    +0.000 A 
ATOM     20  C   UNL     1      -4.010  12.773  22.705  0.00  0.00    +0.000 A 
ATOM     21  C   UNL     1      -2.955  12.174  23.393  0.00  0.00    +0.000 A 
ATOM     22  C   UNL     1      -1.794  11.812  22.702  0.00  0.00    +0.000 A 
BRANCH  18  23
ATOM     23  O   UNL     1      -2.743  12.869  19.303  0.00  0.00    +0.000 OA
ATOM     24  H   UNL     1      -2.461  13.789  19.157  0.00  0.00    +0.000 HD
ENDBRANCH  18  23
BRANCH  22  25
ATOM     25  O   UNL     1      -0.755  11.238  23.387  0.00  0.00    +0.000 OA
ATOM     26  H   UNL     1      -1.026  11.090  24.307  0.00  0.00    +0.000 HD
ENDBRANCH  22  25
ENDBRANCH  16  17
ENDBRANCH  13  15
ENDBRANCH  10  13
BRANCH  11  27
ATOM     27  O   UNL     1       2.415   8.901  17.174  0.00  0.00    +0.000 OA
ATOM     28  H   UNL     1       1.562   9.332  16.944  0.00  0.00    +0.000 HD
ENDBRANCH  11  27
TORSDOF 6
ENDMDL
MODEL 9
REMARK VINA RESULT:      -7.6      2.425      3.157
REMARK  Name = 
REMARK  8 active torsions:
REMARK  status: ('A' for Active; 'I' for Inactive)
REMARK    1  A    between atoms: C_1  and  C_2
REMARK    2  A    between atoms: C_2  and  C_3
REMARK    3  A    between atoms: C_10  and  C_11
REMARK    4  A    between atoms: C_11  and  C_13
REMARK    5  A    between atoms: C_14  and  C_15
REMARK    6  A    between atoms: C_16  and  O_17
REMARK    7  A    between atoms: C_21  and  O_22
REMARK    8  A    between atoms: C_23  and  O_24
REMARK                            x       y       z     vdW  Elec       q    Type
REMARK                         _______ _______ _______ _____ _____    ______ ____
ROOT
ATOM      1  C   UNL     1       1.926  13.270  20.223  0.00  0.00    +0.000 C 
ATOM      2  C   UNL     1       0.559  12.596  20.045  0.00  0.00    +0.000 C 
ATOM      3  C   UNL     1      -0.498  13.665  19.742  0.00  0.00    +0.000 C 
ATOM      4  C   UNL     1       0.190  11.839  21.302  0.00  0.00    +0.000 C 
ATOM      5  C   UNL     1       0.396  10.523  21.421  0.00  0.00    +0.000 C 
ATOM      6  C   UNL     1       0.980   9.811  20.284  0.00  0.00    +0.000 A 
ATOM      7  C   UNL     1       1.037  10.470  19.053  0.00  0.00    +0.000 A 
ATOM      8  C   UNL     1       1.500   9.813  17.917  0.00  0.00    +0.000 A 
ATOM      9  C   UNL     1       1.955   8.496  18.004  0.00  0.00    +0.000 A 
ATOM     10  C   UNL     1       1.959   7.819  19.233  0.00  0.00    +0.000 A 
ATOM     11  C   UNL     1       1.452   8.487  20.371  0.00  0.00    +0.000 A 
ATOM     12  O   UNL     1       0.619  11.762  18.868  0.00  0.00    +0.000 OA
ENDROOT
BRANCH  10  13
ATOM     13  C   UNL     1       2.455   6.411  19.355  0.00  0.00    +0.000 C 
ATOM     14  O   UNL     1       2.401   5.847  20.449  0.00  0.00    +0.000 OA
BRANCH  13  15
ATOM     15  C   UNL     1       3.034   5.721  18.170  0.00  0.00    +0.000 C 
ATOM     16  C   UNL     1       4.329   5.892  17.861  0.00  0.00    +0.000 C 
BRANCH  16  17
ATOM     17  C   UNL     1       4.931   5.198  16.712  0.00  0.00    +0.000 A 
ATOM     18  C   UNL     1       5.171   3.817  16.730  0.00  0.00    +0.000 A 
ATOM     19  C   UNL     1       5.780   3.177  15.651  0.00  0.00    +0.000 A 
ATOM     20  C   UNL     1       6.150   3.909  14.523  0.00  0.00    +0.000 A 
ATOM     21  C   UNL     1       5.914   5.283  14.477  0.00  0.00    +0.000 A 
ATOM     22  C   UNL     1       5.313   5.919  15.568  0.00  0.00    +0.000 A 
BRANCH  18  23
ATOM     23  O   UNL     1       4.827   3.018  17.786  0.00  0.00    +0.000 OA
ATOM     24  H   UNL     1       5.531   3.070  18.456  0.00  0.00    +0.000 HD
ENDBRANCH  18  23
BRANCH  22  25
ATOM     25  O   UNL     1       5.099   7.271  15.523  0.00  0.00    +0.000 OA
ATOM     26  H   UNL     1       4.206   7.439  15.184  0.00  0.00    +0.000 HD
ENDBRANCH  22  25
ENDBRANCH  16  17
ENDBRANCH  13  15
ENDBRANCH  10  13
BRANCH  11  27
ATOM     27  O   UNL     1       1.404   7.880  21.608  0.00  0.00    +0.000 OA
ATOM     28  H   UNL     1       2.319   7.828  21.965  0.00  0.00    +0.000 HD
ENDBRANCH  11  27
TORSDOF 6
ENDMDL
