MODEL 1
REMARK VINA RESULT:      -8.8      0.000      0.000
REMARK  Name = 
REMARK  5 active torsions:
REMARK  status: ('A' for Active; 'I' for Inactive)
REMARK    1  A    between atoms: C_1  and  C_2
REMARK    2  A    between atoms: N_4  and  C_5
REMARK    3  A    between atoms: C_5  and  C_6
REMARK    4  A    between atoms: C_9  and  C_10
REMARK    5  A    between atoms: C_21  and  C_22
REMARK                            x       y       z     vdW  Elec       q    Type
REMARK                         _______ _______ _______ _____ _____    ______ ____
ROOT
ATOM      1  C   UNL     1       1.512   9.308  18.794  0.00  0.00    +0.000 A 
ATOM      2  C   UNL     1       1.542   8.556  19.944  0.00  0.00    +0.000 A 
ATOM      3  O   UNL     1       2.250   7.421  19.685  0.00  0.00    +0.000 OA
ATOM      4  C   UNL     1       2.624   7.541  18.368  0.00  0.00    +0.000 A 
ATOM      5  N   UNL     1       2.221   8.663  17.808  0.00  0.00    +0.000 NA
ENDROOT
BRANCH   4   6
ATOM      6  C   UNL     1       3.390   6.434  17.798  0.00  0.00    +0.000 A 
ATOM      7  C   UNL     1       4.606   6.733  17.153  0.00  0.00    +0.000 A 
ATOM      8  C   UNL     1       5.380   5.732  16.584  0.00  0.00    +0.000 A 
ATOM      9  C   UNL     1       4.952   4.411  16.653  0.00  0.00    +0.000 A 
ATOM     10  C   UNL     1       3.746   4.071  17.282  0.00  0.00    +0.000 A 
ATOM     11  C   UNL     1       3.348   2.723  17.335  0.00  0.00    +0.000 A 
ATOM     12  C   UNL     1       2.159   2.344  17.954  0.00  0.00    +0.000 A 
ATOM     13  C   UNL     1       1.350   3.309  18.530  0.00  0.00    +0.000 A 
ATOM     14  C   UNL     1       1.734   4.651  18.489  0.00  0.00    +0.000 A 
ATOM     15  C   UNL     1       2.936   5.079  17.864  0.00  0.00    +0.000 A 
ENDBRANCH   4   6
BRANCH   1  16
ATOM     16  C   UNL     1       0.900  10.624  18.524  0.00  0.00    +0.000 C 
BRANCH  16  20
ATOM     17  C   UNL     1      -1.003  12.508  22.773  0.00  0.00    +0.000 C 
ATOM     18  C   UNL     1      -0.811  11.949  21.416  0.00  0.00    +0.000 A 
ATOM     19  C   UNL     1       0.356  11.557  20.810  0.00  0.00    +0.000 A 
ATOM     20  N   UNL     1       0.001  11.111  19.563  0.00  0.00    +0.000 N 
ATOM     21  C   UNL     1      -1.380  11.237  19.442  0.00  0.00    +0.000 A 
ATOM     22  N   UNL     1      -1.867  11.761  20.559  0.00  0.00    +0.000 NA
BRANCH  21  23
ATOM     23  C   UNL     1      -2.192  10.946  18.241  0.00  0.00    +0.000 A 
ATOM     24  C   UNL     1      -1.820  10.019  17.256  0.00  0.00    +0.000 A 
ATOM     25  C   UNL     1      -2.564   9.863  16.084  0.00  0.00    +0.000 A 
ATOM     26  C   UNL     1      -3.737  10.586  15.905  0.00  0.00    +0.000 A 
ATOM     27  C   UNL     1      -4.171  11.450  16.905  0.00  0.00    +0.000 A 
ATOM     28  C   UNL     1      -3.403  11.632  18.060  0.00  0.00    +0.000 A 
ENDBRANCH  21  23
ENDBRANCH  16  20
ENDBRANCH   1  16
TORSDOF 4
ENDMDL
MODEL 2
REMARK VINA RESULT:      -8.8      2.040      8.041
REMARK  Name = 
REMARK  5 active torsions:
REMARK  status: ('A' for Active; 'I' for Inactive)
REMARK    1  A    between atoms: C_1  and  C_2
REMARK    2  A    between atoms: N_4  and  C_5
REMARK    3  A    between atoms: C_5  and  C_6
REMARK    4  A    between atoms: C_9  and  C_10
REMARK    5  A    between atoms: C_21  and  C_22
REMARK                            x       y       z     vdW  Elec       q    Type
REMARK                         _______ _______ _______ _____ _____    ______ ____
ROOT
ATOM      1  C   UNL     1       2.612   7.561  18.183  0.00  0.00    +0.000 A 
ATOM      2  C   UNL     1       2.305   7.546  19.523  0.00  0.00    +0.000 A 
ATOM      3  O   UNL     1       1.567   8.659  19.795  0.00  0.00    +0.000 OA
ATOM      4  C   UNL     1       1.458   9.306  18.588  0.00  0.00    +0.000 A 
ATOM      5  N   UNL     1       2.049   8.671  17.597  0.00  0.00    +0.000 NA
ENDROOT
BRANCH   4   6
ATOM      6  C   UNL     1       0.724  10.570  18.583  0.00  0.00    +0.000 A 
ATOM      7  C   UNL     1       1.429  11.746  18.906  0.00  0.00    +0.000 A 
ATOM      8  C   UNL     1       0.793  12.980  18.927  0.00  0.00    +0.000 A 
ATOM      9  C   UNL     1      -0.560  13.059  18.621  0.00  0.00    +0.000 A 
ATOM     10  C   UNL     1      -1.300  11.912  18.298  0.00  0.00    +0.000 A 
ATOM     11  C   UNL     1      -2.667  12.033  17.991  0.00  0.00    +0.000 A 
ATOM     12  C   UNL     1      -3.435  10.918  17.662  0.00  0.00    +0.000 A 
ATOM     13  C   UNL     1      -2.846   9.665  17.634  0.00  0.00    +0.000 A 
ATOM     14  C   UNL     1      -1.487   9.530  17.933  0.00  0.00    +0.000 A 
ATOM     15  C   UNL     1      -0.672  10.640  18.277  0.00  0.00    +0.000 A 
ENDBRANCH   4   6
BRANCH   1  16
ATOM     16  C   UNL     1       3.370   6.596  17.362  0.00  0.00    +0.000 C 
BRANCH  16  20
ATOM     17  C   UNL     1       7.923   5.556  19.211  0.00  0.00    +0.000 C 
ATOM     18  C   UNL     1       6.488   5.538  18.848  0.00  0.00    +0.000 A 
ATOM     19  C   UNL     1       5.793   6.426  18.067  0.00  0.00    +0.000 A 
ATOM     20  N   UNL     1       4.500   5.969  18.035  0.00  0.00    +0.000 N 
ATOM     21  C   UNL     1       4.441   4.805  18.796  0.00  0.00    +0.000 A 
ATOM     22  N   UNL     1       5.643   4.555  19.302  0.00  0.00    +0.000 NA
BRANCH  21  23
ATOM     23  C   UNL     1       3.234   4.009  19.101  0.00  0.00    +0.000 A 
ATOM     24  C   UNL     1       2.606   3.161  18.177  0.00  0.00    +0.000 A 
ATOM     25  C   UNL     1       1.402   2.519  18.477  0.00  0.00    +0.000 A 
ATOM     26  C   UNL     1       0.836   2.659  19.738  0.00  0.00    +0.000 A 
ATOM     27  C   UNL     1       1.483   3.429  20.700  0.00  0.00    +0.000 A 
ATOM     28  C   UNL     1       2.669   4.100  20.383  0.00  0.00    +0.000 A 
ENDBRANCH  21  23
ENDBRANCH  16  20
ENDBRANCH   1  16
TORSDOF 4
ENDMDL
MODEL 3
REMARK VINA RESULT:      -8.7      1.734      8.436
REMARK  Name = 
REMARK  5 active torsions:
REMARK  status: ('A' for Active; 'I' for Inactive)
REMARK    1  A    between atoms: C_1  and  C_2
REMARK    2  A    between atoms: N_4  and  C_5
REMARK    3  A    between atoms: C_5  and  C_6
REMARK    4  A    between atoms: C_9  and  C_10
REMARK    5  A    between atoms: C_21  and  C_22
REMARK                            x       y       z     vdW  Elec       q    Type
REMARK                         _______ _______ _______ _____ _____    ______ ____
ROOT
ATOM      1  C   UNL     1       2.444   7.722  18.959  0.00  0.00    +0.000 A 
ATOM      2  C   UNL     1       2.433   8.305  17.714  0.00  0.00    +0.000 A 
ATOM      3  O   UNL     1       1.526   9.321  17.735  0.00  0.00    +0.000 OA
ATOM      4  C   UNL     1       1.022   9.308  19.013  0.00  0.00    +0.000 A 
ATOM      5  N   UNL     1       1.560   8.383  19.780  0.00  0.00    +0.000 NA
ENDROOT
BRANCH   4   6
ATOM      6  C   UNL     1      -0.012  10.294  19.324  0.00  0.00    +0.000 A 
ATOM      7  C   UNL     1       0.161  11.096  20.468  0.00  0.00    +0.000 A 
ATOM      8  C   UNL     1      -0.785  12.047  20.826  0.00  0.00    +0.000 A 
ATOM      9  C   UNL     1      -1.919  12.215  20.041  0.00  0.00    +0.000 A 
ATOM     10  C   UNL     1      -2.132  11.434  18.896  0.00  0.00    +0.000 A 
ATOM     11  C   UNL     1      -3.290  11.636  18.124  0.00  0.00    +0.000 A 
ATOM     12  C   UNL     1      -3.536  10.883  16.978  0.00  0.00    +0.000 A 
ATOM     13  C   UNL     1      -2.625   9.917  16.585  0.00  0.00    +0.000 A 
ATOM     14  C   UNL     1      -1.467   9.709  17.339  0.00  0.00    +0.000 A 
ATOM     15  C   UNL     1      -1.182  10.452  18.516  0.00  0.00    +0.000 A 
ENDBRANCH   4   6
BRANCH   1  16
ATOM     16  C   UNL     1       3.246   6.600  19.486  0.00  0.00    +0.000 C 
BRANCH  16  20
ATOM     17  C   UNL     1       0.624   2.371  18.803  0.00  0.00    +0.000 C 
ATOM     18  C   UNL     1       1.642   3.445  18.765  0.00  0.00    +0.000 A 
ATOM     19  C   UNL     1       1.649   4.640  19.439  0.00  0.00    +0.000 A 
ATOM     20  N   UNL     1       2.805   5.277  19.065  0.00  0.00    +0.000 N 
ATOM     21  C   UNL     1       3.479   4.447  18.174  0.00  0.00    +0.000 A 
ATOM     22  N   UNL     1       2.764   3.346  17.980  0.00  0.00    +0.000 NA
BRANCH  21  23
ATOM     23  C   UNL     1       4.735   4.754  17.458  0.00  0.00    +0.000 A 
ATOM     24  C   UNL     1       4.782   5.325  16.178  0.00  0.00    +0.000 A 
ATOM     25  C   UNL     1       5.990   5.490  15.496  0.00  0.00    +0.000 A 
ATOM     26  C   UNL     1       7.187   5.149  16.113  0.00  0.00    +0.000 A 
ATOM     27  C   UNL     1       7.174   4.659  17.415  0.00  0.00    +0.000 A 
ATOM     28  C   UNL     1       5.959   4.460  18.079  0.00  0.00    +0.000 A 
ENDBRANCH  21  23
ENDBRANCH  16  20
ENDBRANCH   1  16
TORSDOF 4
ENDMDL
MODEL 4
REMARK VINA RESULT:      -8.7      1.805      2.125
REMARK  Name = 
REMARK  5 active torsions:
REMARK  status: ('A' for Active; 'I' for Inactive)
REMARK    1  A    between atoms: C_1  and  C_2
REMARK    2  A    between atoms: N_4  and  C_5
REMARK    3  A    between atoms: C_5  and  C_6
REMARK    4  A    between atoms: C_9  and  C_10
REMARK    5  A    between atoms: C_21  and  C_22
REMARK                            x       y       z     vdW  Elec       q    Type
REMARK                         _______ _______ _______ _____ _____    ______ ____
ROOT
ATOM      1  C   UNL     1       1.448   9.160  19.144  0.00  0.00    +0.000 A 
ATOM      2  C   UNL     1       1.842   9.206  17.828  0.00  0.00    +0.000 A 
ATOM      3  O   UNL     1       2.557   8.076  17.565  0.00  0.00    +0.000 OA
ATOM      4  C   UNL     1       2.562   7.386  18.754  0.00  0.00    +0.000 A 
ATOM      5  N   UNL     1       1.892   7.990  19.714  0.00  0.00    +0.000 NA
ENDROOT
BRANCH   4   6
ATOM      6  C   UNL     1       3.292   6.120  18.777  0.00  0.00    +0.000 A 
ATOM      7  C   UNL     1       4.512   6.047  18.077  0.00  0.00    +0.000 A 
ATOM      8  C   UNL     1       5.254   4.874  18.050  0.00  0.00    +0.000 A 
ATOM      9  C   UNL     1       4.790   3.754  18.729  0.00  0.00    +0.000 A 
ATOM     10  C   UNL     1       3.578   3.783  19.434  0.00  0.00    +0.000 A 
ATOM     11  C   UNL     1       3.142   2.630  20.111  0.00  0.00    +0.000 A 
ATOM     12  C   UNL     1       1.947   2.619  20.826  0.00  0.00    +0.000 A 
ATOM     13  C   UNL     1       1.169   3.764  20.875  0.00  0.00    +0.000 A 
ATOM     14  C   UNL     1       1.591   4.918  20.212  0.00  0.00    +0.000 A 
ATOM     15  C   UNL     1       2.801   4.968  19.469  0.00  0.00    +0.000 A 
ENDBRANCH   4   6
BRANCH   1  16
ATOM     16  C   UNL     1       0.644  10.110  19.939  0.00  0.00    +0.000 C 
BRANCH  16  20
ATOM     17  C   UNL     1       1.899  14.819  18.721  0.00  0.00    +0.000 C 
ATOM     18  C   UNL     1       1.203  13.524  18.899  0.00  0.00    +0.000 A 
ATOM     19  C   UNL     1       1.643  12.401  19.553  0.00  0.00    +0.000 A 
ATOM     20  N   UNL     1       0.635  11.479  19.437  0.00  0.00    +0.000 N 
ATOM     21  C   UNL     1      -0.401  12.068  18.718  0.00  0.00    +0.000 A 
ATOM     22  N   UNL     1      -0.047  13.301  18.378  0.00  0.00    +0.000 NA
BRANCH  21  23
ATOM     23  C   UNL     1      -1.659  11.421  18.291  0.00  0.00    +0.000 A 
ATOM     24  C   UNL     1      -1.715  10.338  17.400  0.00  0.00    +0.000 A 
ATOM     25  C   UNL     1      -2.933   9.836  16.938  0.00  0.00    +0.000 A 
ATOM     26  C   UNL     1      -4.127  10.365  17.412  0.00  0.00    +0.000 A 
ATOM     27  C   UNL     1      -4.099  11.383  18.360  0.00  0.00    +0.000 A 
ATOM     28  C   UNL     1      -2.876  11.909  18.791  0.00  0.00    +0.000 A 
ENDBRANCH  21  23
ENDBRANCH  16  20
ENDBRANCH   1  16
TORSDOF 4
ENDMDL
MODEL 5
REMARK VINA RESULT:      -8.7      2.058      3.260
REMARK  Name = 
REMARK  5 active torsions:
REMARK  status: ('A' for Active; 'I' for Inactive)
REMARK    1  A    between atoms: C_1  and  C_2
REMARK    2  A    between atoms: N_4  and  C_5
REMARK    3  A    between atoms: C_5  and  C_6
REMARK    4  A    between atoms: C_9  and  C_10
REMARK    5  A    between atoms: C_21  and  C_22
REMARK                            x       y       z     vdW  Elec       q    Type
REMARK                         _______ _______ _______ _____ _____    ______ ____
ROOT
ATOM      1  C   UNL     1       1.255   9.177  18.956  0.00  0.00    +0.000 A 
ATOM      2  C   UNL     1       1.550   8.539  20.137  0.00  0.00    +0.000 A 
ATOM      3  O   UNL     1       2.326   7.457  19.847  0.00  0.00    +0.000 OA
ATOM      4  C   UNL     1       2.469   7.492  18.481  0.00  0.00    +0.000 A 
ATOM      5  N   UNL     1       1.864   8.515  17.915  0.00  0.00    +0.000 NA
ENDROOT
BRANCH   4   6
ATOM      6  C   UNL     1       3.249   6.415  17.874  0.00  0.00    +0.000 A 
ATOM      7  C   UNL     1       4.432   6.758  17.191  0.00  0.00    +0.000 A 
ATOM      8  C   UNL     1       5.217   5.787  16.584  0.00  0.00    +0.000 A 
ATOM      9  C   UNL     1       4.834   4.453  16.656  0.00  0.00    +0.000 A 
ATOM     10  C   UNL     1       3.662   4.069  17.322  0.00  0.00    +0.000 A 
ATOM     11  C   UNL     1       3.309   2.708  17.377  0.00  0.00    +0.000 A 
ATOM     12  C   UNL     1       2.155   2.286  18.032  0.00  0.00    +0.000 A 
ATOM     13  C   UNL     1       1.336   3.219  18.645  0.00  0.00    +0.000 A 
ATOM     14  C   UNL     1       1.676   4.574  18.604  0.00  0.00    +0.000 A 
ATOM     15  C   UNL     1       2.841   5.045  17.943  0.00  0.00    +0.000 A 
ENDBRANCH   4   6
BRANCH   1  16
ATOM     16  C   UNL     1       0.469  10.400  18.695  0.00  0.00    +0.000 C 
BRANCH  16  20
ATOM     17  C   UNL     1       3.448  14.441  18.832  0.00  0.00    +0.000 C 
ATOM     18  C   UNL     1       2.422  13.411  19.107  0.00  0.00    +0.000 A 
ATOM     19  C   UNL     1       2.170  12.250  18.419  0.00  0.00    +0.000 A 
ATOM     20  N   UNL     1       1.126  11.646  19.070  0.00  0.00    +0.000 N 
ATOM     21  C   UNL     1       0.770  12.453  20.147  0.00  0.00    +0.000 A 
ATOM     22  N   UNL     1       1.544  13.531  20.156  0.00  0.00    +0.000 NA
BRANCH  21  23
ATOM     23  C   UNL     1      -0.352  12.233  21.083  0.00  0.00    +0.000 A 
ATOM     24  C   UNL     1      -1.567  12.932  21.020  0.00  0.00    +0.000 A 
ATOM     25  C   UNL     1      -2.553  12.771  21.997  0.00  0.00    +0.000 A 
ATOM     26  C   UNL     1      -2.370  11.852  23.022  0.00  0.00    +0.000 A 
ATOM     27  C   UNL     1      -1.209  11.086  23.060  0.00  0.00    +0.000 A 
ATOM     28  C   UNL     1      -0.208  11.278  22.101  0.00  0.00    +0.000 A 
ENDBRANCH  21  23
ENDBRANCH  16  20
ENDBRANCH   1  16
TORSDOF 4
ENDMDL
MODEL 6
REMARK VINA RESULT:      -8.6      2.208      8.494
REMARK  Name = 
REMARK  5 active torsions:
REMARK  status: ('A' for Active; 'I' for Inactive)
REMARK    1  A    between atoms: C_1  and  C_2
REMARK    2  A    between atoms: N_4  and  C_5
REMARK    3  A    between atoms: C_5  and  C_6
REMARK    4  A    between atoms: C_9  and  C_10
REMARK    5  A    between atoms: C_21  and  C_22
REMARK                            x       y       z     vdW  Elec       q    Type
REMARK                         _______ _______ _______ _____ _____    ______ ____
ROOT
ATOM      1  C   UNL     1       2.766   7.374  18.782  0.00  0.00    +0.000 A 
ATOM      2  C   UNL     1       2.707   7.958  17.540  0.00  0.00    +0.000 A 
ATOM      3  O   UNL     1       1.853   9.018  17.616  0.00  0.00    +0.000 OA
ATOM      4  C   UNL     1       1.430   9.027  18.923  0.00  0.00    +0.000 A 
ATOM      5  N   UNL     1       1.969   8.075  19.656  0.00  0.00    +0.000 NA
ENDROOT
BRANCH   4   6
ATOM      6  C   UNL     1       0.467  10.062  19.295  0.00  0.00    +0.000 A 
ATOM      7  C   UNL     1       0.015  10.938  18.289  0.00  0.00    +0.000 A 
ATOM      8  C   UNL     1      -0.894  11.949  18.574  0.00  0.00    +0.000 A 
ATOM      9  C   UNL     1      -1.369  12.098  19.872  0.00  0.00    +0.000 A 
ATOM     10  C   UNL     1      -0.940  11.250  20.904  0.00  0.00    +0.000 A 
ATOM     11  C   UNL     1      -1.446  11.430  22.203  0.00  0.00    +0.000 A 
ATOM     12  C   UNL     1      -1.048  10.607  23.255  0.00  0.00    +0.000 A 
ATOM     13  C   UNL     1      -0.138   9.589  23.020  0.00  0.00    +0.000 A 
ATOM     14  C   UNL     1       0.369   9.395  21.733  0.00  0.00    +0.000 A 
ATOM     15  C   UNL     1      -0.007  10.216  20.636  0.00  0.00    +0.000 A 
ENDBRANCH   4   6
BRANCH   1  16
ATOM     16  C   UNL     1       3.543   6.212  19.260  0.00  0.00    +0.000 C 
BRANCH  16  20
ATOM     17  C   UNL     1       0.616   2.162  18.752  0.00  0.00    +0.000 C 
ATOM     18  C   UNL     1       1.705   3.160  18.661  0.00  0.00    +0.000 A 
ATOM     19  C   UNL     1       1.811   4.369  19.301  0.00  0.00    +0.000 A 
ATOM     20  N   UNL     1       3.000   4.913  18.885  0.00  0.00    +0.000 N 
ATOM     21  C   UNL     1       3.594   4.014  18.004  0.00  0.00    +0.000 A 
ATOM     22  N   UNL     1       2.799   2.962  17.855  0.00  0.00    +0.000 NA
BRANCH  21  23
ATOM     23  C   UNL     1       4.851   4.213  17.252  0.00  0.00    +0.000 A 
ATOM     24  C   UNL     1       6.104   4.380  17.861  0.00  0.00    +0.000 A 
ATOM     25  C   UNL     1       7.245   4.680  17.113  0.00  0.00    +0.000 A 
ATOM     26  C   UNL     1       7.167   4.751  15.727  0.00  0.00    +0.000 A 
ATOM     27  C   UNL     1       5.952   4.507  15.094  0.00  0.00    +0.000 A 
ATOM     28  C   UNL     1       4.804   4.244  15.850  0.00  0.00    +0.000 A 
ENDBRANCH  21  23
ENDBRANCH  16  20
ENDBRANCH   1  16
TORSDOF 4
ENDMDL
MODEL 7
REMARK VINA RESULT:      -8.6      0.618      2.174
REMARK  Name = 
REMARK  5 active torsions:
REMARK  status: ('A' for Active; 'I' for Inactive)
REMARK    1  A    between atoms: C_1  and  C_2
REMARK    2  A    between atoms: N_4  and  C_5
REMARK    3  A    between atoms: C_5  and  C_6
REMARK    4  A    between atoms: C_9  and  C_10
REMARK    5  A    between atoms: C_21  and  C_22
REMARK                            x       y       z     vdW  Elec       q    Type
REMARK                         _______ _______ _______ _____ _____    ______ ____
ROOT
ATOM      1  C   UNL     1       1.477   9.151  18.965  0.00  0.00    +0.000 A 
ATOM      2  C   UNL     1       1.597   8.502  20.170  0.00  0.00    +0.000 A 
ATOM      3  O   UNL     1       2.099   7.258  19.929  0.00  0.00    +0.000 OA
ATOM      4  C   UNL     1       2.264   7.212  18.565  0.00  0.00    +0.000 A 
ATOM      5  N   UNL     1       1.924   8.329  17.957  0.00  0.00    +0.000 NA
ENDROOT
BRANCH   4   6
ATOM      6  C   UNL     1       2.775   5.961  18.006  0.00  0.00    +0.000 A 
ATOM      7  C   UNL     1       1.916   4.844  17.990  0.00  0.00    +0.000 A 
ATOM      8  C   UNL     1       2.339   3.624  17.481  0.00  0.00    +0.000 A 
ATOM      9  C   UNL     1       3.627   3.501  16.975  0.00  0.00    +0.000 A 
ATOM     10  C   UNL     1       4.515   4.587  16.977  0.00  0.00    +0.000 A 
ATOM     11  C   UNL     1       5.810   4.424  16.453  0.00  0.00    +0.000 A 
ATOM     12  C   UNL     1       6.719   5.479  16.433  0.00  0.00    +0.000 A 
ATOM     13  C   UNL     1       6.346   6.714  16.937  0.00  0.00    +0.000 A 
ATOM     14  C   UNL     1       5.061   6.892  17.456  0.00  0.00    +0.000 A 
ATOM     15  C   UNL     1       4.106   5.841  17.498  0.00  0.00    +0.000 A 
ENDBRANCH   4   6
BRANCH   1  16
ATOM     16  C   UNL     1       1.005  10.515  18.652  0.00  0.00    +0.000 C 
BRANCH  16  20
ATOM     17  C   UNL     1      -0.932  12.712  22.732  0.00  0.00    +0.000 C 
ATOM     18  C   UNL     1      -0.728  12.068  21.415  0.00  0.00    +0.000 A 
ATOM     19  C   UNL     1       0.439  11.599  20.866  0.00  0.00    +0.000 A 
ATOM     20  N   UNL     1       0.100  11.094  19.636  0.00  0.00    +0.000 N 
ATOM     21  C   UNL     1      -1.272  11.264  19.470  0.00  0.00    +0.000 A 
ATOM     22  N   UNL     1      -1.768  11.870  20.541  0.00  0.00    +0.000 NA
BRANCH  21  23
ATOM     23  C   UNL     1      -2.063  10.933  18.266  0.00  0.00    +0.000 A 
ATOM     24  C   UNL     1      -1.685   9.961  17.328  0.00  0.00    +0.000 A 
ATOM     25  C   UNL     1      -2.407   9.766  16.148  0.00  0.00    +0.000 A 
ATOM     26  C   UNL     1      -3.566  10.495  15.915  0.00  0.00    +0.000 A 
ATOM     27  C   UNL     1      -4.009  11.405  16.870  0.00  0.00    +0.000 A 
ATOM     28  C   UNL     1      -3.262  11.625  18.032  0.00  0.00    +0.000 A 
ENDBRANCH  21  23
ENDBRANCH  16  20
ENDBRANCH   1  16
TORSDOF 4
ENDMDL
MODEL 8
REMARK VINA RESULT:      -8.6      1.237      1.414
REMARK  Name = 
REMARK  5 active torsions:
REMARK  status: ('A' for Active; 'I' for Inactive)
REMARK    1  A    between atoms: C_1  and  C_2
REMARK    2  A    between atoms: N_4  and  C_5
REMARK    3  A    between atoms: C_5  and  C_6
REMARK    4  A    between atoms: C_9  and  C_10
REMARK    5  A    between atoms: C_21  and  C_22
REMARK                            x       y       z     vdW  Elec       q    Type
REMARK                         _______ _______ _______ _____ _____    ______ ____
ROOT
ATOM      1  C   UNL     1       1.461   9.109  19.012  0.00  0.00    +0.000 A 
ATOM      2  C   UNL     1       1.858   9.604  17.793  0.00  0.00    +0.000 A 
ATOM      3  O   UNL     1       2.689   8.689  17.219  0.00  0.00    +0.000 OA
ATOM      4  C   UNL     1       2.756   7.664  18.132  0.00  0.00    +0.000 A 
ATOM      5  N   UNL     1       2.020   7.866  19.205  0.00  0.00    +0.000 NA
ENDROOT
BRANCH   4   6
ATOM      6  C   UNL     1       3.615   6.531  17.787  0.00  0.00    +0.000 A 
ATOM      7  C   UNL     1       4.943   6.801  17.404  0.00  0.00    +0.000 A 
ATOM      8  C   UNL     1       5.810   5.774  17.056  0.00  0.00    +0.000 A 
ATOM      9  C   UNL     1       5.364   4.458  17.091  0.00  0.00    +0.000 A 
ATOM     10  C   UNL     1       4.048   4.147  17.463  0.00  0.00    +0.000 A 
ATOM     11  C   UNL     1       3.634   2.803  17.490  0.00  0.00    +0.000 A 
ATOM     12  C   UNL     1       2.337   2.453  17.857  0.00  0.00    +0.000 A 
ATOM     13  C   UNL     1       1.434   3.444  18.205  0.00  0.00    +0.000 A 
ATOM     14  C   UNL     1       1.832   4.783  18.188  0.00  0.00    +0.000 A 
ATOM     15  C   UNL     1       3.143   5.181  17.815  0.00  0.00    +0.000 A 
ENDBRANCH   4   6
BRANCH   1  16
ATOM     16  C   UNL     1       0.556   9.678  20.031  0.00  0.00    +0.000 C 
BRANCH  16  20
ATOM     17  C   UNL     1       1.432  14.588  20.619  0.00  0.00    +0.000 C 
ATOM     18  C   UNL     1       0.858  13.269  20.270  0.00  0.00    +0.000 A 
ATOM     19  C   UNL     1       1.349  12.021  20.557  0.00  0.00    +0.000 A 
ATOM     20  N   UNL     1       0.454  11.131  20.020  0.00  0.00    +0.000 N 
ATOM     21  C   UNL     1      -0.568  11.863  19.423  0.00  0.00    +0.000 A 
ATOM     22  N   UNL     1      -0.312  13.158  19.560  0.00  0.00    +0.000 NA
BRANCH  21  23
ATOM     23  C   UNL     1      -1.712  11.323  18.658  0.00  0.00    +0.000 A 
ATOM     24  C   UNL     1      -1.586  10.357  17.648  0.00  0.00    +0.000 A 
ATOM     25  C   UNL     1      -2.681   9.963  16.875  0.00  0.00    +0.000 A 
ATOM     26  C   UNL     1      -3.942  10.479  17.145  0.00  0.00    +0.000 A 
ATOM     27  C   UNL     1      -4.108  11.377  18.195  0.00  0.00    +0.000 A 
ATOM     28  C   UNL     1      -3.001  11.797  18.942  0.00  0.00    +0.000 A 
ENDBRANCH  21  23
ENDBRANCH  16  20
ENDBRANCH   1  16
TORSDOF 4
ENDMDL
MODEL 9
REMARK VINA RESULT:      -8.6      1.897      8.456
REMARK  Name = 
REMARK  5 active torsions:
REMARK  status: ('A' for Active; 'I' for Inactive)
REMARK    1  A    between atoms: C_1  and  C_2
REMARK    2  A    between atoms: N_4  and  C_5
REMARK    3  A    between atoms: C_5  and  C_6
REMARK    4  A    between atoms: C_9  and  C_10
REMARK    5  A    between atoms: C_21  and  C_22
REMARK                            x       y       z     vdW  Elec       q    Type
REMARK                         _______ _______ _______ _____ _____    ______ ____
ROOT
ATOM      1  C   UNL     1       1.915   8.047  19.433  0.00  0.00    +0.000 A 
ATOM      2  C   UNL     1       2.052   8.541  18.158  0.00  0.00    +0.000 A 
ATOM      3  O   UNL     1       1.114   9.514  17.982  0.00  0.00    +0.000 OA
ATOM      4  C   UNL     1       0.442   9.566  19.180  0.00  0.00    +0.000 A 
ATOM      5  N   UNL     1       0.904   8.722  20.078  0.00  0.00    +0.000 NA
ENDROOT
BRANCH   4   6
ATOM      6  C   UNL     1      -0.658  10.524  19.275  0.00  0.00    +0.000 A 
ATOM      7  C   UNL     1      -0.681  11.398  20.380  0.00  0.00    +0.000 A 
ATOM      8  C   UNL     1      -1.701  12.327  20.537  0.00  0.00    +0.000 A 
ATOM      9  C   UNL     1      -2.714  12.400  19.589  0.00  0.00    +0.000 A 
ATOM     10  C   UNL     1      -2.731  11.546  18.477  0.00  0.00    +0.000 A 
ATOM     11  C   UNL     1      -3.771  11.653  17.536  0.00  0.00    +0.000 A 
ATOM     12  C   UNL     1      -3.822  10.825  16.417  0.00  0.00    +0.000 A 
ATOM     13  C   UNL     1      -2.831   9.878  16.221  0.00  0.00    +0.000 A 
ATOM     14  C   UNL     1      -1.788   9.763  17.144  0.00  0.00    +0.000 A 
ATOM     15  C   UNL     1      -1.703  10.584  18.300  0.00  0.00    +0.000 A 
ENDBRANCH   4   6
BRANCH   1  16
ATOM     16  C   UNL     1       2.676   7.001  20.144  0.00  0.00    +0.000 C 
BRANCH  16  20
ATOM     17  C   UNL     1       1.116   2.490  18.583  0.00  0.00    +0.000 C 
ATOM     18  C   UNL     1       1.898   3.715  18.864  0.00  0.00    +0.000 A 
ATOM     19  C   UNL     1       1.524   4.821  19.584  0.00  0.00    +0.000 A 
ATOM     20  N   UNL     1       2.599   5.672  19.552  0.00  0.00    +0.000 N 
ATOM     21  C   UNL     1       3.608   5.057  18.816  0.00  0.00    +0.000 A 
ATOM     22  N   UNL     1       3.174   3.879  18.385  0.00  0.00    +0.000 NA
BRANCH  21  23
ATOM     23  C   UNL     1       4.920   5.636  18.459  0.00  0.00    +0.000 A 
ATOM     24  C   UNL     1       5.117   6.519  17.387  0.00  0.00    +0.000 A 
ATOM     25  C   UNL     1       6.395   6.948  17.020  0.00  0.00    +0.000 A 
ATOM     26  C   UNL     1       7.499   6.555  17.765  0.00  0.00    +0.000 A 
ATOM     27  C   UNL     1       7.322   5.747  18.884  0.00  0.00    +0.000 A 
ATOM     28  C   UNL     1       6.044   5.288  19.225  0.00  0.00    +0.000 A 
ENDBRANCH  21  23
ENDBRANCH  16  20
ENDBRANCH   1  16
TORSDOF 4
ENDMDL
