MODEL 1
REMARK VINA RESULT:      -7.6      0.000      0.000
REMARK  Name = 
REMARK  6 active torsions:
REMARK  status: ('A' for Active; 'I' for Inactive)
REMARK    1  A    between atoms: C_1  and  C_2
REMARK    2  A    between atoms: C_2  and  O_3
REMARK    3  A    between atoms: O_3  and  C_4
REMARK    4  A    between atoms: C_4  and  C_5
REMARK    5  A    between atoms: C_9  and  C_11
REMARK    6  A    between atoms: C_17  and  C_19
REMARK                            x       y       z     vdW  Elec       q    Type
REMARK                         _______ _______ _______ _____ _____    ______ ____
ROOT
ATOM      1  C   UNL     1       3.959   5.022  19.782  0.00  0.00    +0.000 C 
ATOM      2  C   UNL     1       3.365   3.616  19.876  0.00  0.00    +0.000 C 
ATOM      3  C   UNL     1       2.112   3.451  20.711  0.00  0.00    +0.000 C 
ATOM      4  C   UNL     1       1.091   4.491  20.334  0.00  0.00    +0.000 C 
ATOM      5  C   UNL     1       1.700   5.878  20.449  0.00  0.00    +0.000 C 
ATOM      6  N   UNL     1       2.873   6.034  19.579  0.00  0.00    +0.000 N 
ATOM      7  C   UNL     1       2.980   7.082  18.643  0.00  0.00    +0.000 C 
ATOM      8  O   UNL     1       3.766   7.006  17.700  0.00  0.00    +0.000 OA
ENDROOT
BRANCH   1  13
ATOM      9  C   UNL     1       6.767   4.073  15.720  0.00  0.00    +0.000 C 
ATOM     10  C   UNL     1       5.563   3.166  15.908  0.00  0.00    +0.000 C 
ATOM     11  C   UNL     1       4.634   4.030  16.738  0.00  0.00    +0.000 C 
ATOM     12  N   UNL     1       5.524   4.677  17.693  0.00  0.00    +0.000 N 
ATOM     13  C   UNL     1       5.351   5.112  19.008  0.00  0.00    +0.000 C 
ATOM     14  O   UNL     1       6.341   5.503  19.645  0.00  0.00    +0.000 OA
ATOM     15  C   UNL     1       6.843   4.833  17.061  0.00  0.00    +0.000 C 
BRANCH   9  16
ATOM     16  C   UNL     1       6.537   4.980  14.512  0.00  0.00    +0.000 C 
BRANCH  16  17
ATOM     17  O   UNL     1       5.745   4.289  13.558  0.00  0.00    +0.000 OA
BRANCH  17  19
ATOM     18  C   UNL     1       5.943   2.566  11.940  0.00  0.00    +0.000 C 
ATOM     19  C   UNL     1       6.537   3.858  12.454  0.00  0.00    +0.000 C 
ENDBRANCH  17  19
ENDBRANCH  16  17
ENDBRANCH   9  16
ENDBRANCH   1  13
BRANCH   7  20
ATOM     20  C   UNL     1       2.067   8.227  18.749  0.00  0.00    +0.000 A 
ATOM     21  C   UNL     1       1.460   8.986  17.761  0.00  0.00    +0.000 A 
ATOM     22  C   UNL     1       0.564   9.875  18.407  0.00  0.00    +0.000 A 
ATOM     23  C   UNL     1       0.729   9.669  19.754  0.00  0.00    +0.000 A 
ATOM     24  O   UNL     1       1.684   8.731  19.971  0.00  0.00    +0.000 OA
ENDBRANCH   7  20
TORSDOF 5
ENDMDL
MODEL 2
REMARK VINA RESULT:      -7.2      0.849      1.094
REMARK  Name = 
REMARK  6 active torsions:
REMARK  status: ('A' for Active; 'I' for Inactive)
REMARK    1  A    between atoms: C_1  and  C_2
REMARK    2  A    between atoms: C_2  and  O_3
REMARK    3  A    between atoms: O_3  and  C_4
REMARK    4  A    between atoms: C_4  and  C_5
REMARK    5  A    between atoms: C_9  and  C_11
REMARK    6  A    between atoms: C_17  and  C_19
REMARK                            x       y       z     vdW  Elec       q    Type
REMARK                         _______ _______ _______ _____ _____    ______ ____
ROOT
ATOM      1  C   UNL     1       3.822   4.471  19.876  0.00  0.00    +0.000 C 
ATOM      2  C   UNL     1       3.209   3.082  19.692  0.00  0.00    +0.000 C 
ATOM      3  C   UNL     1       1.992   2.748  20.529  0.00  0.00    +0.000 C 
ATOM      4  C   UNL     1       0.973   3.852  20.435  0.00  0.00    +0.000 C 
ATOM      5  C   UNL     1       1.609   5.177  20.818  0.00  0.00    +0.000 C 
ATOM      6  N   UNL     1       2.744   5.510  19.948  0.00  0.00    +0.000 N 
ATOM      7  C   UNL     1       2.827   6.735  19.257  0.00  0.00    +0.000 C 
ATOM      8  O   UNL     1       3.569   6.861  18.285  0.00  0.00    +0.000 OA
ENDROOT
BRANCH   1  13
ATOM      9  C   UNL     1       6.528   4.117  15.653  0.00  0.00    +0.000 C 
ATOM     10  C   UNL     1       5.378   3.133  15.776  0.00  0.00    +0.000 C 
ATOM     11  C   UNL     1       4.437   3.852  16.723  0.00  0.00    +0.000 C 
ATOM     12  N   UNL     1       5.327   4.438  17.717  0.00  0.00    +0.000 N 
ATOM     13  C   UNL     1       5.180   4.718  19.076  0.00  0.00    +0.000 C 
ATOM     14  O   UNL     1       6.171   5.089  19.723  0.00  0.00    +0.000 OA
ATOM     15  C   UNL     1       6.613   4.731  17.067  0.00  0.00    +0.000 C 
BRANCH   9  16
ATOM     16  C   UNL     1       6.210   5.136  14.560  0.00  0.00    +0.000 C 
BRANCH  16  17
ATOM     17  O   UNL     1       7.256   5.129  13.601  0.00  0.00    +0.000 OA
BRANCH  17  19
ATOM     18  C   UNL     1       5.751   3.869  12.269  0.00  0.00    +0.000 C 
ATOM     19  C   UNL     1       7.175   3.978  12.765  0.00  0.00    +0.000 C 
ENDBRANCH  17  19
ENDBRANCH  16  17
ENDBRANCH   9  16
ENDBRANCH   1  13
BRANCH   7  20
ATOM     20  C   UNL     1       1.939   7.836  19.651  0.00  0.00    +0.000 A 
ATOM     21  C   UNL     1       1.423   8.173  20.893  0.00  0.00    +0.000 A 
ATOM     22  C   UNL     1       0.742   9.408  20.742  0.00  0.00    +0.000 A 
ATOM     23  C   UNL     1       0.810   9.720  19.407  0.00  0.00    +0.000 A 
ATOM     24  O   UNL     1       1.466   8.743  18.731  0.00  0.00    +0.000 OA
ENDBRANCH   7  20
TORSDOF 5
ENDMDL
MODEL 3
REMARK VINA RESULT:      -6.9      1.922      7.015
REMARK  Name = 
REMARK  6 active torsions:
REMARK  status: ('A' for Active; 'I' for Inactive)
REMARK    1  A    between atoms: C_1  and  C_2
REMARK    2  A    between atoms: C_2  and  O_3
REMARK    3  A    between atoms: O_3  and  C_4
REMARK    4  A    between atoms: C_4  and  C_5
REMARK    5  A    between atoms: C_9  and  C_11
REMARK    6  A    between atoms: C_17  and  C_19
REMARK                            x       y       z     vdW  Elec       q    Type
REMARK                         _______ _______ _______ _____ _____    ______ ____
ROOT
ATOM      1  C   UNL     1       1.964   4.773  18.819  0.00  0.00    +0.000 C 
ATOM      2  C   UNL     1       1.448   3.506  19.501  0.00  0.00    +0.000 C 
ATOM      3  C   UNL     1       1.345   2.256  18.652  0.00  0.00    +0.000 C 
ATOM      4  C   UNL     1       2.627   2.031  17.896  0.00  0.00    +0.000 C 
ATOM      5  C   UNL     1       2.976   3.270  17.089  0.00  0.00    +0.000 C 
ATOM      6  N   UNL     1       3.137   4.453  17.943  0.00  0.00    +0.000 N 
ATOM      7  C   UNL     1       4.300   5.246  17.916  0.00  0.00    +0.000 C 
ATOM      8  O   UNL     1       4.574   5.995  18.853  0.00  0.00    +0.000 OA
ENDROOT
BRANCH   1  13
ATOM      9  C   UNL     1       1.643   9.774  19.238  0.00  0.00    +0.000 C 
ATOM     10  C   UNL     1       2.150   9.261  17.901  0.00  0.00    +0.000 C 
ATOM     11  C   UNL     1       1.555   7.869  17.841  0.00  0.00    +0.000 C 
ATOM     12  N   UNL     1       1.713   7.366  19.200  0.00  0.00    +0.000 N 
ATOM     13  C   UNL     1       1.919   6.088  19.721  0.00  0.00    +0.000 C 
ATOM     14  O   UNL     1       2.170   5.967  20.930  0.00  0.00    +0.000 OA
ATOM     15  C   UNL     1       1.658   8.509  20.123  0.00  0.00    +0.000 C 
BRANCH   9  16
ATOM     16  C   UNL     1       0.252  10.379  19.056  0.00  0.00    +0.000 C 
BRANCH  16  17
ATOM     17  O   UNL     1      -0.549  10.045  20.179  0.00  0.00    +0.000 OA
BRANCH  17  19
ATOM     18  C   UNL     1      -0.583  10.705  22.457  0.00  0.00    +0.000 C 
ATOM     19  C   UNL     1      -0.737  11.174  21.028  0.00  0.00    +0.000 C 
ENDBRANCH  17  19
ENDBRANCH  16  17
ENDBRANCH   9  16
ENDBRANCH   1  13
BRANCH   7  20
ATOM     20  C   UNL     1       5.239   5.096  16.797  0.00  0.00    +0.000 A 
ATOM     21  C   UNL     1       5.319   5.780  15.595  0.00  0.00    +0.000 A 
ATOM     22  C   UNL     1       6.498   5.341  14.940  0.00  0.00    +0.000 A 
ATOM     23  C   UNL     1       7.031   4.358  15.737  0.00  0.00    +0.000 A 
ATOM     24  O   UNL     1       6.241   4.153  16.821  0.00  0.00    +0.000 OA
ENDBRANCH   7  20
TORSDOF 5
ENDMDL
MODEL 4
REMARK VINA RESULT:      -6.9      2.036      6.884
REMARK  Name = 
REMARK  6 active torsions:
REMARK  status: ('A' for Active; 'I' for Inactive)
REMARK    1  A    between atoms: C_1  and  C_2
REMARK    2  A    between atoms: C_2  and  O_3
REMARK    3  A    between atoms: O_3  and  C_4
REMARK    4  A    between atoms: C_4  and  C_5
REMARK    5  A    between atoms: C_9  and  C_11
REMARK    6  A    between atoms: C_17  and  C_19
REMARK                            x       y       z     vdW  Elec       q    Type
REMARK                         _______ _______ _______ _____ _____    ______ ____
ROOT
ATOM      1  C   UNL     1       2.020   4.666  19.011  0.00  0.00    +0.000 C 
ATOM      2  C   UNL     1       1.457   3.423  19.703  0.00  0.00    +0.000 C 
ATOM      3  C   UNL     1       1.482   2.126  18.921  0.00  0.00    +0.000 C 
ATOM      4  C   UNL     1       2.848   1.897  18.332  0.00  0.00    +0.000 C 
ATOM      5  C   UNL     1       3.261   3.099  17.500  0.00  0.00    +0.000 C 
ATOM      6  N   UNL     1       3.294   4.331  18.297  0.00  0.00    +0.000 N 
ATOM      7  C   UNL     1       4.435   5.156  18.358  0.00  0.00    +0.000 C 
ATOM      8  O   UNL     1       4.580   5.962  19.274  0.00  0.00    +0.000 OA
ENDROOT
BRANCH   1  13
ATOM      9  C   UNL     1       1.625   9.677  19.105  0.00  0.00    +0.000 C 
ATOM     10  C   UNL     1       2.322   9.100  17.885  0.00  0.00    +0.000 C 
ATOM     11  C   UNL     1       1.746   7.699  17.817  0.00  0.00    +0.000 C 
ATOM     12  N   UNL     1       1.708   7.272  19.209  0.00  0.00    +0.000 N 
ATOM     13  C   UNL     1       1.840   6.026  19.824  0.00  0.00    +0.000 C 
ATOM     14  O   UNL     1       1.915   5.973  21.061  0.00  0.00    +0.000 OA
ATOM     15  C   UNL     1       1.517   8.463  20.051  0.00  0.00    +0.000 C 
BRANCH   9  16
ATOM     16  C   UNL     1       0.273  10.256  18.692  0.00  0.00    +0.000 C 
BRANCH  16  17
ATOM     17  O   UNL     1      -0.599  10.241  19.811  0.00  0.00    +0.000 OA
BRANCH  17  19
ATOM     18  C   UNL     1      -1.240  12.198  18.633  0.00  0.00    +0.000 C 
ATOM     19  C   UNL     1      -1.243  11.502  19.975  0.00  0.00    +0.000 C 
ENDBRANCH  17  19
ENDBRANCH  16  17
ENDBRANCH   9  16
ENDBRANCH   1  13
BRANCH   7  20
ATOM     20  C   UNL     1       5.501   4.971  17.365  0.00  0.00    +0.000 A 
ATOM     21  C   UNL     1       5.543   5.305  16.020  0.00  0.00    +0.000 A 
ATOM     22  C   UNL     1       6.859   5.041  15.564  0.00  0.00    +0.000 A 
ATOM     23  C   UNL     1       7.527   4.489  16.629  0.00  0.00    +0.000 A 
ATOM     24  O   UNL     1       6.696   4.376  17.695  0.00  0.00    +0.000 OA
ENDBRANCH   7  20
TORSDOF 5
ENDMDL
MODEL 5
REMARK VINA RESULT:      -6.8      1.991      6.755
REMARK  Name = 
REMARK  6 active torsions:
REMARK  status: ('A' for Active; 'I' for Inactive)
REMARK    1  A    between atoms: C_1  and  C_2
REMARK    2  A    between atoms: C_2  and  O_3
REMARK    3  A    between atoms: O_3  and  C_4
REMARK    4  A    between atoms: C_4  and  C_5
REMARK    5  A    between atoms: C_9  and  C_11
REMARK    6  A    between atoms: C_17  and  C_19
REMARK                            x       y       z     vdW  Elec       q    Type
REMARK                         _______ _______ _______ _____ _____    ______ ____
ROOT
ATOM      1  C   UNL     1       1.993   4.686  18.956  0.00  0.00    +0.000 C 
ATOM      2  C   UNL     1       1.464   3.438  19.664  0.00  0.00    +0.000 C 
ATOM      3  C   UNL     1       1.408   2.157  18.857  0.00  0.00    +0.000 C 
ATOM      4  C   UNL     1       2.721   1.920  18.160  0.00  0.00    +0.000 C 
ATOM      5  C   UNL     1       3.088   3.133  17.323  0.00  0.00    +0.000 C 
ATOM      6  N   UNL     1       3.203   4.348  18.139  0.00  0.00    +0.000 N 
ATOM      7  C   UNL     1       4.358   5.154  18.128  0.00  0.00    +0.000 C 
ATOM      8  O   UNL     1       4.587   5.939  19.046  0.00  0.00    +0.000 OA
ENDROOT
BRANCH   1  13
ATOM      9  C   UNL     1       1.675   9.699  19.178  0.00  0.00    +0.000 C 
ATOM     10  C   UNL     1       2.262   9.138  17.895  0.00  0.00    +0.000 C 
ATOM     11  C   UNL     1       1.664   7.746  17.846  0.00  0.00    +0.000 C 
ATOM     12  N   UNL     1       1.733   7.291  19.229  0.00  0.00    +0.000 N 
ATOM     13  C   UNL     1       1.898   6.031  19.807  0.00  0.00    +0.000 C 
ATOM     14  O   UNL     1       2.073   5.952  21.033  0.00  0.00    +0.000 OA
ATOM     15  C   UNL     1       1.627   8.466  20.106  0.00  0.00    +0.000 C 
BRANCH   9  16
ATOM     16  C   UNL     1       0.301  10.302  18.888  0.00  0.00    +0.000 C 
BRANCH  16  17
ATOM     17  O   UNL     1       0.451  11.688  18.621  0.00  0.00    +0.000 OA
BRANCH  17  19
ATOM     18  C   UNL     1       2.081  13.397  18.840  0.00  0.00    +0.000 C 
ATOM     19  C   UNL     1       1.333  12.297  19.559  0.00  0.00    +0.000 C 
ENDBRANCH  17  19
ENDBRANCH  16  17
ENDBRANCH   9  16
ENDBRANCH   1  13
BRANCH   7  20
ATOM     20  C   UNL     1       5.341   4.975  17.052  0.00  0.00    +0.000 A 
ATOM     21  C   UNL     1       5.277   5.317  15.711  0.00  0.00    +0.000 A 
ATOM     22  C   UNL     1       6.553   5.055  15.150  0.00  0.00    +0.000 A 
ATOM     23  C   UNL     1       7.302   4.494  16.155  0.00  0.00    +0.000 A 
ATOM     24  O   UNL     1       6.558   4.375  17.283  0.00  0.00    +0.000 OA
ENDBRANCH   7  20
TORSDOF 5
ENDMDL
MODEL 6
REMARK VINA RESULT:      -6.8      1.697      2.522
REMARK  Name = 
REMARK  6 active torsions:
REMARK  status: ('A' for Active; 'I' for Inactive)
REMARK    1  A    between atoms: C_1  and  C_2
REMARK    2  A    between atoms: C_2  and  O_3
REMARK    3  A    between atoms: O_3  and  C_4
REMARK    4  A    between atoms: C_4  and  C_5
REMARK    5  A    between atoms: C_9  and  C_11
REMARK    6  A    between atoms: C_17  and  C_19
REMARK                            x       y       z     vdW  Elec       q    Type
REMARK                         _______ _______ _______ _____ _____    ______ ____
ROOT
ATOM      1  C   UNL     1       3.434   3.925  19.779  0.00  0.00    +0.000 C 
ATOM      2  C   UNL     1       2.743   2.699  19.180  0.00  0.00    +0.000 C 
ATOM      3  C   UNL     1       1.348   2.380  19.676  0.00  0.00    +0.000 C 
ATOM      4  C   UNL     1       0.485   3.612  19.638  0.00  0.00    +0.000 C 
ATOM      5  C   UNL     1       1.149   4.734  20.418  0.00  0.00    +0.000 C 
ATOM      6  N   UNL     1       2.471   5.070  19.875  0.00  0.00    +0.000 N 
ATOM      7  C   UNL     1       2.818   6.383  19.500  0.00  0.00    +0.000 C 
ATOM      8  O   UNL     1       3.760   6.592  18.738  0.00  0.00    +0.000 OA
ENDROOT
BRANCH   1  13
ATOM      9  C   UNL     1       6.891   4.305  16.148  0.00  0.00    +0.000 C 
ATOM     10  C   UNL     1       5.621   3.563  15.766  0.00  0.00    +0.000 C 
ATOM     11  C   UNL     1       4.606   4.141  16.732  0.00  0.00    +0.000 C 
ATOM     12  N   UNL     1       5.338   4.235  17.989  0.00  0.00    +0.000 N 
ATOM     13  C   UNL     1       4.949   4.131  19.325  0.00  0.00    +0.000 C 
ATOM     14  O   UNL     1       5.823   4.105  20.204  0.00  0.00    +0.000 OA
ATOM     15  C   UNL     1       6.759   4.455  17.679  0.00  0.00    +0.000 C 
BRANCH   9  16
ATOM     16  C   UNL     1       6.944   5.638  15.403  0.00  0.00    +0.000 C 
BRANCH  16  17
ATOM     17  O   UNL     1       7.767   6.540  16.126  0.00  0.00    +0.000 OA
BRANCH  17  19
ATOM     18  C   UNL     1       7.935   8.227  17.786  0.00  0.00    +0.000 C 
ATOM     19  C   UNL     1       6.984   7.389  16.962  0.00  0.00    +0.000 C 
ENDBRANCH  17  19
ENDBRANCH  16  17
ENDBRANCH   9  16
ENDBRANCH   1  13
BRANCH   7  20
ATOM     20  C   UNL     1       1.977   7.498  19.953  0.00  0.00    +0.000 A 
ATOM     21  C   UNL     1       1.523   8.615  19.270  0.00  0.00    +0.000 A 
ATOM     22  C   UNL     1       0.627   9.297  20.131  0.00  0.00    +0.000 A 
ATOM     23  C   UNL     1       0.642   8.609  21.319  0.00  0.00    +0.000 A 
ATOM     24  O   UNL     1       1.508   7.566  21.244  0.00  0.00    +0.000 OA
ENDBRANCH   7  20
TORSDOF 5
ENDMDL
MODEL 7
REMARK VINA RESULT:      -6.5      1.622      3.742
REMARK  Name = 
REMARK  6 active torsions:
REMARK  status: ('A' for Active; 'I' for Inactive)
REMARK    1  A    between atoms: C_1  and  C_2
REMARK    2  A    between atoms: C_2  and  O_3
REMARK    3  A    between atoms: O_3  and  C_4
REMARK    4  A    between atoms: C_4  and  C_5
REMARK    5  A    between atoms: C_9  and  C_11
REMARK    6  A    between atoms: C_17  and  C_19
REMARK                            x       y       z     vdW  Elec       q    Type
REMARK                         _______ _______ _______ _____ _____    ______ ____
ROOT
ATOM      1  C   UNL     1       3.701   7.021  17.614  0.00  0.00    +0.000 C 
ATOM      2  C   UNL     1       3.386   8.504  17.813  0.00  0.00    +0.000 C 
ATOM      3  C   UNL     1       1.970   8.861  18.215  0.00  0.00    +0.000 C 
ATOM      4  C   UNL     1       1.524   8.010  19.374  0.00  0.00    +0.000 C 
ATOM      5  C   UNL     1       1.689   6.539  19.029  0.00  0.00    +0.000 C 
ATOM      6  N   UNL     1       3.082   6.205  18.709  0.00  0.00    +0.000 N 
ATOM      7  C   UNL     1       3.776   5.169  19.365  0.00  0.00    +0.000 C 
ATOM      8  O   UNL     1       5.005   5.128  19.354  0.00  0.00    +0.000 OA
ENDROOT
BRANCH   1  13
ATOM      9  C   UNL     1       6.875   4.062  15.073  0.00  0.00    +0.000 C 
ATOM     10  C   UNL     1       5.641   3.372  15.628  0.00  0.00    +0.000 C 
ATOM     11  C   UNL     1       4.652   4.516  15.736  0.00  0.00    +0.000 C 
ATOM     12  N   UNL     1       5.456   5.622  16.238  0.00  0.00    +0.000 N 
ATOM     13  C   UNL     1       5.164   6.714  17.057  0.00  0.00    +0.000 C 
ATOM     14  O   UNL     1       6.094   7.434  17.452  0.00  0.00    +0.000 OA
ATOM     15  C   UNL     1       6.834   5.447  15.753  0.00  0.00    +0.000 C 
BRANCH   9  16
ATOM     16  C   UNL     1       6.782   4.124  13.550  0.00  0.00    +0.000 C 
BRANCH  16  17
ATOM     17  O   UNL     1       5.486   3.709  13.147  0.00  0.00    +0.000 OA
BRANCH  17  19
ATOM     18  C   UNL     1       4.147   3.200  11.256  0.00  0.00    +0.000 C 
ATOM     19  C   UNL     1       5.525   3.083  11.867  0.00  0.00    +0.000 C 
ENDBRANCH  17  19
ENDBRANCH  16  17
ENDBRANCH   9  16
ENDBRANCH   1  13
BRANCH   7  20
ATOM     20  C   UNL     1       3.015   4.189  20.150  0.00  0.00    +0.000 A 
ATOM     21  C   UNL     1       2.539   4.254  21.450  0.00  0.00    +0.000 A 
ATOM     22  C   UNL     1       1.746   3.098  21.664  0.00  0.00    +0.000 A 
ATOM     23  C   UNL     1       1.843   2.352  20.516  0.00  0.00    +0.000 A 
ATOM     24  O   UNL     1       2.664   2.966  19.627  0.00  0.00    +0.000 OA
ENDBRANCH   7  20
TORSDOF 5
ENDMDL
MODEL 8
REMARK VINA RESULT:      -6.5      3.998      8.868
REMARK  Name = 
REMARK  6 active torsions:
REMARK  status: ('A' for Active; 'I' for Inactive)
REMARK    1  A    between atoms: C_1  and  C_2
REMARK    2  A    between atoms: C_2  and  O_3
REMARK    3  A    between atoms: O_3  and  C_4
REMARK    4  A    between atoms: C_4  and  C_5
REMARK    5  A    between atoms: C_9  and  C_11
REMARK    6  A    between atoms: C_17  and  C_19
REMARK                            x       y       z     vdW  Elec       q    Type
REMARK                         _______ _______ _______ _____ _____    ______ ____
ROOT
ATOM      1  C   UNL     1      -0.491  10.223  20.510  0.00  0.00    +0.000 C 
ATOM      2  C   UNL     1      -0.385  10.806  21.920  0.00  0.00    +0.000 C 
ATOM      3  C   UNL     1      -0.027   9.849  23.038  0.00  0.00    +0.000 C 
ATOM      4  C   UNL     1       1.172   9.024  22.657  0.00  0.00    +0.000 C 
ATOM      5  C   UNL     1       0.917   8.321  21.335  0.00  0.00    +0.000 C 
ATOM      6  N   UNL     1       0.640   9.274  20.253  0.00  0.00    +0.000 N 
ATOM      7  C   UNL     1       1.367   9.272  19.046  0.00  0.00    +0.000 C 
ATOM      8  O   UNL     1       1.378  10.262  18.316  0.00  0.00    +0.000 OA
ENDROOT
BRANCH   1  13
ATOM      9  C   UNL     1      -2.981  11.136  16.238  0.00  0.00    +0.000 C 
ATOM     10  C   UNL     1      -2.480   9.713  16.411  0.00  0.00    +0.000 C 
ATOM     11  C   UNL     1      -2.383   9.584  17.918  0.00  0.00    +0.000 C 
ATOM     12  N   UNL     1      -1.835  10.867  18.340  0.00  0.00    +0.000 N 
ATOM     13  C   UNL     1      -1.006  11.244  19.398  0.00  0.00    +0.000 C 
ATOM     14  O   UNL     1      -0.569  12.404  19.433  0.00  0.00    +0.000 OA
ATOM     15  C   UNL     1      -2.278  11.893  17.385  0.00  0.00    +0.000 C 
BRANCH   9  16
ATOM     16  C   UNL     1      -4.506  11.154  16.336  0.00  0.00    +0.000 C 
BRANCH  16  17
ATOM     17  O   UNL     1      -4.903  12.205  17.202  0.00  0.00    +0.000 OA
BRANCH  17  19
ATOM     18  C   UNL     1      -6.202  10.676  18.468  0.00  0.00    +0.000 C 
ATOM     19  C   UNL     1      -6.217  11.983  17.707  0.00  0.00    +0.000 C 
ENDBRANCH  17  19
ENDBRANCH  16  17
ENDBRANCH   9  16
ENDBRANCH   1  13
BRANCH   7  20
ATOM     20  C   UNL     1       2.196   8.106  18.716  0.00  0.00    +0.000 A 
ATOM     21  C   UNL     1       3.029   7.875  17.632  0.00  0.00    +0.000 A 
ATOM     22  C   UNL     1       3.704   6.653  17.877  0.00  0.00    +0.000 A 
ATOM     23  C   UNL     1       3.193   6.164  19.053  0.00  0.00    +0.000 A 
ATOM     24  O   UNL     1       2.233   6.997  19.528  0.00  0.00    +0.000 OA
ENDBRANCH   7  20
TORSDOF 5
ENDMDL
MODEL 9
REMARK VINA RESULT:      -6.4      1.300      1.471
REMARK  Name = 
REMARK  6 active torsions:
REMARK  status: ('A' for Active; 'I' for Inactive)
REMARK    1  A    between atoms: C_1  and  C_2
REMARK    2  A    between atoms: C_2  and  O_3
REMARK    3  A    between atoms: O_3  and  C_4
REMARK    4  A    between atoms: C_4  and  C_5
REMARK    5  A    between atoms: C_9  and  C_11
REMARK    6  A    between atoms: C_17  and  C_19
REMARK                            x       y       z     vdW  Elec       q    Type
REMARK                         _______ _______ _______ _____ _____    ______ ____
ROOT
ATOM      1  C   UNL     1       4.237   6.136  18.770  0.00  0.00    +0.000 C 
ATOM      2  C   UNL     1       3.825   4.723  19.184  0.00  0.00    +0.000 C 
ATOM      3  C   UNL     1       2.880   4.596  20.362  0.00  0.00    +0.000 C 
ATOM      4  C   UNL     1       1.704   5.521  20.191  0.00  0.00    +0.000 C 
ATOM      5  C   UNL     1       2.192   6.943  19.973  0.00  0.00    +0.000 C 
ATOM      6  N   UNL     1       3.050   7.051  18.787  0.00  0.00    +0.000 N 
ATOM      7  C   UNL     1       2.791   7.974  17.754  0.00  0.00    +0.000 C 
ATOM      8  O   UNL     1       3.281   7.822  16.637  0.00  0.00    +0.000 OA
ENDROOT
BRANCH   1  13
ATOM      9  C   UNL     1       6.445   4.141  14.717  0.00  0.00    +0.000 C 
ATOM     10  C   UNL     1       5.719   3.156  15.617  0.00  0.00    +0.000 C 
ATOM     11  C   UNL     1       4.694   4.038  16.301  0.00  0.00    +0.000 C 
ATOM     12  N   UNL     1       5.430   5.262  16.592  0.00  0.00    +0.000 N 
ATOM     13  C   UNL     1       5.339   6.204  17.618  0.00  0.00    +0.000 C 
ATOM     14  O   UNL     1       6.206   7.087  17.700  0.00  0.00    +0.000 OA
ATOM     15  C   UNL     1       6.464   5.434  15.561  0.00  0.00    +0.000 C 
BRANCH   9  16
ATOM     16  C   UNL     1       5.688   4.280  13.398  0.00  0.00    +0.000 C 
BRANCH  16  17
ATOM     17  O   UNL     1       6.358   3.529  12.397  0.00  0.00    +0.000 OA
BRANCH  17  19
ATOM     18  C   UNL     1       4.215   3.259  11.416  0.00  0.00    +0.000 C 
ATOM     19  C   UNL     1       5.490   2.556  11.821  0.00  0.00    +0.000 C 
ENDBRANCH  17  19
ENDBRANCH  16  17
ENDBRANCH   9  16
ENDBRANCH   1  13
BRANCH   7  20
ATOM     20  C   UNL     1       1.846   9.070  17.999  0.00  0.00    +0.000 A 
ATOM     21  C   UNL     1       0.486   9.157  17.747  0.00  0.00    +0.000 A 
ATOM     22  C   UNL     1       0.032  10.377  18.309  0.00  0.00    +0.000 A 
ATOM     23  C   UNL     1       1.147  11.006  18.803  0.00  0.00    +0.000 A 
ATOM     24  O   UNL     1       2.254  10.260  18.557  0.00  0.00    +0.000 OA
ENDBRANCH   7  20
TORSDOF 5
ENDMDL
