MODEL 1
REMARK VINA RESULT:      -8.7      0.000      0.000
REMARK  Name = 
REMARK  6 active torsions:
REMARK  status: ('A' for Active; 'I' for Inactive)
REMARK    1  A    between atoms: N_1  and  C_2
REMARK    2  A    between atoms: C_4  and  O_5
REMARK    3  A    between atoms: C_10  and  S_11
REMARK    4  A    between atoms: S_11  and  C_12
REMARK    5  A    between atoms: C_12  and  C_13
REMARK    6  A    between atoms: N_15  and  C_16
REMARK                            x       y       z     vdW  Elec       q    Type
REMARK                         _______ _______ _______ _____ _____    ______ ____
ROOT
ATOM      1  S   UNL     1       3.720   3.274  19.561  0.00  0.00    +0.000 S 
ENDROOT
BRANCH   1   9
ATOM      2  C   UNL     1       5.020   4.031  16.445  0.00  0.00    +0.000 A 
ATOM      3  C   UNL     1       5.724   4.423  15.358  0.00  0.00    +0.000 A 
ATOM      4  C   UNL     1       6.989   5.129  15.629  0.00  0.00    +0.000 A 
ATOM      5  N   UNL     1       7.505   5.404  16.775  0.00  0.00    +0.000 NA
ATOM      6  C   UNL     1       6.798   4.982  17.860  0.00  0.00    +0.000 A 
ATOM      7  N   UNL     1       7.077   5.119  19.134  0.00  0.00    +0.000 NA
ATOM      8  N   UNL     1       6.073   4.555  19.871  0.00  0.00    +0.000 NA
ATOM      9  C   UNL     1       5.178   4.067  19.039  0.00  0.00    +0.000 A 
ATOM     10  N   UNL     1       5.565   4.313  17.728  0.00  0.00    +0.000 N 
BRANCH   2  11
ATOM     11  N   UNL     1       3.813   3.370  16.304  0.00  0.00    +0.000 N 
ATOM     12  H   UNL     1       3.717   2.510  16.839  0.00  0.00    +0.000 HD
ATOM     13  H   UNL     1       3.493   3.266  15.341  0.00  0.00    +0.000 HD
ENDBRANCH   2  11
BRANCH   4  14
ATOM     14  O   UNL     1       7.627   5.523  14.509  0.00  0.00    +0.000 OA
ATOM     15  H   UNL     1       7.081   6.015  13.878  0.00  0.00    +0.000 HD
ENDBRANCH   4  14
ENDBRANCH   1   9
BRANCH   1  16
ATOM     16  C   UNL     1       2.933   4.624  20.528  0.00  0.00    +0.000 C 
BRANCH  16  17
ATOM     17  C   UNL     1       2.380   5.757  19.651  0.00  0.00    +0.000 C 
ATOM     18  O   UNL     1       1.939   5.584  18.518  0.00  0.00    +0.000 OA
ATOM     19  N   UNL     1       2.432   6.997  20.286  0.00  0.00    +0.000 N 
ATOM     20  H   UNL     1       3.053   7.095  21.079  0.00  0.00    +0.000 HD
BRANCH  19  21
ATOM     21  C   UNL     1       1.818   8.198  19.828  0.00  0.00    +0.000 A 
ATOM     22  C   UNL     1       1.899   8.562  18.478  0.00  0.00    +0.000 A 
ATOM     23  C   UNL     1       1.180   9.655  17.990  0.00  0.00    +0.000 A 
ATOM     24  C   UNL     1       0.359  10.389  18.842  0.00  0.00    +0.000 A 
ATOM     25  C   UNL     1       0.255  10.054  20.198  0.00  0.00    +0.000 A 
ATOM     26  C   UNL     1      -0.592  10.793  21.042  0.00  0.00    +0.000 A 
ATOM     27  C   UNL     1      -0.672  10.509  22.404  0.00  0.00    +0.000 A 
ATOM     28  C   UNL     1       0.125   9.510  22.946  0.00  0.00    +0.000 A 
ATOM     29  C   UNL     1       0.955   8.753  22.115  0.00  0.00    +0.000 A 
ATOM     30  C   UNL     1       1.013   8.970  20.718  0.00  0.00    +0.000 A 
ENDBRANCH  19  21
ENDBRANCH  16  17
ENDBRANCH   1  16
TORSDOF 6
ENDMDL
MODEL 2
REMARK VINA RESULT:      -8.2      2.393      4.755
REMARK  Name = 
REMARK  6 active torsions:
REMARK  status: ('A' for Active; 'I' for Inactive)
REMARK    1  A    between atoms: N_1  and  C_2
REMARK    2  A    between atoms: C_4  and  O_5
REMARK    3  A    between atoms: C_10  and  S_11
REMARK    4  A    between atoms: S_11  and  C_12
REMARK    5  A    between atoms: C_12  and  C_13
REMARK    6  A    between atoms: N_15  and  C_16
REMARK                            x       y       z     vdW  Elec       q    Type
REMARK                         _______ _______ _______ _____ _____    ______ ____
ROOT
ATOM      1  S   UNL     1       4.578   3.784  16.633  0.00  0.00    +0.000 S 
ENDROOT
BRANCH   1   9
ATOM      2  C   UNL     1       3.824   2.850  19.879  0.00  0.00    +0.000 A 
ATOM      3  C   UNL     1       3.288   2.497  21.070  0.00  0.00    +0.000 A 
ATOM      4  C   UNL     1       1.816   2.487  21.137  0.00  0.00    +0.000 A 
ATOM      5  N   UNL     1       0.985   2.762  20.193  0.00  0.00    +0.000 NA
ATOM      6  C   UNL     1       1.539   3.091  18.993  0.00  0.00    +0.000 A 
ATOM      7  N   UNL     1       0.946   3.413  17.869  0.00  0.00    +0.000 NA
ATOM      8  N   UNL     1       1.898   3.684  16.927  0.00  0.00    +0.000 NA
ATOM      9  C   UNL     1       3.081   3.522  17.481  0.00  0.00    +0.000 A 
ATOM     10  N   UNL     1       2.934   3.153  18.812  0.00  0.00    +0.000 N 
BRANCH   2  11
ATOM     11  N   UNL     1       5.196   2.903  19.710  0.00  0.00    +0.000 N 
ATOM     12  H   UNL     1       5.630   3.801  19.906  0.00  0.00    +0.000 HD
ATOM     13  H   UNL     1       5.535   2.488  18.841  0.00  0.00    +0.000 HD
ENDBRANCH   2  11
BRANCH   4  14
ATOM     14  O   UNL     1       1.343   2.160  22.356  0.00  0.00    +0.000 OA
ATOM     15  H   UNL     1       1.103   2.913  22.917  0.00  0.00    +0.000 HD
ENDBRANCH   4  14
ENDBRANCH   1   9
BRANCH   1  16
ATOM     16  C   UNL     1       4.837   5.574  16.959  0.00  0.00    +0.000 C 
BRANCH  16  17
ATOM     17  C   UNL     1       4.233   6.044  18.290  0.00  0.00    +0.000 C 
ATOM     18  O   UNL     1       4.849   6.044  19.352  0.00  0.00    +0.000 OA
ATOM     19  N   UNL     1       2.913   6.473  18.155  0.00  0.00    +0.000 N 
ATOM     20  H   UNL     1       2.404   6.181  17.330  0.00  0.00    +0.000 HD
BRANCH  19  21
ATOM     21  C   UNL     1       2.148   7.151  19.148  0.00  0.00    +0.000 A 
ATOM     22  C   UNL     1       1.776   6.489  20.325  0.00  0.00    +0.000 A 
ATOM     23  C   UNL     1       1.156   7.183  21.366  0.00  0.00    +0.000 A 
ATOM     24  C   UNL     1       0.913   8.550  21.250  0.00  0.00    +0.000 A 
ATOM     25  C   UNL     1       1.271   9.242  20.086  0.00  0.00    +0.000 A 
ATOM     26  C   UNL     1       1.035  10.625  19.989  0.00  0.00    +0.000 A 
ATOM     27  C   UNL     1       1.337  11.324  18.822  0.00  0.00    +0.000 A 
ATOM     28  C   UNL     1       1.838  10.640  17.722  0.00  0.00    +0.000 A 
ATOM     29  C   UNL     1       2.097   9.270  17.811  0.00  0.00    +0.000 A 
ATOM     30  C   UNL     1       1.865   8.541  19.001  0.00  0.00    +0.000 A 
ENDBRANCH  19  21
ENDBRANCH  16  17
ENDBRANCH   1  16
TORSDOF 6
ENDMDL
MODEL 3
REMARK VINA RESULT:      -8.1      6.460      8.550
REMARK  Name = 
REMARK  6 active torsions:
REMARK  status: ('A' for Active; 'I' for Inactive)
REMARK    1  A    between atoms: N_1  and  C_2
REMARK    2  A    between atoms: C_4  and  O_5
REMARK    3  A    between atoms: C_10  and  S_11
REMARK    4  A    between atoms: S_11  and  C_12
REMARK    5  A    between atoms: C_12  and  C_13
REMARK    6  A    between atoms: N_15  and  C_16
REMARK                            x       y       z     vdW  Elec       q    Type
REMARK                         _______ _______ _______ _____ _____    ______ ____
ROOT
ATOM      1  S   UNL     1       9.069   9.774  19.373  0.00  0.00    +0.000 S 
ENDROOT
BRANCH   1   9
ATOM      2  C   UNL     1       9.869  12.721  21.001  0.00  0.00    +0.000 A 
ATOM      3  C   UNL     1      10.263  13.949  21.408  0.00  0.00    +0.000 A 
ATOM      4  C   UNL     1      10.893  14.799  20.382  0.00  0.00    +0.000 A 
ATOM      5  N   UNL     1      11.099  14.512  19.144  0.00  0.00    +0.000 NA
ATOM      6  C   UNL     1      10.675  13.282  18.742  0.00  0.00    +0.000 A 
ATOM      7  N   UNL     1      10.752  12.727  17.556  0.00  0.00    +0.000 NA
ATOM      8  N   UNL     1      10.214  11.472  17.618  0.00  0.00    +0.000 NA
ATOM      9  C   UNL     1       9.803  11.262  18.851  0.00  0.00    +0.000 A 
ATOM     10  N   UNL     1      10.076  12.374  19.637  0.00  0.00    +0.000 N 
BRANCH   2  11
ATOM     11  N   UNL     1       9.277  11.839  21.887  0.00  0.00    +0.000 N 
ATOM     12  H   UNL     1       9.877  11.490  22.630  0.00  0.00    +0.000 HD
ATOM     13  H   UNL     1       8.729  11.097  21.448  0.00  0.00    +0.000 HD
ENDBRANCH   2  11
BRANCH   4  14
ATOM     14  O   UNL     1      11.292  15.995  20.856  0.00  0.00    +0.000 OA
ATOM     15  H   UNL     1      12.169  16.280  20.559  0.00  0.00    +0.000 HD
ENDBRANCH   4  14
ENDBRANCH   1   9
BRANCH   1  16
ATOM     16  C   UNL     1       8.174   9.288  17.844  0.00  0.00    +0.000 C 
BRANCH  16  17
ATOM     17  C   UNL     1       7.777   7.805  17.816  0.00  0.00    +0.000 C 
ATOM     18  O   UNL     1       8.182   6.979  18.630  0.00  0.00    +0.000 OA
ATOM     19  N   UNL     1       6.905   7.505  16.771  0.00  0.00    +0.000 N 
ATOM     20  H   UNL     1       6.849   8.159  16.001  0.00  0.00    +0.000 HD
BRANCH  19  21
ATOM     21  C   UNL     1       6.199   6.280  16.594  0.00  0.00    +0.000 A 
ATOM     22  C   UNL     1       6.836   5.177  16.011  0.00  0.00    +0.000 A 
ATOM     23  C   UNL     1       6.206   3.932  15.967  0.00  0.00    +0.000 A 
ATOM     24  C   UNL     1       4.938   3.769  16.520  0.00  0.00    +0.000 A 
ATOM     25  C   UNL     1       4.272   4.851  17.111  0.00  0.00    +0.000 A 
ATOM     26  C   UNL     1       3.000   4.668  17.681  0.00  0.00    +0.000 A 
ATOM     27  C   UNL     1       2.299   5.740  18.229  0.00  0.00    +0.000 A 
ATOM     28  C   UNL     1       2.843   7.016  18.175  0.00  0.00    +0.000 A 
ATOM     29  C   UNL     1       4.116   7.209  17.632  0.00  0.00    +0.000 A 
ATOM     30  C   UNL     1       4.883   6.134  17.126  0.00  0.00    +0.000 A 
ENDBRANCH  19  21
ENDBRANCH  16  17
ENDBRANCH   1  16
TORSDOF 6
ENDMDL
MODEL 4
REMARK VINA RESULT:      -8.0      4.561      8.252
REMARK  Name = 
REMARK  6 active torsions:
REMARK  status: ('A' for Active; 'I' for Inactive)
REMARK    1  A    between atoms: N_1  and  C_2
REMARK    2  A    between atoms: C_4  and  O_5
REMARK    3  A    between atoms: C_10  and  S_11
REMARK    4  A    between atoms: S_11  and  C_12
REMARK    5  A    between atoms: C_12  and  C_13
REMARK    6  A    between atoms: N_15  and  C_16
REMARK                            x       y       z     vdW  Elec       q    Type
REMARK                         _______ _______ _______ _____ _____    ______ ____
ROOT
ATOM      1  S   UNL     1       0.176  10.546  19.119  0.00  0.00    +0.000 S 
ENDROOT
BRANCH   1   9
ATOM      2  C   UNL     1       2.530  12.998  18.469  0.00  0.00    +0.000 A 
ATOM      3  C   UNL     1       3.390  14.042  18.447  0.00  0.00    +0.000 A 
ATOM      4  C   UNL     1       3.362  14.926  19.626  0.00  0.00    +0.000 A 
ATOM      5  N   UNL     1       2.626  14.812  20.676  0.00  0.00    +0.000 NA
ATOM      6  C   UNL     1       1.783  13.743  20.695  0.00  0.00    +0.000 A 
ATOM      7  N   UNL     1       0.929  13.380  21.621  0.00  0.00    +0.000 NA
ATOM      8  N   UNL     1       0.280  12.250  21.208  0.00  0.00    +0.000 NA
ATOM      9  C   UNL     1       0.745  11.920  20.022  0.00  0.00    +0.000 A 
ATOM     10  N   UNL     1       1.706  12.839  19.618  0.00  0.00    +0.000 N 
BRANCH   2  11
ATOM     11  N   UNL     1       2.466  12.113  17.408  0.00  0.00    +0.000 N 
ATOM     12  H   UNL     1       1.611  11.567  17.341  0.00  0.00    +0.000 HD
ATOM     13  H   UNL     1       3.303  11.544  17.276  0.00  0.00    +0.000 HD
ENDBRANCH   2  11
BRANCH   4  14
ATOM     14  O   UNL     1       4.216  15.964  19.531  0.00  0.00    +0.000 OA
ATOM     15  H   UNL     1       4.436  16.391  20.372  0.00  0.00    +0.000 HD
ENDBRANCH   4  14
ENDBRANCH   1   9
BRANCH   1  16
ATOM     16  C   UNL     1       1.413   9.283  19.618  0.00  0.00    +0.000 C 
BRANCH  16  17
ATOM     17  C   UNL     1       2.024   8.528  18.429  0.00  0.00    +0.000 C 
ATOM     18  O   UNL     1       2.141   9.011  17.307  0.00  0.00    +0.000 OA
ATOM     19  N   UNL     1       2.434   7.239  18.769  0.00  0.00    +0.000 N 
ATOM     20  H   UNL     1       2.053   6.830  19.612  0.00  0.00    +0.000 HD
BRANCH  19  21
ATOM     21  C   UNL     1       3.215   6.367  17.956  0.00  0.00    +0.000 A 
ATOM     22  C   UNL     1       4.356   6.847  17.301  0.00  0.00    +0.000 A 
ATOM     23  C   UNL     1       5.209   5.974  16.624  0.00  0.00    +0.000 A 
ATOM     24  C   UNL     1       4.941   4.607  16.606  0.00  0.00    +0.000 A 
ATOM     25  C   UNL     1       3.808   4.093  17.249  0.00  0.00    +0.000 A 
ATOM     26  C   UNL     1       3.559   2.709  17.238  0.00  0.00    +0.000 A 
ATOM     27  C   UNL     1       2.413   2.182  17.828  0.00  0.00    +0.000 A 
ATOM     28  C   UNL     1       1.479   3.036  18.401  0.00  0.00    +0.000 A 
ATOM     29  C   UNL     1       1.724   4.411  18.439  0.00  0.00    +0.000 A 
ATOM     30  C   UNL     1       2.908   4.975  17.907  0.00  0.00    +0.000 A 
ENDBRANCH  19  21
ENDBRANCH  16  17
ENDBRANCH   1  16
TORSDOF 6
ENDMDL
MODEL 5
REMARK VINA RESULT:      -8.0      4.458      9.365
REMARK  Name = 
REMARK  6 active torsions:
REMARK  status: ('A' for Active; 'I' for Inactive)
REMARK    1  A    between atoms: N_1  and  C_2
REMARK    2  A    between atoms: C_4  and  O_5
REMARK    3  A    between atoms: C_10  and  S_11
REMARK    4  A    between atoms: S_11  and  C_12
REMARK    5  A    between atoms: C_12  and  C_13
REMARK    6  A    between atoms: N_15  and  C_16
REMARK                            x       y       z     vdW  Elec       q    Type
REMARK                         _______ _______ _______ _____ _____    ______ ____
ROOT
ATOM      1  S   UNL     1       0.445  10.855  19.335  0.00  0.00    +0.000 S 
ENDROOT
BRANCH   1   9
ATOM      2  C   UNL     1      -2.538  12.371  20.218  0.00  0.00    +0.000 A 
ATOM      3  C   UNL     1      -3.624  12.927  20.803  0.00  0.00    +0.000 A 
ATOM      4  C   UNL     1      -3.653  12.893  22.276  0.00  0.00    +0.000 A 
ATOM      5  N   UNL     1      -2.761  12.408  23.067  0.00  0.00    +0.000 NA
ATOM      6  C   UNL     1      -1.662  11.875  22.466  0.00  0.00    +0.000 A 
ATOM      7  N   UNL     1      -0.608  11.318  23.013  0.00  0.00    +0.000 NA
ATOM      8  N   UNL     1       0.240  10.906  22.024  0.00  0.00    +0.000 NA
ATOM      9  C   UNL     1      -0.300  11.218  20.865  0.00  0.00    +0.000 A 
ATOM     10  N   UNL     1      -1.530  11.833  21.064  0.00  0.00    +0.000 N 
BRANCH   2  11
ATOM     11  N   UNL     1      -2.415  12.340  18.841  0.00  0.00    +0.000 N 
ATOM     12  H   UNL     1      -3.103  12.882  18.325  0.00  0.00    +0.000 HD
ATOM     13  H   UNL     1      -2.276  11.409  18.446  0.00  0.00    +0.000 HD
ENDBRANCH   2  11
BRANCH   4  14
ATOM     14  O   UNL     1      -4.773  13.431  22.797  0.00  0.00    +0.000 OA
ATOM     15  H   UNL     1      -4.836  13.389  23.763  0.00  0.00    +0.000 HD
ENDBRANCH   4  14
ENDBRANCH   1   9
BRANCH   1  16
ATOM     16  C   UNL     1       1.347   9.312  19.760  0.00  0.00    +0.000 C 
BRANCH  16  17
ATOM     17  C   UNL     1       1.897   8.571  18.533  0.00  0.00    +0.000 C 
ATOM     18  O   UNL     1       1.886   9.038  17.397  0.00  0.00    +0.000 OA
ATOM     19  N   UNL     1       2.412   7.315  18.854  0.00  0.00    +0.000 N 
ATOM     20  H   UNL     1       2.132   6.902  19.734  0.00  0.00    +0.000 HD
BRANCH  19  21
ATOM     21  C   UNL     1       3.170   6.476  17.988  0.00  0.00    +0.000 A 
ATOM     22  C   UNL     1       4.273   6.989  17.294  0.00  0.00    +0.000 A 
ATOM     23  C   UNL     1       5.109   6.145  16.561  0.00  0.00    +0.000 A 
ATOM     24  C   UNL     1       4.863   4.775  16.524  0.00  0.00    +0.000 A 
ATOM     25  C   UNL     1       3.768   4.228  17.205  0.00  0.00    +0.000 A 
ATOM     26  C   UNL     1       3.542   2.840  17.173  0.00  0.00    +0.000 A 
ATOM     27  C   UNL     1       2.431   2.280  17.802  0.00  0.00    +0.000 A 
ATOM     28  C   UNL     1       1.511   3.106  18.434  0.00  0.00    +0.000 A 
ATOM     29  C   UNL     1       1.734   4.484  18.492  0.00  0.00    +0.000 A 
ATOM     30  C   UNL     1       2.884   5.079  17.922  0.00  0.00    +0.000 A 
ENDBRANCH  19  21
ENDBRANCH  16  17
ENDBRANCH   1  16
TORSDOF 6
ENDMDL
MODEL 6
REMARK VINA RESULT:      -7.9      1.120      2.323
REMARK  Name = 
REMARK  6 active torsions:
REMARK  status: ('A' for Active; 'I' for Inactive)
REMARK    1  A    between atoms: N_1  and  C_2
REMARK    2  A    between atoms: C_4  and  O_5
REMARK    3  A    between atoms: C_10  and  S_11
REMARK    4  A    between atoms: S_11  and  C_12
REMARK    5  A    between atoms: C_12  and  C_13
REMARK    6  A    between atoms: N_15  and  C_16
REMARK                            x       y       z     vdW  Elec       q    Type
REMARK                         _______ _______ _______ _____ _____    ______ ____
ROOT
ATOM      1  S   UNL     1       3.795   4.720  19.760  0.00  0.00    +0.000 S 
ENDROOT
BRANCH   1   9
ATOM      2  C   UNL     1       4.926   4.413  16.504  0.00  0.00    +0.000 A 
ATOM      3  C   UNL     1       5.598   4.330  15.333  0.00  0.00    +0.000 A 
ATOM      4  C   UNL     1       7.053   4.554  15.407  0.00  0.00    +0.000 A 
ATOM      5  N   UNL     1       7.757   4.805  16.455  0.00  0.00    +0.000 NA
ATOM      6  C   UNL     1       7.070   4.861  17.630  0.00  0.00    +0.000 A 
ATOM      7  N   UNL     1       7.519   5.096  18.840  0.00  0.00    +0.000 NA
ATOM      8  N   UNL     1       6.469   5.073  19.715  0.00  0.00    +0.000 NA
ATOM      9  C   UNL     1       5.372   4.819  19.032  0.00  0.00    +0.000 A 
ATOM     10  N   UNL     1       5.674   4.683  17.683  0.00  0.00    +0.000 N 
BRANCH   2  11
ATOM     11  N   UNL     1       3.556   4.231  16.546  0.00  0.00    +0.000 N 
ATOM     12  H   UNL     1       3.060   4.775  17.248  0.00  0.00    +0.000 HD
ATOM     13  H   UNL     1       3.254   3.256  16.525  0.00  0.00    +0.000 HD
ENDBRANCH   2  11
BRANCH   4  14
ATOM     14  O   UNL     1       7.661   4.491  14.206  0.00  0.00    +0.000 OA
ATOM     15  H   UNL     1       7.063   4.478  13.444  0.00  0.00    +0.000 HD
ENDBRANCH   4  14
ENDBRANCH   1   9
BRANCH   1  16
ATOM     16  C   UNL     1       3.107   6.358  19.291  0.00  0.00    +0.000 C 
BRANCH  16  17
ATOM     17  C   UNL     1       1.951   6.813  20.194  0.00  0.00    +0.000 C 
ATOM     18  O   UNL     1       1.352   6.062  20.958  0.00  0.00    +0.000 OA
ATOM     19  N   UNL     1       1.665   8.170  20.052  0.00  0.00    +0.000 N 
ATOM     20  H   UNL     1       2.003   8.638  19.221  0.00  0.00    +0.000 HD
BRANCH  19  21
ATOM     21  C   UNL     1       0.797   8.934  20.884  0.00  0.00    +0.000 A 
ATOM     22  C   UNL     1       0.803   8.744  22.272  0.00  0.00    +0.000 A 
ATOM     23  C   UNL     1       0.068   9.586  23.109  0.00  0.00    +0.000 A 
ATOM     24  C   UNL     1      -0.669  10.638  22.572  0.00  0.00    +0.000 A 
ATOM     25  C   UNL     1      -0.697  10.857  21.189  0.00  0.00    +0.000 A 
ATOM     26  C   UNL     1      -1.431  11.934  20.661  0.00  0.00    +0.000 A 
ATOM     27  C   UNL     1      -1.514  12.141  19.286  0.00  0.00    +0.000 A 
ATOM     28  C   UNL     1      -0.899  11.247  18.419  0.00  0.00    +0.000 A 
ATOM     29  C   UNL     1      -0.148  10.185  18.929  0.00  0.00    +0.000 A 
ATOM     30  C   UNL     1       0.012   9.983  20.320  0.00  0.00    +0.000 A 
ENDBRANCH  19  21
ENDBRANCH  16  17
ENDBRANCH   1  16
TORSDOF 6
ENDMDL
MODEL 7
REMARK VINA RESULT:      -7.9      0.934      1.955
REMARK  Name = 
REMARK  6 active torsions:
REMARK  status: ('A' for Active; 'I' for Inactive)
REMARK    1  A    between atoms: N_1  and  C_2
REMARK    2  A    between atoms: C_4  and  O_5
REMARK    3  A    between atoms: C_10  and  S_11
REMARK    4  A    between atoms: S_11  and  C_12
REMARK    5  A    between atoms: C_12  and  C_13
REMARK    6  A    between atoms: N_15  and  C_16
REMARK                            x       y       z     vdW  Elec       q    Type
REMARK                         _______ _______ _______ _____ _____    ______ ____
ROOT
ATOM      1  S   UNL     1       4.128   3.192  20.414  0.00  0.00    +0.000 S 
ENDROOT
BRANCH   1   9
ATOM      2  C   UNL     1       6.322   4.915  18.366  0.00  0.00    +0.000 A 
ATOM      3  C   UNL     1       7.043   5.489  17.375  0.00  0.00    +0.000 A 
ATOM      4  C   UNL     1       6.645   5.136  16.001  0.00  0.00    +0.000 A 
ATOM      5  N   UNL     1       5.687   4.359  15.635  0.00  0.00    +0.000 NA
ATOM      6  C   UNL     1       4.953   3.809  16.642  0.00  0.00    +0.000 A 
ATOM      7  N   UNL     1       3.931   2.991  16.570  0.00  0.00    +0.000 NA
ATOM      8  N   UNL     1       3.519   2.682  17.836  0.00  0.00    +0.000 NA
ATOM      9  C   UNL     1       4.295   3.320  18.687  0.00  0.00    +0.000 A 
ATOM     10  N   UNL     1       5.250   4.056  17.997  0.00  0.00    +0.000 N 
BRANCH   2  11
ATOM     11  N   UNL     1       6.617   5.169  19.693  0.00  0.00    +0.000 N 
ATOM     12  H   UNL     1       6.321   6.076  20.045  0.00  0.00    +0.000 HD
ATOM     13  H   UNL     1       7.572   4.937  19.969  0.00  0.00    +0.000 HD
ENDBRANCH   2  11
BRANCH   4  14
ATOM     14  O   UNL     1       7.420   5.712  15.060  0.00  0.00    +0.000 OA
ATOM     15  H   UNL     1       7.389   6.680  15.041  0.00  0.00    +0.000 HD
ENDBRANCH   4  14
ENDBRANCH   1   9
BRANCH   1  16
ATOM     16  C   UNL     1       2.421   3.838  20.633  0.00  0.00    +0.000 C 
BRANCH  16  17
ATOM     17  C   UNL     1       2.074   4.978  19.665  0.00  0.00    +0.000 C 
ATOM     18  O   UNL     1       1.426   4.819  18.634  0.00  0.00    +0.000 OA
ATOM     19  N   UNL     1       2.570   6.210  20.091  0.00  0.00    +0.000 N 
ATOM     20  H   UNL     1       3.312   6.207  20.779  0.00  0.00    +0.000 HD
BRANCH  19  21
ATOM     21  C   UNL     1       2.250   7.480  19.531  0.00  0.00    +0.000 A 
ATOM     22  C   UNL     1       2.633   7.789  18.220  0.00  0.00    +0.000 A 
ATOM     23  C   UNL     1       2.199   8.968  17.611  0.00  0.00    +0.000 A 
ATOM     24  C   UNL     1       1.365   9.846  18.299  0.00  0.00    +0.000 A 
ATOM     25  C   UNL     1       0.963   9.568  19.612  0.00  0.00    +0.000 A 
ATOM     26  C   UNL     1       0.107  10.455  20.288  0.00  0.00    +0.000 A 
ATOM     27  C   UNL     1      -0.265  10.224  21.611  0.00  0.00    +0.000 A 
ATOM     28  C   UNL     1       0.250   9.126  22.287  0.00  0.00    +0.000 A 
ATOM     29  C   UNL     1       1.085   8.225  21.621  0.00  0.00    +0.000 A 
ATOM     30  C   UNL     1       1.430   8.393  20.259  0.00  0.00    +0.000 A 
ENDBRANCH  19  21
ENDBRANCH  16  17
ENDBRANCH   1  16
TORSDOF 6
ENDMDL
MODEL 8
REMARK VINA RESULT:      -7.9      4.092      8.405
REMARK  Name = 
REMARK  6 active torsions:
REMARK  status: ('A' for Active; 'I' for Inactive)
REMARK    1  A    between atoms: N_1  and  C_2
REMARK    2  A    between atoms: C_4  and  O_5
REMARK    3  A    between atoms: C_10  and  S_11
REMARK    4  A    between atoms: S_11  and  C_12
REMARK    5  A    between atoms: C_12  and  C_13
REMARK    6  A    between atoms: N_15  and  C_16
REMARK                            x       y       z     vdW  Elec       q    Type
REMARK                         _______ _______ _______ _____ _____    ______ ____
ROOT
ATOM      1  S   UNL     1      -0.363   9.032  21.443  0.00  0.00    +0.000 S 
ENDROOT
BRANCH   1   9
ATOM      2  C   UNL     1      -0.534  11.619  19.151  0.00  0.00    +0.000 A 
ATOM      3  C   UNL     1      -0.581  12.780  18.459  0.00  0.00    +0.000 A 
ATOM      4  C   UNL     1      -0.558  14.013  19.265  0.00  0.00    +0.000 A 
ATOM      5  N   UNL     1      -0.487  14.112  20.547  0.00  0.00    +0.000 NA
ATOM      6  C   UNL     1      -0.414  12.936  21.229  0.00  0.00    +0.000 A 
ATOM      7  N   UNL     1      -0.334  12.732  22.522  0.00  0.00    +0.000 NA
ATOM      8  N   UNL     1      -0.301  11.386  22.759  0.00  0.00    +0.000 NA
ATOM      9  C   UNL     1      -0.359  10.765  21.599  0.00  0.00    +0.000 A 
ATOM     10  N   UNL     1      -0.447  11.692  20.568  0.00  0.00    +0.000 N 
BRANCH   2  11
ATOM     11  N   UNL     1      -0.560  10.403  18.492  0.00  0.00    +0.000 N 
ATOM     12  H   UNL     1       0.018   9.670  18.896  0.00  0.00    +0.000 HD
ATOM     13  H   UNL     1      -0.459  10.464  17.479  0.00  0.00    +0.000 HD
ENDBRANCH   2  11
BRANCH   4  14
ATOM     14  O   UNL     1      -0.641  15.135  18.523  0.00  0.00    +0.000 OA
ATOM     15  H   UNL     1      -1.041  15.894  18.971  0.00  0.00    +0.000 HD
ENDBRANCH   4  14
ENDBRANCH   1   9
BRANCH   1  16
ATOM     16  C   UNL     1       1.436   8.712  21.242  0.00  0.00    +0.000 C 
BRANCH  16  17
ATOM     17  C   UNL     1       1.791   8.061  19.898  0.00  0.00    +0.000 C 
ATOM     18  O   UNL     1       1.713   8.645  18.820  0.00  0.00    +0.000 OA
ATOM     19  N   UNL     1       2.214   6.740  20.038  0.00  0.00    +0.000 N 
ATOM     20  H   UNL     1       1.983   6.261  20.899  0.00  0.00    +0.000 HD
BRANCH  19  21
ATOM     21  C   UNL     1       2.801   5.936  19.019  0.00  0.00    +0.000 A 
ATOM     22  C   UNL     1       3.873   6.427  18.264  0.00  0.00    +0.000 A 
ATOM     23  C   UNL     1       4.550   5.599  17.367  0.00  0.00    +0.000 A 
ATOM     24  C   UNL     1       4.175   4.265  17.225  0.00  0.00    +0.000 A 
ATOM     25  C   UNL     1       3.107   3.741  17.965  0.00  0.00    +0.000 A 
ATOM     26  C   UNL     1       2.750   2.388  17.825  0.00  0.00    +0.000 A 
ATOM     27  C   UNL     1       1.660   1.859  18.512  0.00  0.00    +0.000 A 
ATOM     28  C   UNL     1       0.888   2.687  19.316  0.00  0.00    +0.000 A 
ATOM     29  C   UNL     1       1.243   4.028  19.482  0.00  0.00    +0.000 A 
ATOM     30  C   UNL     1       2.382   4.583  18.851  0.00  0.00    +0.000 A 
ENDBRANCH  19  21
ENDBRANCH  16  17
ENDBRANCH   1  16
TORSDOF 6
ENDMDL
MODEL 9
REMARK VINA RESULT:      -7.8      2.982      4.655
REMARK  Name = 
REMARK  6 active torsions:
REMARK  status: ('A' for Active; 'I' for Inactive)
REMARK    1  A    between atoms: N_1  and  C_2
REMARK    2  A    between atoms: C_4  and  O_5
REMARK    3  A    between atoms: C_10  and  S_11
REMARK    4  A    between atoms: S_11  and  C_12
REMARK    5  A    between atoms: C_12  and  C_13
REMARK    6  A    between atoms: N_15  and  C_16
REMARK                            x       y       z     vdW  Elec       q    Type
REMARK                         _______ _______ _______ _____ _____    ______ ____
ROOT
ATOM      1  S   UNL     1       2.201   7.281  19.072  0.00  0.00    +0.000 S 
ENDROOT
BRANCH   1   9
ATOM      2  C   UNL     1       2.419   3.844  19.414  0.00  0.00    +0.000 A 
ATOM      3  C   UNL     1       2.682   2.518  19.366  0.00  0.00    +0.000 A 
ATOM      4  C   UNL     1       3.666   2.091  18.355  0.00  0.00    +0.000 A 
ATOM      5  N   UNL     1       4.310   2.833  17.525  0.00  0.00    +0.000 NA
ATOM      6  C   UNL     1       4.055   4.169  17.601  0.00  0.00    +0.000 A 
ATOM      7  N   UNL     1       4.558   5.150  16.890  0.00  0.00    +0.000 NA
ATOM      8  N   UNL     1       3.998   6.328  17.301  0.00  0.00    +0.000 NA
ATOM      9  C   UNL     1       3.150   6.062  18.272  0.00  0.00    +0.000 A 
ATOM     10  N   UNL     1       3.120   4.694  18.515  0.00  0.00    +0.000 N 
BRANCH   2  11
ATOM     11  N   UNL     1       1.504   4.351  20.319  0.00  0.00    +0.000 N 
ATOM     12  H   UNL     1       1.882   4.622  21.223  0.00  0.00    +0.000 HD
ATOM     13  H   UNL     1       0.643   3.810  20.403  0.00  0.00    +0.000 HD
ENDBRANCH   2  11
BRANCH   4  14
ATOM     14  O   UNL     1       3.860   0.758  18.334  0.00  0.00    +0.000 OA
ATOM     15  H   UNL     1       3.315   0.275  17.696  0.00  0.00    +0.000 HD
ENDBRANCH   4  14
ENDBRANCH   1   9
BRANCH   1  16
ATOM     16  C   UNL     1       2.496   8.716  17.963  0.00  0.00    +0.000 C 
BRANCH  16  17
ATOM     17  C   UNL     1       1.621   9.932  18.296  0.00  0.00    +0.000 C 
ATOM     18  O   UNL     1       1.900  11.081  17.961  0.00  0.00    +0.000 OA
ATOM     19  N   UNL     1       0.477   9.586  19.014  0.00  0.00    +0.000 N 
ATOM     20  H   UNL     1       0.467   8.689  19.481  0.00  0.00    +0.000 HD
BRANCH  19  21
ATOM     21  C   UNL     1      -0.626  10.443  19.295  0.00  0.00    +0.000 A 
ATOM     22  C   UNL     1      -0.615  11.255  20.436  0.00  0.00    +0.000 A 
ATOM     23  C   UNL     1      -1.618  12.204  20.644  0.00  0.00    +0.000 A 
ATOM     24  C   UNL     1      -2.637  12.364  19.708  0.00  0.00    +0.000 A 
ATOM     25  C   UNL     1      -2.679  11.567  18.556  0.00  0.00    +0.000 A 
ATOM     26  C   UNL     1      -3.703  11.751  17.610  0.00  0.00    +0.000 A 
ATOM     27  C   UNL     1      -3.793  10.938  16.483  0.00  0.00    +0.000 A 
ATOM     28  C   UNL     1      -2.884   9.902  16.309  0.00  0.00    +0.000 A 
ATOM     29  C   UNL     1      -1.848   9.721  17.230  0.00  0.00    +0.000 A 
ATOM     30  C   UNL     1      -1.688  10.569  18.351  0.00  0.00    +0.000 A 
ENDBRANCH  19  21
ENDBRANCH  16  17
ENDBRANCH   1  16
TORSDOF 6
ENDMDL
