MODEL 1
REMARK VINA RESULT:      -7.6      0.000      0.000
REMARK  Name = 
REMARK  2 active torsions:
REMARK  status: ('A' for Active; 'I' for Inactive)
REMARK    1  A    between atoms: C_2  and  C_3
REMARK    2  A    between atoms: N_14  and  C_15
REMARK                            x       y       z     vdW  Elec       q    Type
REMARK                         _______ _______ _______ _____ _____    ______ ____
ROOT
ATOM      1  O   UNL     1       2.115   5.126  20.814  0.00  0.00    +0.000 OA
ATOM      2  C   UNL     1       2.545   5.798  19.881  0.00  0.00    +0.000 C 
ATOM      3  N   UNL     1       2.249   7.160  19.749  0.00  0.00    +0.000 N 
ATOM      4  C   UNL     1       2.791   8.083  18.761  0.00  0.00    +0.000 C 
ATOM      5  C   UNL     1       1.696   8.978  18.217  0.00  0.00    +0.000 C 
ATOM      6  N   UNL     1       1.061   9.737  19.281  0.00  0.00    +0.000 N 
ATOM      7  C   UNL     1       0.726   9.114  20.490  0.00  0.00    +0.000 C 
ATOM      8  O   UNL     1      -0.067   9.593  21.304  0.00  0.00    +0.000 OA
ATOM      9  C   UNL     1       1.460   7.792  20.815  0.00  0.00    +0.000 C 
ENDROOT
BRANCH   2  10
ATOM     10  C   UNL     1       3.415   5.122  18.875  0.00  0.00    +0.000 A 
ATOM     11  C   UNL     1       4.812   5.176  19.029  0.00  0.00    +0.000 A 
ATOM     12  C   UNL     1       5.655   4.659  18.046  0.00  0.00    +0.000 A 
ATOM     13  C   UNL     1       5.107   3.992  16.962  0.00  0.00    +0.000 A 
ATOM     14  F   UNL     1       5.916   3.495  16.019  0.00  0.00    +0.000 F 
ATOM     15  C   UNL     1       3.732   3.833  16.840  0.00  0.00    +0.000 A 
ATOM     16  C   UNL     1       2.879   4.408  17.790  0.00  0.00    +0.000 A 
ATOM     17 CL   UNL     1       1.183   4.226  17.514  0.00  0.00    +0.000 Cl
ENDBRANCH   2  10
BRANCH   6  18
ATOM     18  C   UNL     1       0.514  11.011  18.950  0.00  0.00    +0.000 A 
ATOM     19  C   UNL     1       1.241  12.171  19.262  0.00  0.00    +0.000 A 
ATOM     20  C   UNL     1       0.731  13.437  18.966  0.00  0.00    +0.000 A 
ATOM     21  C   UNL     1      -0.520  13.561  18.369  0.00  0.00    +0.000 A 
ATOM     22  C   UNL     1      -1.271  12.419  18.086  0.00  0.00    +0.000 A 
ATOM     23  C   UNL     1      -0.766  11.151  18.377  0.00  0.00    +0.000 A 
ATOM     24 CL   UNL     1      -1.840   9.802  18.181  0.00  0.00    +0.000 Cl
ENDBRANCH   6  18
TORSDOF 2
ENDMDL
MODEL 2
REMARK VINA RESULT:      -7.4      2.850      7.507
REMARK  Name = 
REMARK  2 active torsions:
REMARK  status: ('A' for Active; 'I' for Inactive)
REMARK    1  A    between atoms: C_2  and  C_3
REMARK    2  A    between atoms: N_14  and  C_15
REMARK                            x       y       z     vdW  Elec       q    Type
REMARK                         _______ _______ _______ _____ _____    ______ ____
ROOT
ATOM      1  O   UNL     1       0.574   9.925  21.626  0.00  0.00    +0.000 OA
ATOM      2  C   UNL     1       0.806  10.011  20.424  0.00  0.00    +0.000 C 
ATOM      3  N   UNL     1       1.326   8.938  19.690  0.00  0.00    +0.000 N 
ATOM      4  C   UNL     1       1.530   8.878  18.250  0.00  0.00    +0.000 C 
ATOM      5  C   UNL     1       2.866   8.237  17.931  0.00  0.00    +0.000 C 
ATOM      6  N   UNL     1       2.949   6.895  18.480  0.00  0.00    +0.000 N 
ATOM      7  C   UNL     1       2.500   6.635  19.781  0.00  0.00    +0.000 C 
ATOM      8  O   UNL     1       2.805   5.623  20.416  0.00  0.00    +0.000 OA
ATOM      9  C   UNL     1       1.518   7.662  20.394  0.00  0.00    +0.000 C 
ENDROOT
BRANCH   2  10
ATOM     10  C   UNL     1       0.507  11.305  19.745  0.00  0.00    +0.000 A 
ATOM     11  C   UNL     1       1.399  12.382  19.897  0.00  0.00    +0.000 A 
ATOM     12  C   UNL     1       1.090  13.638  19.376  0.00  0.00    +0.000 A 
ATOM     13  C   UNL     1      -0.056  13.794  18.611  0.00  0.00    +0.000 A 
ATOM     14  F   UNL     1      -0.351  15.000  18.110  0.00  0.00    +0.000 F 
ATOM     15  C   UNL     1      -0.899  12.720  18.358  0.00  0.00    +0.000 A 
ATOM     16  C   UNL     1      -0.629  11.473  18.934  0.00  0.00    +0.000 A 
ATOM     17 CL   UNL     1      -1.775  10.217  18.628  0.00  0.00    +0.000 Cl
ENDBRANCH   2  10
BRANCH   6  18
ATOM     18  C   UNL     1       3.771   5.951  17.799  0.00  0.00    +0.000 A 
ATOM     19  C   UNL     1       5.081   6.314  17.445  0.00  0.00    +0.000 A 
ATOM     20  C   UNL     1       5.913   5.421  16.764  0.00  0.00    +0.000 A 
ATOM     21  C   UNL     1       5.439   4.160  16.413  0.00  0.00    +0.000 A 
ATOM     22  C   UNL     1       4.127   3.799  16.725  0.00  0.00    +0.000 A 
ATOM     23  C   UNL     1       3.293   4.685  17.407  0.00  0.00    +0.000 A 
ATOM     24 CL   UNL     1       1.625   4.239  17.577  0.00  0.00    +0.000 Cl
ENDBRANCH   6  18
TORSDOF 2
ENDMDL
MODEL 3
REMARK VINA RESULT:      -7.2      1.504      1.907
REMARK  Name = 
REMARK  2 active torsions:
REMARK  status: ('A' for Active; 'I' for Inactive)
REMARK    1  A    between atoms: C_2  and  C_3
REMARK    2  A    between atoms: N_14  and  C_15
REMARK                            x       y       z     vdW  Elec       q    Type
REMARK                         _______ _______ _______ _____ _____    ______ ____
ROOT
ATOM      1  O   UNL     1       3.499   5.188  20.042  0.00  0.00    +0.000 OA
ATOM      2  C   UNL     1       3.565   5.933  19.068  0.00  0.00    +0.000 C 
ATOM      3  N   UNL     1       2.876   7.150  19.017  0.00  0.00    +0.000 N 
ATOM      4  C   UNL     1       2.967   8.167  17.978  0.00  0.00    +0.000 C 
ATOM      5  C   UNL     1       1.590   8.699  17.637  0.00  0.00    +0.000 C 
ATOM      6  N   UNL     1       0.943   9.270  18.805  0.00  0.00    +0.000 N 
ATOM      7  C   UNL     1       0.997   8.606  20.037  0.00  0.00    +0.000 C 
ATOM      8  O   UNL     1       0.241   8.857  20.978  0.00  0.00    +0.000 OA
ATOM      9  C   UNL     1       2.119   7.555  20.210  0.00  0.00    +0.000 C 
ENDROOT
BRANCH   2  10
ATOM     10  C   UNL     1       4.421   5.510  17.922  0.00  0.00    +0.000 A 
ATOM     11  C   UNL     1       5.655   6.151  17.713  0.00  0.00    +0.000 A 
ATOM     12  C   UNL     1       6.421   5.864  16.584  0.00  0.00    +0.000 A 
ATOM     13  C   UNL     1       6.011   4.861  15.720  0.00  0.00    +0.000 A 
ATOM     14  F   UNL     1       6.748   4.584  14.637  0.00  0.00    +0.000 F 
ATOM     15  C   UNL     1       4.849   4.139  15.962  0.00  0.00    +0.000 A 
ATOM     16  C   UNL     1       4.041   4.469  17.057  0.00  0.00    +0.000 A 
ATOM     17 CL   UNL     1       2.575   3.571  17.232  0.00  0.00    +0.000 Cl
ENDBRANCH   2  10
BRANCH   6  18
ATOM     18  C   UNL     1       0.010  10.326  18.596  0.00  0.00    +0.000 A 
ATOM     19  C   UNL     1      -1.225  10.039  17.992  0.00  0.00    +0.000 A 
ATOM     20  C   UNL     1      -2.161  11.049  17.757  0.00  0.00    +0.000 A 
ATOM     21  C   UNL     1      -1.866  12.364  18.107  0.00  0.00    +0.000 A 
ATOM     22  C   UNL     1      -0.627  12.671  18.673  0.00  0.00    +0.000 A 
ATOM     23  C   UNL     1       0.310  11.666  18.913  0.00  0.00    +0.000 A 
ATOM     24 CL   UNL     1       1.891  12.157  19.429  0.00  0.00    +0.000 Cl
ENDBRANCH   6  18
TORSDOF 2
ENDMDL
MODEL 4
REMARK VINA RESULT:      -6.9      2.459      3.827
REMARK  Name = 
REMARK  2 active torsions:
REMARK  status: ('A' for Active; 'I' for Inactive)
REMARK    1  A    between atoms: C_2  and  C_3
REMARK    2  A    between atoms: N_14  and  C_15
REMARK                            x       y       z     vdW  Elec       q    Type
REMARK                         _______ _______ _______ _____ _____    ______ ____
ROOT
ATOM      1  O   UNL     1       4.188   2.899  17.757  0.00  0.00    +0.000 OA
ATOM      2  C   UNL     1       4.445   4.071  17.503  0.00  0.00    +0.000 C 
ATOM      3  N   UNL     1       3.948   5.126  18.278  0.00  0.00    +0.000 N 
ATOM      4  C   UNL     1       4.276   6.539  18.150  0.00  0.00    +0.000 C 
ATOM      5  C   UNL     1       3.026   7.386  18.280  0.00  0.00    +0.000 C 
ATOM      6  N   UNL     1       2.371   7.163  19.557  0.00  0.00    +0.000 N 
ATOM      7  C   UNL     1       2.221   5.863  20.056  0.00  0.00    +0.000 C 
ATOM      8  O   UNL     1       1.431   5.567  20.956  0.00  0.00    +0.000 OA
ATOM      9  C   UNL     1       3.159   4.782  19.469  0.00  0.00    +0.000 C 
ENDROOT
BRANCH   2  10
ATOM     10  C   UNL     1       5.325   4.356  16.332  0.00  0.00    +0.000 A 
ATOM     11  C   UNL     1       4.772   4.350  15.039  0.00  0.00    +0.000 A 
ATOM     12  C   UNL     1       5.587   4.492  13.918  0.00  0.00    +0.000 A 
ATOM     13  C   UNL     1       6.939   4.749  14.087  0.00  0.00    +0.000 A 
ATOM     14  F   UNL     1       7.721   4.887  13.009  0.00  0.00    +0.000 F 
ATOM     15  C   UNL     1       7.491   4.864  15.356  0.00  0.00    +0.000 A 
ATOM     16  C   UNL     1       6.690   4.656  16.485  0.00  0.00    +0.000 A 
ATOM     17 CL   UNL     1       7.481   4.742  18.019  0.00  0.00    +0.000 Cl
ENDBRANCH   2  10
BRANCH   6  18
ATOM     18  C   UNL     1       1.623   8.240  20.114  0.00  0.00    +0.000 A 
ATOM     19  C   UNL     1       1.414   8.283  21.502  0.00  0.00    +0.000 A 
ATOM     20  C   UNL     1       0.675   9.315  22.085  0.00  0.00    +0.000 A 
ATOM     21  C   UNL     1       0.119  10.310  21.284  0.00  0.00    +0.000 A 
ATOM     22  C   UNL     1       0.286  10.260  19.899  0.00  0.00    +0.000 A 
ATOM     23  C   UNL     1       1.026   9.233  19.312  0.00  0.00    +0.000 A 
ATOM     24 CL   UNL     1       1.016   9.133  17.580  0.00  0.00    +0.000 Cl
ENDBRANCH   6  18
TORSDOF 2
ENDMDL
MODEL 5
REMARK VINA RESULT:      -6.7      1.852      2.387
REMARK  Name = 
REMARK  2 active torsions:
REMARK  status: ('A' for Active; 'I' for Inactive)
REMARK    1  A    between atoms: C_2  and  C_3
REMARK    2  A    between atoms: N_14  and  C_15
REMARK                            x       y       z     vdW  Elec       q    Type
REMARK                         _______ _______ _______ _____ _____    ______ ____
ROOT
ATOM      1  O   UNL     1       3.487   4.996  20.226  0.00  0.00    +0.000 OA
ATOM      2  C   UNL     1       3.596   5.706  19.231  0.00  0.00    +0.000 C 
ATOM      3  N   UNL     1       2.958   6.948  19.133  0.00  0.00    +0.000 N 
ATOM      4  C   UNL     1       3.104   7.927  18.063  0.00  0.00    +0.000 C 
ATOM      5  C   UNL     1       1.754   8.504  17.687  0.00  0.00    +0.000 C 
ATOM      6  N   UNL     1       1.117   9.137  18.829  0.00  0.00    +0.000 N 
ATOM      7  C   UNL     1       1.129   8.511  20.081  0.00  0.00    +0.000 C 
ATOM      8  O   UNL     1       0.372   8.823  21.004  0.00  0.00    +0.000 OA
ATOM      9  C   UNL     1       2.204   7.422  20.302  0.00  0.00    +0.000 C 
ENDROOT
BRANCH   2  10
ATOM     10  C   UNL     1       4.447   5.212  18.110  0.00  0.00    +0.000 A 
ATOM     11  C   UNL     1       3.835   4.806  16.910  0.00  0.00    +0.000 A 
ATOM     12  C   UNL     1       4.588   4.229  15.890  0.00  0.00    +0.000 A 
ATOM     13  C   UNL     1       5.966   4.155  16.019  0.00  0.00    +0.000 A 
ATOM     14  F   UNL     1       6.689   3.602  15.037  0.00  0.00    +0.000 F 
ATOM     15  C   UNL     1       6.606   4.646  17.150  0.00  0.00    +0.000 A 
ATOM     16  C   UNL     1       5.848   5.165  18.207  0.00  0.00    +0.000 A 
ATOM     17 CL   UNL     1       6.725   5.679  19.604  0.00  0.00    +0.000 Cl
ENDBRANCH   2  10
BRANCH   6  18
ATOM     18  C   UNL     1       0.231  10.224  18.574  0.00  0.00    +0.000 A 
ATOM     19  C   UNL     1      -1.054   9.956  18.074  0.00  0.00    +0.000 A 
ATOM     20  C   UNL     1      -1.947  10.995  17.798  0.00  0.00    +0.000 A 
ATOM     21  C   UNL     1      -1.559  12.316  18.003  0.00  0.00    +0.000 A 
ATOM     22  C   UNL     1      -0.272  12.600  18.463  0.00  0.00    +0.000 A 
ATOM     23  C   UNL     1       0.623  11.567  18.743  0.00  0.00    +0.000 A 
ATOM     24 CL   UNL     1       2.258  12.008  19.116  0.00  0.00    +0.000 Cl
ENDBRANCH   6  18
TORSDOF 2
ENDMDL
MODEL 6
REMARK VINA RESULT:      -6.5      1.239      1.584
REMARK  Name = 
REMARK  2 active torsions:
REMARK  status: ('A' for Active; 'I' for Inactive)
REMARK    1  A    between atoms: C_2  and  C_3
REMARK    2  A    between atoms: N_14  and  C_15
REMARK                            x       y       z     vdW  Elec       q    Type
REMARK                         _______ _______ _______ _____ _____    ______ ____
ROOT
ATOM      1  O   UNL     1       2.590   4.957  20.367  0.00  0.00    +0.000 OA
ATOM      2  C   UNL     1       2.909   5.650  19.406  0.00  0.00    +0.000 C 
ATOM      3  N   UNL     1       2.564   7.005  19.321  0.00  0.00    +0.000 N 
ATOM      4  C   UNL     1       2.982   7.953  18.297  0.00  0.00    +0.000 C 
ATOM      5  C   UNL     1       1.815   8.822  17.874  0.00  0.00    +0.000 C 
ATOM      6  N   UNL     1       1.266   9.552  19.004  0.00  0.00    +0.000 N 
ATOM      7  C   UNL     1       1.068   8.908  20.231  0.00  0.00    +0.000 C 
ATOM      8  O   UNL     1       0.345   9.355  21.125  0.00  0.00    +0.000 OA
ATOM      9  C   UNL     1       1.865   7.603  20.467  0.00  0.00    +0.000 C 
ENDROOT
BRANCH   2  10
ATOM     10  C   UNL     1       3.695   5.010  18.312  0.00  0.00    +0.000 A 
ATOM     11  C   UNL     1       3.015   4.376  17.257  0.00  0.00    +0.000 A 
ATOM     12  C   UNL     1       3.717   3.666  16.285  0.00  0.00    +0.000 A 
ATOM     13  C   UNL     1       5.103   3.677  16.302  0.00  0.00    +0.000 A 
ATOM     14  F   UNL     1       5.777   2.996  15.367  0.00  0.00    +0.000 F 
ATOM     15  C   UNL     1       5.801   4.383  17.274  0.00  0.00    +0.000 A 
ATOM     16  C   UNL     1       5.101   5.043  18.291  0.00  0.00    +0.000 A 
ATOM     17 CL   UNL     1       6.053   5.828  19.500  0.00  0.00    +0.000 Cl
ENDBRANCH   2  10
BRANCH   6  18
ATOM     18  C   UNL     1       0.655  10.813  18.743  0.00  0.00    +0.000 A 
ATOM     19  C   UNL     1       1.392  11.989  18.957  0.00  0.00    +0.000 A 
ATOM     20  C   UNL     1       0.824  13.243  18.727  0.00  0.00    +0.000 A 
ATOM     21  C   UNL     1      -0.497  13.339  18.296  0.00  0.00    +0.000 A 
ATOM     22  C   UNL     1      -1.254  12.181  18.115  0.00  0.00    +0.000 A 
ATOM     23  C   UNL     1      -0.691  10.925  18.341  0.00  0.00    +0.000 A 
ATOM     24 CL   UNL     1      -1.752   9.553  18.288  0.00  0.00    +0.000 Cl
ENDBRANCH   6  18
TORSDOF 2
ENDMDL
MODEL 7
REMARK VINA RESULT:      -6.5      3.107      7.631
REMARK  Name = 
REMARK  2 active torsions:
REMARK  status: ('A' for Active; 'I' for Inactive)
REMARK    1  A    between atoms: C_2  and  C_3
REMARK    2  A    between atoms: N_14  and  C_15
REMARK                            x       y       z     vdW  Elec       q    Type
REMARK                         _______ _______ _______ _____ _____    ______ ____
ROOT
ATOM      1  O   UNL     1       0.965  10.492  21.929  0.00  0.00    +0.000 OA
ATOM      2  C   UNL     1       1.042  10.482  20.704  0.00  0.00    +0.000 C 
ATOM      3  N   UNL     1       1.265   9.301  19.985  0.00  0.00    +0.000 N 
ATOM      4  C   UNL     1       1.259   9.143  18.537  0.00  0.00    +0.000 C 
ATOM      5  C   UNL     1       2.408   8.259  18.097  0.00  0.00    +0.000 C 
ATOM      6  N   UNL     1       2.332   6.949  18.720  0.00  0.00    +0.000 N 
ATOM      7  C   UNL     1       2.025   6.831  20.081  0.00  0.00    +0.000 C 
ATOM      8  O   UNL     1       2.234   5.810  20.739  0.00  0.00    +0.000 OA
ATOM      9  C   UNL     1       1.328   8.044  20.742  0.00  0.00    +0.000 C 
ENDROOT
BRANCH   2  10
ATOM     10  C   UNL     1       0.882  11.778  19.983  0.00  0.00    +0.000 A 
ATOM     11  C   UNL     1       1.957  12.684  19.952  0.00  0.00    +0.000 A 
ATOM     12  C   UNL     1       1.801  13.950  19.391  0.00  0.00    +0.000 A 
ATOM     13  C   UNL     1       0.608  14.275  18.764  0.00  0.00    +0.000 A 
ATOM     14  F   UNL     1       0.459  15.491  18.224  0.00  0.00    +0.000 F 
ATOM     15  C   UNL     1      -0.433  13.358  18.689  0.00  0.00    +0.000 A 
ATOM     16  C   UNL     1      -0.306  12.109  19.309  0.00  0.00    +0.000 A 
ATOM     17 CL   UNL     1      -1.681  11.066  19.230  0.00  0.00    +0.000 Cl
ENDBRANCH   2  10
BRANCH   6  18
ATOM     18  C   UNL     1       2.879   5.844  18.005  0.00  0.00    +0.000 A 
ATOM     19  C   UNL     1       2.120   4.669  17.877  0.00  0.00    +0.000 A 
ATOM     20  C   UNL     1       2.627   3.559  17.196  0.00  0.00    +0.000 A 
ATOM     21  C   UNL     1       3.906   3.604  16.649  0.00  0.00    +0.000 A 
ATOM     22  C   UNL     1       4.687   4.752  16.801  0.00  0.00    +0.000 A 
ATOM     23  C   UNL     1       4.185   5.864  17.477  0.00  0.00    +0.000 A 
ATOM     24 CL   UNL     1       5.285   7.167  17.794  0.00  0.00    +0.000 Cl
ENDBRANCH   6  18
TORSDOF 2
ENDMDL
MODEL 8
REMARK VINA RESULT:      -6.4      3.175      7.639
REMARK  Name = 
REMARK  2 active torsions:
REMARK  status: ('A' for Active; 'I' for Inactive)
REMARK    1  A    between atoms: C_2  and  C_3
REMARK    2  A    between atoms: N_14  and  C_15
REMARK                            x       y       z     vdW  Elec       q    Type
REMARK                         _______ _______ _______ _____ _____    ______ ____
ROOT
ATOM      1  O   UNL     1       0.894   9.292  21.232  0.00  0.00    +0.000 OA
ATOM      2  C   UNL     1       1.131   9.477  20.042  0.00  0.00    +0.000 C 
ATOM      3  N   UNL     1       1.769   8.511  19.253  0.00  0.00    +0.000 N 
ATOM      4  C   UNL     1       1.997   8.564  17.816  0.00  0.00    +0.000 C 
ATOM      5  C   UNL     1       3.396   8.086  17.485  0.00  0.00    +0.000 C 
ATOM      6  N   UNL     1       3.611   6.727  17.952  0.00  0.00    +0.000 N 
ATOM      7  C   UNL     1       3.174   6.341  19.225  0.00  0.00    +0.000 C 
ATOM      8  O   UNL     1       3.575   5.327  19.802  0.00  0.00    +0.000 OA
ATOM      9  C   UNL     1       2.084   7.220  19.880  0.00  0.00    +0.000 C 
ENDROOT
BRANCH   2  10
ATOM     10  C   UNL     1       0.709  10.774  19.438  0.00  0.00    +0.000 A 
ATOM     11  C   UNL     1       1.588  11.871  19.481  0.00  0.00    +0.000 A 
ATOM     12  C   UNL     1       1.179  13.126  19.035  0.00  0.00    +0.000 A 
ATOM     13  C   UNL     1      -0.067  13.266  18.445  0.00  0.00    +0.000 A 
ATOM     14  F   UNL     1      -0.459  14.472  18.015  0.00  0.00    +0.000 F 
ATOM     15  C   UNL     1      -0.914  12.175  18.294  0.00  0.00    +0.000 A 
ATOM     16  C   UNL     1      -0.535  10.926  18.802  0.00  0.00    +0.000 A 
ATOM     17 CL   UNL     1      -1.685   9.647  18.639  0.00  0.00    +0.000 Cl
ENDBRANCH   2  10
BRANCH   6  18
ATOM     18  C   UNL     1       4.535   5.918  17.229  0.00  0.00    +0.000 A 
ATOM     19  C   UNL     1       4.124   4.657  16.765  0.00  0.00    +0.000 A 
ATOM     20  C   UNL     1       5.005   3.829  16.066  0.00  0.00    +0.000 A 
ATOM     21  C   UNL     1       6.314   4.243  15.836  0.00  0.00    +0.000 A 
ATOM     22  C   UNL     1       6.749   5.477  16.324  0.00  0.00    +0.000 A 
ATOM     23  C   UNL     1       5.873   6.310  17.021  0.00  0.00    +0.000 A 
ATOM     24 CL   UNL     1       6.542   7.728  17.763  0.00  0.00    +0.000 Cl
ENDBRANCH   6  18
TORSDOF 2
ENDMDL
MODEL 9
REMARK VINA RESULT:      -6.3      3.383      7.653
REMARK  Name = 
REMARK  2 active torsions:
REMARK  status: ('A' for Active; 'I' for Inactive)
REMARK    1  A    between atoms: C_2  and  C_3
REMARK    2  A    between atoms: N_14  and  C_15
REMARK                            x       y       z     vdW  Elec       q    Type
REMARK                         _______ _______ _______ _____ _____    ______ ____
ROOT
ATOM      1  O   UNL     1       1.633   7.613  21.630  0.00  0.00    +0.000 OA
ATOM      2  C   UNL     1       1.659   7.993  20.463  0.00  0.00    +0.000 C 
ATOM      3  N   UNL     1       2.321   7.271  19.463  0.00  0.00    +0.000 N 
ATOM      4  C   UNL     1       2.324   7.553  18.033  0.00  0.00    +0.000 C 
ATOM      5  C   UNL     1       3.718   7.384  17.464  0.00  0.00    +0.000 C 
ATOM      6  N   UNL     1       4.216   6.037  17.684  0.00  0.00    +0.000 N 
ATOM      7  C   UNL     1       4.039   5.413  18.926  0.00  0.00    +0.000 C 
ATOM      8  O   UNL     1       4.678   4.422  19.285  0.00  0.00    +0.000 OA
ATOM      9  C   UNL     1       2.929   5.987  19.838  0.00  0.00    +0.000 C 
ENDROOT
BRANCH   2  10
ATOM     10  C   UNL     1       0.949   9.260  20.124  0.00  0.00    +0.000 A 
ATOM     11  C   UNL     1       1.298   9.950  18.950  0.00  0.00    +0.000 A 
ATOM     12  C   UNL     1       0.740  11.195  18.666  0.00  0.00    +0.000 A 
ATOM     13  C   UNL     1      -0.247  11.704  19.496  0.00  0.00    +0.000 A 
ATOM     14  F   UNL     1      -0.784  12.899  19.222  0.00  0.00    +0.000 F 
ATOM     15  C   UNL     1      -0.686  10.992  20.605  0.00  0.00    +0.000 A 
ATOM     16  C   UNL     1      -0.081   9.772  20.932  0.00  0.00    +0.000 A 
ATOM     17 CL   UNL     1      -0.638   8.997  22.372  0.00  0.00    +0.000 Cl
ENDBRANCH   2  10
BRANCH   6  18
ATOM     18  C   UNL     1       5.142   5.511  16.738  0.00  0.00    +0.000 A 
ATOM     19  C   UNL     1       4.698   4.568  15.797  0.00  0.00    +0.000 A 
ATOM     20  C   UNL     1       5.579   4.018  14.862  0.00  0.00    +0.000 A 
ATOM     21  C   UNL     1       6.920   4.392  14.867  0.00  0.00    +0.000 A 
ATOM     22  C   UNL     1       7.384   5.301  15.821  0.00  0.00    +0.000 A 
ATOM     23  C   UNL     1       6.509   5.855  16.755  0.00  0.00    +0.000 A 
ATOM     24 CL   UNL     1       7.200   6.815  18.023  0.00  0.00    +0.000 Cl
ENDBRANCH   6  18
TORSDOF 2
ENDMDL
