MODEL 1
REMARK VINA RESULT:      -8.9      0.000      0.000
REMARK  Name = 
REMARK  7 active torsions:
REMARK  status: ('A' for Active; 'I' for Inactive)
REMARK    1  A    between atoms: C_2  and  C_26
REMARK    2  A    between atoms: N_3  and  C_4
REMARK    3  A    between atoms: C_4  and  C_5
REMARK    4  A    between atoms: C_8  and  C_9
REMARK    5  A    between atoms: N_17  and  C_18
REMARK    6  A    between atoms: C_18  and  C_19
REMARK    7  A    between atoms: C_19  and  C_20
REMARK                            x       y       z     vdW  Elec       q    Type
REMARK                         _______ _______ _______ _____ _____    ______ ____
ROOT
ATOM      1  C   UNL     1       1.954   8.757  18.922  0.00  0.00    +0.000 A 
ATOM      2  N   UNL     1       1.795   8.029  20.034  0.00  0.00    +0.000 NA
ATOM      3  O   UNL     1       2.435   6.829  19.724  0.00  0.00    +0.000 OA
ATOM      4  C   UNL     1       2.899   6.936  18.437  0.00  0.00    +0.000 A 
ATOM      5  N   UNL     1       2.620   8.110  17.910  0.00  0.00    +0.000 NA
ENDROOT
BRANCH   4   6
ATOM      6  C   UNL     1       3.576   5.886  17.745  0.00  0.00    +0.000 A 
ATOM      7  C   UNL     1       4.887   5.761  17.344  0.00  0.00    +0.000 A 
ATOM      8  C   UNL     1       5.909   6.701  17.504  0.00  0.00    +0.000 A 
ATOM      9  C   UNL     1       7.130   6.237  16.971  0.00  0.00    +0.000 A 
ATOM     10  C   UNL     1       7.295   4.964  16.347  0.00  0.00    +0.000 A 
ATOM     11  C   UNL     1       6.244   4.035  16.189  0.00  0.00    +0.000 A 
ATOM     12  C   UNL     1       5.013   4.473  16.705  0.00  0.00    +0.000 A 
ATOM     13  N   UNL     1       3.823   3.856  16.709  0.00  0.00    +0.000 NA
ATOM     14  N   UNL     1       2.981   4.709  17.338  0.00  0.00    +0.000 N 
BRANCH  14  15
ATOM     15  C   UNL     1       1.585   4.321  17.495  0.00  0.00    +0.000 C 
BRANCH  15  16
ATOM     16  C   UNL     1       1.372   2.909  18.047  0.00  0.00    +0.000 C 
BRANCH  16  17
ATOM     17  C   UNL     1       1.732   2.841  19.506  0.00  0.00    +0.000 A 
ATOM     18  C   UNL     1       0.934   3.134  20.594  0.00  0.00    +0.000 A 
ATOM     19  C   UNL     1       1.617   2.952  21.831  0.00  0.00    +0.000 A 
ATOM     20  C   UNL     1       2.914   2.530  21.646  0.00  0.00    +0.000 A 
ATOM     21  S   UNL     1       3.303   2.358  19.990  0.00  0.00    +0.000 S 
ENDBRANCH  16  17
ENDBRANCH  15  16
ENDBRANCH  14  15
ENDBRANCH   4   6
BRANCH   1  22
ATOM     22  C   UNL     1       1.439  10.143  18.781  0.00  0.00    +0.000 C 
BRANCH  22  25
ATOM     23  O   UNL     1      -0.763  11.570  19.605  0.00  0.00    +0.000 OA
ATOM     24  C   UNL     1      -0.867  10.908  18.578  0.00  0.00    +0.000 C 
ATOM     25  N   UNL     1       0.174  10.166  18.067  0.00  0.00    +0.000 N 
ATOM     26  H   UNL     1       0.125   9.777  17.134  0.00  0.00    +0.000 HD
BRANCH  24  27
ATOM     27  C   UNL     1      -2.151  10.902  17.824  0.00  0.00    +0.000 A 
ATOM     28  C   UNL     1      -2.167  10.303  16.557  0.00  0.00    +0.000 A 
ATOM     29  C   UNL     1      -3.326  10.328  15.779  0.00  0.00    +0.000 A 
ATOM     30  C   UNL     1      -4.472  10.959  16.261  0.00  0.00    +0.000 A 
ATOM     31  C   UNL     1      -4.462  11.558  17.522  0.00  0.00    +0.000 A 
ATOM     32  C   UNL     1      -3.305  11.533  18.306  0.00  0.00    +0.000 A 
ENDBRANCH  24  27
ENDBRANCH  22  25
ENDBRANCH   1  22
TORSDOF 7
ENDMDL
MODEL 2
REMARK VINA RESULT:      -8.7      1.699      4.010
REMARK  Name = 
REMARK  7 active torsions:
REMARK  status: ('A' for Active; 'I' for Inactive)
REMARK    1  A    between atoms: C_2  and  C_26
REMARK    2  A    between atoms: N_3  and  C_4
REMARK    3  A    between atoms: C_4  and  C_5
REMARK    4  A    between atoms: C_8  and  C_9
REMARK    5  A    between atoms: N_17  and  C_18
REMARK    6  A    between atoms: C_18  and  C_19
REMARK    7  A    between atoms: C_19  and  C_20
REMARK                            x       y       z     vdW  Elec       q    Type
REMARK                         _______ _______ _______ _____ _____    ______ ____
ROOT
ATOM      1  C   UNL     1       2.080   8.506  18.822  0.00  0.00    +0.000 A 
ATOM      2  N   UNL     1       1.704   8.305  20.092  0.00  0.00    +0.000 NA
ATOM      3  O   UNL     1       2.134   7.003  20.349  0.00  0.00    +0.000 OA
ATOM      4  C   UNL     1       2.708   6.529  19.196  0.00  0.00    +0.000 A 
ATOM      5  N   UNL     1       2.691   7.427  18.233  0.00  0.00    +0.000 NA
ENDROOT
BRANCH   4   6
ATOM      6  C   UNL     1       3.231   5.208  19.053  0.00  0.00    +0.000 A 
ATOM      7  C   UNL     1       2.601   3.994  18.894  0.00  0.00    +0.000 A 
ATOM      8  C   UNL     1       1.223   3.758  18.868  0.00  0.00    +0.000 A 
ATOM      9  C   UNL     1       0.933   2.389  18.689  0.00  0.00    +0.000 A 
ATOM     10  C   UNL     1       1.928   1.375  18.552  0.00  0.00    +0.000 A 
ATOM     11  C   UNL     1       3.314   1.637  18.591  0.00  0.00    +0.000 A 
ATOM     12  C   UNL     1       3.634   2.993  18.775  0.00  0.00    +0.000 A 
ATOM     13  N   UNL     1       4.835   3.579  18.873  0.00  0.00    +0.000 NA
ATOM     14  N   UNL     1       4.576   4.899  19.031  0.00  0.00    +0.000 N 
BRANCH  14  15
ATOM     15  C   UNL     1       5.699   5.816  19.178  0.00  0.00    +0.000 C 
BRANCH  15  16
ATOM     16  C   UNL     1       6.028   6.629  17.923  0.00  0.00    +0.000 C 
BRANCH  16  17
ATOM     17  C   UNL     1       6.044   5.752  16.701  0.00  0.00    +0.000 A 
ATOM     18  C   UNL     1       5.144   5.735  15.655  0.00  0.00    +0.000 A 
ATOM     19  C   UNL     1       5.482   4.767  14.666  0.00  0.00    +0.000 A 
ATOM     20  C   UNL     1       6.627   4.076  14.991  0.00  0.00    +0.000 A 
ATOM     21  S   UNL     1       7.286   4.591  16.483  0.00  0.00    +0.000 S 
ENDBRANCH  16  17
ENDBRANCH  15  16
ENDBRANCH  14  15
ENDBRANCH   4   6
BRANCH   1  22
ATOM     22  C   UNL     1       1.841   9.782  18.100  0.00  0.00    +0.000 C 
BRANCH  22  25
ATOM     23  O   UNL     1      -0.001  11.360  19.394  0.00  0.00    +0.000 OA
ATOM     24  C   UNL     1      -0.386  10.718  18.423  0.00  0.00    +0.000 C 
ATOM     25  N   UNL     1       0.453   9.906  17.693  0.00  0.00    +0.000 N 
ATOM     26  H   UNL     1       0.163   9.531  16.799  0.00  0.00    +0.000 HD
BRANCH  24  27
ATOM     27  C   UNL     1      -1.804  10.816  17.981  0.00  0.00    +0.000 A 
ATOM     28  C   UNL     1      -2.162  10.201  16.773  0.00  0.00    +0.000 A 
ATOM     29  C   UNL     1      -3.462  10.317  16.280  0.00  0.00    +0.000 A 
ATOM     30  C   UNL     1      -4.409  11.056  16.986  0.00  0.00    +0.000 A 
ATOM     31  C   UNL     1      -4.060  11.673  18.189  0.00  0.00    +0.000 A 
ATOM     32  C   UNL     1      -2.759  11.555  18.690  0.00  0.00    +0.000 A 
ENDBRANCH  24  27
ENDBRANCH  22  25
ENDBRANCH   1  22
TORSDOF 7
ENDMDL
MODEL 3
REMARK VINA RESULT:      -8.7      2.326      2.794
REMARK  Name = 
REMARK  7 active torsions:
REMARK  status: ('A' for Active; 'I' for Inactive)
REMARK    1  A    between atoms: C_2  and  C_26
REMARK    2  A    between atoms: N_3  and  C_4
REMARK    3  A    between atoms: C_4  and  C_5
REMARK    4  A    between atoms: C_8  and  C_9
REMARK    5  A    between atoms: N_17  and  C_18
REMARK    6  A    between atoms: C_18  and  C_19
REMARK    7  A    between atoms: C_19  and  C_20
REMARK                            x       y       z     vdW  Elec       q    Type
REMARK                         _______ _______ _______ _____ _____    ______ ____
ROOT
ATOM      1  C   UNL     1       1.861   8.055  19.979  0.00  0.00    +0.000 A 
ATOM      2  N   UNL     1       1.765   8.845  18.902  0.00  0.00    +0.000 NA
ATOM      3  O   UNL     1       2.383   8.097  17.901  0.00  0.00    +0.000 OA
ATOM      4  C   UNL     1       2.819   6.930  18.476  0.00  0.00    +0.000 A 
ATOM      5  N   UNL     1       2.516   6.869  19.756  0.00  0.00    +0.000 NA
ENDROOT
BRANCH   4   6
ATOM      6  C   UNL     1       3.543   5.918  17.774  0.00  0.00    +0.000 A 
ATOM      7  C   UNL     1       4.862   5.851  17.384  0.00  0.00    +0.000 A 
ATOM      8  C   UNL     1       5.845   6.827  17.568  0.00  0.00    +0.000 A 
ATOM      9  C   UNL     1       7.088   6.420  17.040  0.00  0.00    +0.000 A 
ATOM     10  C   UNL     1       7.308   5.164  16.398  0.00  0.00    +0.000 A 
ATOM     11  C   UNL     1       6.296   4.198  16.216  0.00  0.00    +0.000 A 
ATOM     12  C   UNL     1       5.044   4.578  16.727  0.00  0.00    +0.000 A 
ATOM     13  N   UNL     1       3.880   3.916  16.709  0.00  0.00    +0.000 NA
ATOM     14  N   UNL     1       2.999   4.725  17.343  0.00  0.00    +0.000 N 
BRANCH  14  15
ATOM     15  C   UNL     1       1.618   4.280  17.480  0.00  0.00    +0.000 C 
BRANCH  15  16
ATOM     16  C   UNL     1       1.455   2.860  18.028  0.00  0.00    +0.000 C 
BRANCH  16  17
ATOM     17  C   UNL     1       1.750   2.814  19.502  0.00  0.00    +0.000 A 
ATOM     18  C   UNL     1       0.878   3.022  20.552  0.00  0.00    +0.000 A 
ATOM     19  C   UNL     1       1.516   2.895  21.819  0.00  0.00    +0.000 A 
ATOM     20  C   UNL     1       2.853   2.596  21.695  0.00  0.00    +0.000 A 
ATOM     21  S   UNL     1       3.335   2.474  20.059  0.00  0.00    +0.000 S 
ENDBRANCH  16  17
ENDBRANCH  15  16
ENDBRANCH  14  15
ENDBRANCH   4   6
BRANCH   1  22
ATOM     22  C   UNL     1       1.320   8.431  21.310  0.00  0.00    +0.000 C 
BRANCH  22  25
ATOM     23  O   UNL     1       0.303   9.819  23.455  0.00  0.00    +0.000 OA
ATOM     24  C   UNL     1      -0.125  10.102  22.341  0.00  0.00    +0.000 C 
ATOM     25  N   UNL     1       0.322   9.479  21.197  0.00  0.00    +0.000 N 
ATOM     26  H   UNL     1       0.092   9.847  20.283  0.00  0.00    +0.000 HD
BRANCH  24  27
ATOM     27  C   UNL     1      -1.154  11.167  22.187  0.00  0.00    +0.000 A 
ATOM     28  C   UNL     1      -1.291  11.773  20.931  0.00  0.00    +0.000 A 
ATOM     29  C   UNL     1      -2.194  12.822  20.748  0.00  0.00    +0.000 A 
ATOM     30  C   UNL     1      -2.957  13.276  21.822  0.00  0.00    +0.000 A 
ATOM     31  C   UNL     1      -2.824  12.678  23.077  0.00  0.00    +0.000 A 
ATOM     32  C   UNL     1      -1.924  11.624  23.264  0.00  0.00    +0.000 A 
ENDBRANCH  24  27
ENDBRANCH  22  25
ENDBRANCH   1  22
TORSDOF 7
ENDMDL
MODEL 4
REMARK VINA RESULT:      -8.7      1.591      4.369
REMARK  Name = 
REMARK  7 active torsions:
REMARK  status: ('A' for Active; 'I' for Inactive)
REMARK    1  A    between atoms: C_2  and  C_26
REMARK    2  A    between atoms: N_3  and  C_4
REMARK    3  A    between atoms: C_4  and  C_5
REMARK    4  A    between atoms: C_8  and  C_9
REMARK    5  A    between atoms: N_17  and  C_18
REMARK    6  A    between atoms: C_18  and  C_19
REMARK    7  A    between atoms: C_19  and  C_20
REMARK                            x       y       z     vdW  Elec       q    Type
REMARK                         _______ _______ _______ _____ _____    ______ ____
ROOT
ATOM      1  C   UNL     1       2.110   8.790  18.497  0.00  0.00    +0.000 A 
ATOM      2  N   UNL     1       2.680   8.604  17.300  0.00  0.00    +0.000 NA
ATOM      3  O   UNL     1       3.236   7.330  17.406  0.00  0.00    +0.000 OA
ATOM      4  C   UNL     1       2.971   6.874  18.673  0.00  0.00    +0.000 A 
ATOM      5  N   UNL     1       2.279   7.748  19.375  0.00  0.00    +0.000 NA
ENDROOT
BRANCH   4   6
ATOM      6  C   UNL     1       3.419   5.616  19.177  0.00  0.00    +0.000 A 
ATOM      7  C   UNL     1       2.747   4.608  19.832  0.00  0.00    +0.000 A 
ATOM      8  C   UNL     1       1.399   4.598  20.202  0.00  0.00    +0.000 A 
ATOM      9  C   UNL     1       1.049   3.400  20.859  0.00  0.00    +0.000 A 
ATOM     10  C   UNL     1       1.963   2.333  21.111  0.00  0.00    +0.000 A 
ATOM     11  C   UNL     1       3.323   2.370  20.735  0.00  0.00    +0.000 A 
ATOM     12  C   UNL     1       3.702   3.555  20.083  0.00  0.00    +0.000 A 
ATOM     13  N   UNL     1       4.902   3.922  19.614  0.00  0.00    +0.000 NA
ATOM     14  N   UNL     1       4.714   5.149  19.071  0.00  0.00    +0.000 N 
BRANCH  14  15
ATOM     15  C   UNL     1       5.856   5.830  18.476  0.00  0.00    +0.000 C 
BRANCH  15  16
ATOM     16  C   UNL     1       6.898   4.901  17.847  0.00  0.00    +0.000 C 
BRANCH  16  17
ATOM     17  C   UNL     1       6.635   4.712  16.379  0.00  0.00    +0.000 A 
ATOM     18  C   UNL     1       7.431   5.091  15.316  0.00  0.00    +0.000 A 
ATOM     19  C   UNL     1       6.857   4.744  14.059  0.00  0.00    +0.000 A 
ATOM     20  C   UNL     1       5.642   4.116  14.203  0.00  0.00    +0.000 A 
ATOM     21  S   UNL     1       5.196   3.949  15.846  0.00  0.00    +0.000 S 
ENDBRANCH  16  17
ENDBRANCH  15  16
ENDBRANCH  14  15
ENDBRANCH   4   6
BRANCH   1  22
ATOM     22  C   UNL     1       1.369  10.026  18.858  0.00  0.00    +0.000 C 
BRANCH  22  25
ATOM     23  O   UNL     1      -1.050  10.861  19.865  0.00  0.00    +0.000 OA
ATOM     24  C   UNL     1      -0.996  10.588  18.671  0.00  0.00    +0.000 C 
ATOM     25  N   UNL     1       0.165  10.171  18.059  0.00  0.00    +0.000 N 
ATOM     26  H   UNL     1       0.232  10.126  17.051  0.00  0.00    +0.000 HD
BRANCH  24  27
ATOM     27  C   UNL     1      -2.212  10.719  17.822  0.00  0.00    +0.000 A 
ATOM     28  C   UNL     1      -2.183  10.155  16.539  0.00  0.00    +0.000 A 
ATOM     29  C   UNL     1      -3.271  10.306  15.677  0.00  0.00    +0.000 A 
ATOM     30  C   UNL     1      -4.389  11.028  16.091  0.00  0.00    +0.000 A 
ATOM     31  C   UNL     1      -4.424  11.593  17.366  0.00  0.00    +0.000 A 
ATOM     32  C   UNL     1      -3.338  11.441  18.235  0.00  0.00    +0.000 A 
ENDBRANCH  24  27
ENDBRANCH  22  25
ENDBRANCH   1  22
TORSDOF 7
ENDMDL
MODEL 5
REMARK VINA RESULT:      -8.4      1.452      3.950
REMARK  Name = 
REMARK  7 active torsions:
REMARK  status: ('A' for Active; 'I' for Inactive)
REMARK    1  A    between atoms: C_2  and  C_26
REMARK    2  A    between atoms: N_3  and  C_4
REMARK    3  A    between atoms: C_4  and  C_5
REMARK    4  A    between atoms: C_8  and  C_9
REMARK    5  A    between atoms: N_17  and  C_18
REMARK    6  A    between atoms: C_18  and  C_19
REMARK    7  A    between atoms: C_19  and  C_20
REMARK                            x       y       z     vdW  Elec       q    Type
REMARK                         _______ _______ _______ _____ _____    ______ ____
ROOT
ATOM      1  C   UNL     1       1.629   9.002  18.767  0.00  0.00    +0.000 A 
ATOM      2  N   UNL     1       1.752   8.668  20.058  0.00  0.00    +0.000 NA
ATOM      3  O   UNL     1       2.207   7.351  20.004  0.00  0.00    +0.000 OA
ATOM      4  C   UNL     1       2.290   7.003  18.679  0.00  0.00    +0.000 A 
ATOM      5  N   UNL     1       1.941   7.996  17.887  0.00  0.00    +0.000 NA
ENDROOT
BRANCH   4   6
ATOM      6  C   UNL     1       2.679   5.708  18.219  0.00  0.00    +0.000 A 
ATOM      7  C   UNL     1       2.252   4.450  18.579  0.00  0.00    +0.000 A 
ATOM      8  C   UNL     1       1.306   4.131  19.557  0.00  0.00    +0.000 A 
ATOM      9  C   UNL     1       1.114   2.737  19.660  0.00  0.00    +0.000 A 
ATOM     10  C   UNL     1       1.803   1.777  18.860  0.00  0.00    +0.000 A 
ATOM     11  C   UNL     1       2.762   2.124  17.884  0.00  0.00    +0.000 A 
ATOM     12  C   UNL     1       2.979   3.506  17.763  0.00  0.00    +0.000 A 
ATOM     13  N   UNL     1       3.819   4.170  16.958  0.00  0.00    +0.000 NA
ATOM     14  N   UNL     1       3.623   5.480  17.237  0.00  0.00    +0.000 N 
BRANCH  14  15
ATOM     15  C   UNL     1       4.411   6.472  16.517  0.00  0.00    +0.000 C 
BRANCH  15  16
ATOM     16  C   UNL     1       5.824   6.016  16.142  0.00  0.00    +0.000 C 
BRANCH  16  17
ATOM     17  C   UNL     1       6.783   6.245  17.277  0.00  0.00    +0.000 A 
ATOM     18  C   UNL     1       7.499   7.389  17.569  0.00  0.00    +0.000 A 
ATOM     19  C   UNL     1       8.311   7.238  18.729  0.00  0.00    +0.000 A 
ATOM     20  C   UNL     1       8.191   5.984  19.283  0.00  0.00    +0.000 A 
ATOM     21  S   UNL     1       7.107   4.995  18.404  0.00  0.00    +0.000 S 
ENDBRANCH  16  17
ENDBRANCH  15  16
ENDBRANCH  14  15
ENDBRANCH   4   6
BRANCH   1  22
ATOM     22  C   UNL     1       1.176  10.344  18.318  0.00  0.00    +0.000 C 
BRANCH  22  25
ATOM     23  O   UNL     1      -0.462  12.521  18.692  0.00  0.00    +0.000 OA
ATOM     24  C   UNL     1      -0.973  11.494  18.258  0.00  0.00    +0.000 C 
ATOM     25  N   UNL     1      -0.245  10.348  18.021  0.00  0.00    +0.000 N 
ATOM     26  H   UNL     1      -0.645   9.580  17.500  0.00  0.00    +0.000 HD
BRANCH  24  27
ATOM     27  C   UNL     1      -2.428  11.460  17.950  0.00  0.00    +0.000 A 
ATOM     28  C   UNL     1      -2.820  11.068  16.662  0.00  0.00    +0.000 A 
ATOM     29  C   UNL     1      -4.167  11.082  16.298  0.00  0.00    +0.000 A 
ATOM     30  C   UNL     1      -5.130  11.496  17.218  0.00  0.00    +0.000 A 
ATOM     31  C   UNL     1      -4.747  11.890  18.501  0.00  0.00    +0.000 A 
ATOM     32  C   UNL     1      -3.399  11.873  18.871  0.00  0.00    +0.000 A 
ENDBRANCH  24  27
ENDBRANCH  22  25
ENDBRANCH   1  22
TORSDOF 7
ENDMDL
MODEL 6
REMARK VINA RESULT:      -8.4      2.012      2.566
REMARK  Name = 
REMARK  7 active torsions:
REMARK  status: ('A' for Active; 'I' for Inactive)
REMARK    1  A    between atoms: C_2  and  C_26
REMARK    2  A    between atoms: N_3  and  C_4
REMARK    3  A    between atoms: C_4  and  C_5
REMARK    4  A    between atoms: C_8  and  C_9
REMARK    5  A    between atoms: N_17  and  C_18
REMARK    6  A    between atoms: C_18  and  C_19
REMARK    7  A    between atoms: C_19  and  C_20
REMARK                            x       y       z     vdW  Elec       q    Type
REMARK                         _______ _______ _______ _____ _____    ______ ____
ROOT
ATOM      1  C   UNL     1       1.805   8.881  18.583  0.00  0.00    +0.000 A 
ATOM      2  N   UNL     1       1.753   8.285  19.781  0.00  0.00    +0.000 NA
ATOM      3  O   UNL     1       2.486   7.114  19.587  0.00  0.00    +0.000 OA
ATOM      4  C   UNL     1       2.891   7.101  18.276  0.00  0.00    +0.000 A 
ATOM      5  N   UNL     1       2.488   8.173  17.625  0.00  0.00    +0.000 NA
ENDROOT
BRANCH   4   6
ATOM      6  C   UNL     1       3.633   6.034  17.683  0.00  0.00    +0.000 A 
ATOM      7  C   UNL     1       4.960   5.939  17.327  0.00  0.00    +0.000 A 
ATOM      8  C   UNL     1       5.935   6.934  17.444  0.00  0.00    +0.000 A 
ATOM      9  C   UNL     1       7.191   6.488  16.980  0.00  0.00    +0.000 A 
ATOM     10  C   UNL     1       7.429   5.181  16.459  0.00  0.00    +0.000 A 
ATOM     11  C   UNL     1       6.425   4.196  16.343  0.00  0.00    +0.000 A 
ATOM     12  C   UNL     1       5.161   4.614  16.792  0.00  0.00    +0.000 A 
ATOM     13  N   UNL     1       4.000   3.946  16.809  0.00  0.00    +0.000 NA
ATOM     14  N   UNL     1       3.102   4.804  17.350  0.00  0.00    +0.000 N 
BRANCH  14  15
ATOM     15  C   UNL     1       1.721   4.366  17.497  0.00  0.00    +0.000 C 
BRANCH  15  16
ATOM     16  C   UNL     1       1.556   2.923  17.984  0.00  0.00    +0.000 C 
BRANCH  16  17
ATOM     17  C   UNL     1       1.796   2.824  19.465  0.00  0.00    +0.000 A 
ATOM     18  C   UNL     1       0.882   2.986  20.488  0.00  0.00    +0.000 A 
ATOM     19  C   UNL     1       1.473   2.815  21.773  0.00  0.00    +0.000 A 
ATOM     20  C   UNL     1       2.817   2.532  21.689  0.00  0.00    +0.000 A 
ATOM     21  S   UNL     1       3.362   2.477  20.069  0.00  0.00    +0.000 S 
ENDBRANCH  16  17
ENDBRANCH  15  16
ENDBRANCH  14  15
ENDBRANCH   4   6
BRANCH   1  22
ATOM     22  C   UNL     1       1.162  10.191  18.301  0.00  0.00    +0.000 C 
BRANCH  22  25
ATOM     23  O   UNL     1       1.281  12.336  20.017  0.00  0.00    +0.000 OA
ATOM     24  C   UNL     1       0.308  11.595  20.101  0.00  0.00    +0.000 C 
ATOM     25  N   UNL     1       0.140  10.498  19.285  0.00  0.00    +0.000 N 
ATOM     26  H   UNL     1      -0.745  10.011  19.249  0.00  0.00    +0.000 HD
BRANCH  24  27
ATOM     27  C   UNL     1      -0.756  11.876  21.103  0.00  0.00    +0.000 A 
ATOM     28  C   UNL     1      -0.724  11.171  22.315  0.00  0.00    +0.000 A 
ATOM     29  C   UNL     1      -1.734  11.347  23.261  0.00  0.00    +0.000 A 
ATOM     30  C   UNL     1      -2.787  12.222  22.998  0.00  0.00    +0.000 A 
ATOM     31  C   UNL     1      -2.826  12.926  21.794  0.00  0.00    +0.000 A 
ATOM     32  C   UNL     1      -1.814  12.756  20.844  0.00  0.00    +0.000 A 
ENDBRANCH  24  27
ENDBRANCH  22  25
ENDBRANCH   1  22
TORSDOF 7
ENDMDL
MODEL 7
REMARK VINA RESULT:      -8.4      0.888      1.240
REMARK  Name = 
REMARK  7 active torsions:
REMARK  status: ('A' for Active; 'I' for Inactive)
REMARK    1  A    between atoms: C_2  and  C_26
REMARK    2  A    between atoms: N_3  and  C_4
REMARK    3  A    between atoms: C_4  and  C_5
REMARK    4  A    between atoms: C_8  and  C_9
REMARK    5  A    between atoms: N_17  and  C_18
REMARK    6  A    between atoms: C_18  and  C_19
REMARK    7  A    between atoms: C_19  and  C_20
REMARK                            x       y       z     vdW  Elec       q    Type
REMARK                         _______ _______ _______ _____ _____    ______ ____
ROOT
ATOM      1  C   UNL     1       1.676   8.054  20.149  0.00  0.00    +0.000 A 
ATOM      2  N   UNL     1       1.569   6.995  20.961  0.00  0.00    +0.000 NA
ATOM      3  O   UNL     1       2.274   6.001  20.282  0.00  0.00    +0.000 OA
ATOM      4  C   UNL     1       2.719   6.549  19.106  0.00  0.00    +0.000 A 
ATOM      5  N   UNL     1       2.369   7.813  18.988  0.00  0.00    +0.000 NA
ENDROOT
BRANCH   4   6
ATOM      6  C   UNL     1       3.449   5.823  18.115  0.00  0.00    +0.000 A 
ATOM      7  C   UNL     1       4.736   5.967  17.648  0.00  0.00    +0.000 A 
ATOM      8  C   UNL     1       5.669   6.933  18.037  0.00  0.00    +0.000 A 
ATOM      9  C   UNL     1       6.892   6.782  17.350  0.00  0.00    +0.000 A 
ATOM     10  C   UNL     1       7.139   5.766  16.378  0.00  0.00    +0.000 A 
ATOM     11  C   UNL     1       6.177   4.807  15.995  0.00  0.00    +0.000 A 
ATOM     12  C   UNL     1       4.946   4.937  16.660  0.00  0.00    +0.000 A 
ATOM     13  N   UNL     1       3.826   4.213  16.527  0.00  0.00    +0.000 NA
ATOM     14  N   UNL     1       2.947   4.751  17.406  0.00  0.00    +0.000 N 
BRANCH  14  15
ATOM     15  C   UNL     1       1.610   4.178  17.493  0.00  0.00    +0.000 C 
BRANCH  15  16
ATOM     16  C   UNL     1       1.564   2.739  18.014  0.00  0.00    +0.000 C 
BRANCH  16  17
ATOM     17  C   UNL     1       1.817   2.694  19.495  0.00  0.00    +0.000 A 
ATOM     18  C   UNL     1       0.899   2.821  20.520  0.00  0.00    +0.000 A 
ATOM     19  C   UNL     1       1.507   2.723  21.805  0.00  0.00    +0.000 A 
ATOM     20  C   UNL     1       2.866   2.529  21.719  0.00  0.00    +0.000 A 
ATOM     21  S   UNL     1       3.405   2.468  20.097  0.00  0.00    +0.000 S 
ENDBRANCH  16  17
ENDBRANCH  15  16
ENDBRANCH  14  15
ENDBRANCH   4   6
BRANCH   1  22
ATOM     22  C   UNL     1       1.082   9.379  20.463  0.00  0.00    +0.000 C 
BRANCH  22  25
ATOM     23  O   UNL     1       0.705  11.121  18.370  0.00  0.00    +0.000 OA
ATOM     24  C   UNL     1      -0.264  10.472  18.749  0.00  0.00    +0.000 C 
ATOM     25  N   UNL     1      -0.187   9.562  19.781  0.00  0.00    +0.000 N 
ATOM     26  H   UNL     1      -0.943   8.914  19.957  0.00  0.00    +0.000 HD
BRANCH  24  27
ATOM     27  C   UNL     1      -1.582  10.639  18.077  0.00  0.00    +0.000 A 
ATOM     28  C   UNL     1      -2.522  11.490  18.674  0.00  0.00    +0.000 A 
ATOM     29  C   UNL     1      -3.796  11.632  18.122  0.00  0.00    +0.000 A 
ATOM     30  C   UNL     1      -4.140  10.917  16.976  0.00  0.00    +0.000 A 
ATOM     31  C   UNL     1      -3.209  10.066  16.377  0.00  0.00    +0.000 A 
ATOM     32  C   UNL     1      -1.929   9.924  16.924  0.00  0.00    +0.000 A 
ENDBRANCH  24  27
ENDBRANCH  22  25
ENDBRANCH   1  22
TORSDOF 7
ENDMDL
MODEL 8
REMARK VINA RESULT:      -8.4      1.752      2.442
REMARK  Name = 
REMARK  7 active torsions:
REMARK  status: ('A' for Active; 'I' for Inactive)
REMARK    1  A    between atoms: C_2  and  C_26
REMARK    2  A    between atoms: N_3  and  C_4
REMARK    3  A    between atoms: C_4  and  C_5
REMARK    4  A    between atoms: C_8  and  C_9
REMARK    5  A    between atoms: N_17  and  C_18
REMARK    6  A    between atoms: C_18  and  C_19
REMARK    7  A    between atoms: C_19  and  C_20
REMARK                            x       y       z     vdW  Elec       q    Type
REMARK                         _______ _______ _______ _____ _____    ______ ____
ROOT
ATOM      1  C   UNL     1       1.833   8.778  18.873  0.00  0.00    +0.000 A 
ATOM      2  N   UNL     1       1.800   8.112  20.034  0.00  0.00    +0.000 NA
ATOM      3  O   UNL     1       2.503   6.942  19.750  0.00  0.00    +0.000 OA
ATOM      4  C   UNL     1       2.874   7.000  18.430  0.00  0.00    +0.000 A 
ATOM      5  N   UNL     1       2.478   8.117  17.857  0.00  0.00    +0.000 NA
ENDROOT
BRANCH   4   6
ATOM      6  C   UNL     1       3.579   5.958  17.755  0.00  0.00    +0.000 A 
ATOM      7  C   UNL     1       4.893   5.862  17.354  0.00  0.00    +0.000 A 
ATOM      8  C   UNL     1       5.889   6.831  17.498  0.00  0.00    +0.000 A 
ATOM      9  C   UNL     1       7.123   6.393  16.972  0.00  0.00    +0.000 A 
ATOM     10  C   UNL     1       7.321   5.115  16.369  0.00  0.00    +0.000 A 
ATOM     11  C   UNL     1       6.296   4.155  16.227  0.00  0.00    +0.000 A 
ATOM     12  C   UNL     1       5.054   4.567  16.737  0.00  0.00    +0.000 A 
ATOM     13  N   UNL     1       3.882   3.918  16.751  0.00  0.00    +0.000 NA
ATOM     14  N   UNL     1       3.016   4.758  17.367  0.00  0.00    +0.000 N 
BRANCH  14  15
ATOM     15  C   UNL     1       1.632   4.334  17.531  0.00  0.00    +0.000 C 
BRANCH  15  16
ATOM     16  C   UNL     1       1.458   2.900  18.038  0.00  0.00    +0.000 C 
BRANCH  16  17
ATOM     17  C   UNL     1       1.778   2.804  19.504  0.00  0.00    +0.000 A 
ATOM     18  C   UNL     1       0.940   3.040  20.575  0.00  0.00    +0.000 A 
ATOM     19  C   UNL     1       1.593   2.846  21.826  0.00  0.00    +0.000 A 
ATOM     20  C   UNL     1       2.907   2.471  21.669  0.00  0.00    +0.000 A 
ATOM     21  S   UNL     1       3.350   2.358  20.021  0.00  0.00    +0.000 S 
ENDBRANCH  16  17
ENDBRANCH  15  16
ENDBRANCH  14  15
ENDBRANCH   4   6
BRANCH   1  22
ATOM     22  C   UNL     1       1.211  10.115  18.688  0.00  0.00    +0.000 C 
BRANCH  22  25
ATOM     23  O   UNL     1      -0.605  12.179  18.636  0.00  0.00    +0.000 OA
ATOM     24  C   UNL     1      -0.544  11.502  19.657  0.00  0.00    +0.000 C 
ATOM     25  N   UNL     1       0.320  10.438  19.788  0.00  0.00    +0.000 N 
ATOM     26  H   UNL     1       0.229   9.789  20.559  0.00  0.00    +0.000 HD
BRANCH  24  27
ATOM     27  C   UNL     1      -1.437  11.809  20.807  0.00  0.00    +0.000 A 
ATOM     28  C   UNL     1      -2.605  12.543  20.557  0.00  0.00    +0.000 A 
ATOM     29  C   UNL     1      -3.445  12.915  21.608  0.00  0.00    +0.000 A 
ATOM     30  C   UNL     1      -3.116  12.562  22.916  0.00  0.00    +0.000 A 
ATOM     31  C   UNL     1      -1.954  11.832  23.173  0.00  0.00    +0.000 A 
ATOM     32  C   UNL     1      -1.113  11.454  22.122  0.00  0.00    +0.000 A 
ENDBRANCH  24  27
ENDBRANCH  22  25
ENDBRANCH   1  22
TORSDOF 7
ENDMDL
MODEL 9
REMARK VINA RESULT:      -8.3      1.820      4.406
REMARK  Name = 
REMARK  7 active torsions:
REMARK  status: ('A' for Active; 'I' for Inactive)
REMARK    1  A    between atoms: C_2  and  C_26
REMARK    2  A    between atoms: N_3  and  C_4
REMARK    3  A    between atoms: C_4  and  C_5
REMARK    4  A    between atoms: C_8  and  C_9
REMARK    5  A    between atoms: N_17  and  C_18
REMARK    6  A    between atoms: C_18  and  C_19
REMARK    7  A    between atoms: C_19  and  C_20
REMARK                            x       y       z     vdW  Elec       q    Type
REMARK                         _______ _______ _______ _____ _____    ______ ____
ROOT
ATOM      1  C   UNL     1       2.045   8.754  18.537  0.00  0.00    +0.000 A 
ATOM      2  N   UNL     1       2.600   8.584  17.330  0.00  0.00    +0.000 NA
ATOM      3  O   UNL     1       3.169   7.314  17.416  0.00  0.00    +0.000 OA
ATOM      4  C   UNL     1       2.926   6.845  18.683  0.00  0.00    +0.000 A 
ATOM      5  N   UNL     1       2.236   7.705  19.403  0.00  0.00    +0.000 NA
ENDROOT
BRANCH   4   6
ATOM      6  C   UNL     1       3.394   5.585  19.168  0.00  0.00    +0.000 A 
ATOM      7  C   UNL     1       2.751   4.584  19.861  0.00  0.00    +0.000 A 
ATOM      8  C   UNL     1       1.425   4.584  20.302  0.00  0.00    +0.000 A 
ATOM      9  C   UNL     1       1.102   3.390  20.982  0.00  0.00    +0.000 A 
ATOM     10  C   UNL     1       2.022   2.319  21.190  0.00  0.00    +0.000 A 
ATOM     11  C   UNL     1       3.361   2.347  20.744  0.00  0.00    +0.000 A 
ATOM     12  C   UNL     1       3.712   3.527  20.067  0.00  0.00    +0.000 A 
ATOM     13  N   UNL     1       4.888   3.885  19.534  0.00  0.00    +0.000 NA
ATOM     14  N   UNL     1       4.678   5.111  18.996  0.00  0.00    +0.000 N 
BRANCH  14  15
ATOM     15  C   UNL     1       5.791   5.783  18.339  0.00  0.00    +0.000 C 
BRANCH  15  16
ATOM     16  C   UNL     1       6.843   4.844  17.743  0.00  0.00    +0.000 C 
BRANCH  16  17
ATOM     17  C   UNL     1       6.538   4.536  16.303  0.00  0.00    +0.000 A 
ATOM     18  C   UNL     1       5.525   3.745  15.798  0.00  0.00    +0.000 A 
ATOM     19  C   UNL     1       5.543   3.686  14.375  0.00  0.00    +0.000 A 
ATOM     20  C   UNL     1       6.570   4.430  13.841  0.00  0.00    +0.000 A 
ATOM     21  S   UNL     1       7.507   5.192  15.051  0.00  0.00    +0.000 S 
ENDBRANCH  16  17
ENDBRANCH  15  16
ENDBRANCH  14  15
ENDBRANCH   4   6
BRANCH   1  22
ATOM     22  C   UNL     1       1.298   9.979  18.920  0.00  0.00    +0.000 C 
BRANCH  22  25
ATOM     23  O   UNL     1      -0.904  11.401  19.751  0.00  0.00    +0.000 OA
ATOM     24  C   UNL     1      -0.964  10.850  18.657  0.00  0.00    +0.000 C 
ATOM     25  N   UNL     1       0.083  10.122  18.137  0.00  0.00    +0.000 N 
ATOM     26  H   UNL     1       0.082   9.832  17.168  0.00  0.00    +0.000 HD
BRANCH  24  27
ATOM     27  C   UNL     1      -2.195  10.970  17.830  0.00  0.00    +0.000 A 
ATOM     28  C   UNL     1      -3.333  11.539  18.420  0.00  0.00    +0.000 A 
ATOM     29  C   UNL     1      -4.533  11.615  17.711  0.00  0.00    +0.000 A 
ATOM     30  C   UNL     1      -4.604  11.115  16.412  0.00  0.00    +0.000 A 
ATOM     31  C   UNL     1      -3.476  10.546  15.819  0.00  0.00    +0.000 A 
ATOM     32  C   UNL     1      -2.271  10.471  16.523  0.00  0.00    +0.000 A 
ENDBRANCH  24  27
ENDBRANCH  22  25
ENDBRANCH   1  22
TORSDOF 7
ENDMDL
