MODEL 1
REMARK VINA RESULT:      -8.9      0.000      0.000
REMARK  Name = 
REMARK  5 active torsions:
REMARK  status: ('A' for Active; 'I' for Inactive)
REMARK    1  A    between atoms: C_1  and  C_2
REMARK    2  A    between atoms: C_2  and  C_3
REMARK    3  A    between atoms: C_3  and  N_4
REMARK    4  A    between atoms: C_9  and  C_10
REMARK    5  A    between atoms: C_24  and  N_25
REMARK                            x       y       z     vdW  Elec       q    Type
REMARK                         _______ _______ _______ _____ _____    ______ ____
ROOT
ATOM      1  N   UNL     1       2.872   6.446  18.805  0.00  0.00    +0.000 NA
ATOM      2  C   UNL     1       1.896   6.143  19.869  0.00  0.00    +0.000 C 
ATOM      3  C   UNL     1       1.780   7.309  20.838  0.00  0.00    +0.000 C 
ATOM      4  C   UNL     1       1.470   8.578  20.115  0.00  0.00    +0.000 A 
ATOM      5  N   UNL     1       0.917   9.553  20.868  0.00  0.00    +0.000 NA
ATOM      6  C   UNL     1       0.630  10.742  20.294  0.00  0.00    +0.000 A 
ATOM      7  C   UNL     1       0.885  10.965  18.943  0.00  0.00    +0.000 A 
ATOM      8  C   UNL     1       1.457   9.943  18.175  0.00  0.00    +0.000 A 
ATOM      9  C   UNL     1       1.775   8.719  18.767  0.00  0.00    +0.000 A 
ATOM     10  C   UNL     1       2.329   7.556  17.972  0.00  0.00    +0.000 C 
ENDROOT
BRANCH   6  11
ATOM     11  C   UNL     1       0.029  11.721  21.217  0.00  0.00    +0.000 A 
ATOM     12  C   UNL     1      -0.977  11.317  22.124  0.00  0.00    +0.000 A 
ATOM     13  C   UNL     1      -1.537  12.204  23.048  0.00  0.00    +0.000 A 
ATOM     14  C   UNL     1      -1.102  13.524  23.090  0.00  0.00    +0.000 A 
ATOM     15  C   UNL     1      -0.113  13.951  22.207  0.00  0.00    +0.000 A 
ATOM     16  C   UNL     1       0.440  13.057  21.287  0.00  0.00    +0.000 A 
ATOM     17  F   UNL     1       1.410  13.515  20.481  0.00  0.00    +0.000 F 
ENDBRANCH   6  11
BRANCH   1  18
ATOM     18  C   UNL     1       3.151   5.256  17.965  0.00  0.00    +0.000 C 
BRANCH  18  20
ATOM     19  C   UNL     1       5.116   4.384  19.298  0.00  0.00    +0.000 C 
ATOM     20  C   UNL     1       4.631   4.754  17.890  0.00  0.00    +0.000 C 
ATOM     21  C   UNL     1       4.787   3.558  16.908  0.00  0.00    +0.000 C 
ATOM     22  N   UNL     1       5.814   4.063  16.033  0.00  0.00    +0.000 N 
ATOM     23  C   UNL     1       6.345   3.740  14.844  0.00  0.00    +0.000 A 
ATOM     24  C   UNL     1       7.045   4.895  14.498  0.00  0.00    +0.000 A 
ATOM     25  N   UNL     1       6.929   5.889  15.475  0.00  0.00    +0.000 NA
ATOM     26  C   UNL     1       6.170   5.321  16.371  0.00  0.00    +0.000 A 
ATOM     27  O   UNL     1       5.550   5.807  17.438  0.00  0.00    +0.000 OA
BRANCH  24  28
ATOM     28  N   UNL     1       7.757   5.128  13.260  0.00  0.00    +0.000 N 
ATOM     29  O   UNL     1       7.322   4.551  12.253  0.00  0.00    +0.000 OA
ATOM     30  O   UNL     1       8.740   5.883  13.290  0.00  0.00    +0.000 OA
ENDBRANCH  24  28
ENDBRANCH  18  20
ENDBRANCH   1  18
TORSDOF 4
ENDMDL
MODEL 2
REMARK VINA RESULT:      -8.7      0.863      1.228
REMARK  Name = 
REMARK  5 active torsions:
REMARK  status: ('A' for Active; 'I' for Inactive)
REMARK    1  A    between atoms: C_1  and  C_2
REMARK    2  A    between atoms: C_2  and  C_3
REMARK    3  A    between atoms: C_3  and  N_4
REMARK    4  A    between atoms: C_9  and  C_10
REMARK    5  A    between atoms: C_24  and  N_25
REMARK                            x       y       z     vdW  Elec       q    Type
REMARK                         _______ _______ _______ _____ _____    ______ ____
ROOT
ATOM      1  N   UNL     1       2.873   6.507  18.758  0.00  0.00    +0.000 NA
ATOM      2  C   UNL     1       1.927   6.199  19.847  0.00  0.00    +0.000 C 
ATOM      3  C   UNL     1       1.846   7.356  20.831  0.00  0.00    +0.000 C 
ATOM      4  C   UNL     1       1.521   8.633  20.129  0.00  0.00    +0.000 A 
ATOM      5  N   UNL     1       0.995   9.604  20.907  0.00  0.00    +0.000 NA
ATOM      6  C   UNL     1       0.697  10.800  20.353  0.00  0.00    +0.000 A 
ATOM      7  C   UNL     1       0.913  11.034  18.998  0.00  0.00    +0.000 A 
ATOM      8  C   UNL     1       1.457  10.017  18.203  0.00  0.00    +0.000 A 
ATOM      9  C   UNL     1       1.787   8.786  18.773  0.00  0.00    +0.000 A 
ATOM     10  C   UNL     1       2.311   7.628  17.952  0.00  0.00    +0.000 C 
ENDROOT
BRANCH   6  11
ATOM     11  C   UNL     1       0.129  11.773  21.303  0.00  0.00    +0.000 A 
ATOM     12  C   UNL     1       0.480  13.139  21.213  0.00  0.00    +0.000 A 
ATOM     13  C   UNL     1      -0.075  14.101  22.063  0.00  0.00    +0.000 A 
ATOM     14  C   UNL     1      -1.001  13.718  23.027  0.00  0.00    +0.000 A 
ATOM     15  C   UNL     1      -1.365  12.379  23.139  0.00  0.00    +0.000 A 
ATOM     16  C   UNL     1      -0.804  11.426  22.286  0.00  0.00    +0.000 A 
ATOM     17  F   UNL     1      -1.214  10.155  22.419  0.00  0.00    +0.000 F 
ENDBRANCH   6  11
BRANCH   1  18
ATOM     18  C   UNL     1       3.120   5.323  17.899  0.00  0.00    +0.000 C 
BRANCH  18  20
ATOM     19  C   UNL     1       5.029   4.342  19.237  0.00  0.00    +0.000 C 
ATOM     20  C   UNL     1       4.583   4.770  17.833  0.00  0.00    +0.000 C 
ATOM     21  C   UNL     1       4.713   3.599  16.819  0.00  0.00    +0.000 C 
ATOM     22  N   UNL     1       5.773   4.091  15.977  0.00  0.00    +0.000 N 
ATOM     23  C   UNL     1       6.313   3.784  14.787  0.00  0.00    +0.000 A 
ATOM     24  C   UNL     1       7.060   4.921  14.488  0.00  0.00    +0.000 A 
ATOM     25  N   UNL     1       6.962   5.890  15.492  0.00  0.00    +0.000 NA
ATOM     26  C   UNL     1       6.168   5.325  16.358  0.00  0.00    +0.000 A 
ATOM     27  O   UNL     1       5.547   5.802  17.428  0.00  0.00    +0.000 OA
BRANCH  24  28
ATOM     28  N   UNL     1       7.802   5.164  13.269  0.00  0.00    +0.000 N 
ATOM     29  O   UNL     1       7.394   4.591  12.248  0.00  0.00    +0.000 OA
ATOM     30  O   UNL     1       8.780   5.924  13.327  0.00  0.00    +0.000 OA
ENDBRANCH  24  28
ENDBRANCH  18  20
ENDBRANCH   1  18
TORSDOF 4
ENDMDL
MODEL 3
REMARK VINA RESULT:      -8.6      2.134      2.674
REMARK  Name = 
REMARK  5 active torsions:
REMARK  status: ('A' for Active; 'I' for Inactive)
REMARK    1  A    between atoms: C_1  and  C_2
REMARK    2  A    between atoms: C_2  and  C_3
REMARK    3  A    between atoms: C_3  and  N_4
REMARK    4  A    between atoms: C_9  and  C_10
REMARK    5  A    between atoms: C_24  and  N_25
REMARK                            x       y       z     vdW  Elec       q    Type
REMARK                         _______ _______ _______ _____ _____    ______ ____
ROOT
ATOM      1  N   UNL     1       2.587   5.291  20.107  0.00  0.00    +0.000 NA
ATOM      2  C   UNL     1       1.399   5.735  20.861  0.00  0.00    +0.000 C 
ATOM      3  C   UNL     1       1.453   7.233  21.112  0.00  0.00    +0.000 C 
ATOM      4  C   UNL     1       1.640   7.984  19.835  0.00  0.00    +0.000 A 
ATOM      5  N   UNL     1       1.264   9.281  19.866  0.00  0.00    +0.000 NA
ATOM      6  C   UNL     1       1.424  10.037  18.758  0.00  0.00    +0.000 A 
ATOM      7  C   UNL     1       1.957   9.493  17.592  0.00  0.00    +0.000 A 
ATOM      8  C   UNL     1       2.341   8.147  17.575  0.00  0.00    +0.000 A 
ATOM      9  C   UNL     1       2.197   7.365  18.723  0.00  0.00    +0.000 A 
ATOM     10  C   UNL     1       2.528   5.888  18.743  0.00  0.00    +0.000 C 
ENDROOT
BRANCH   6  11
ATOM     11  C   UNL     1       0.975  11.431  18.916  0.00  0.00    +0.000 A 
ATOM     12  C   UNL     1       1.919  12.483  18.935  0.00  0.00    +0.000 A 
ATOM     13  C   UNL     1       1.530  13.822  19.034  0.00  0.00    +0.000 A 
ATOM     14  C   UNL     1       0.180  14.145  19.114  0.00  0.00    +0.000 A 
ATOM     15  C   UNL     1      -0.773  13.130  19.098  0.00  0.00    +0.000 A 
ATOM     16  C   UNL     1      -0.374  11.795  19.000  0.00  0.00    +0.000 A 
ATOM     17  F   UNL     1      -1.336  10.860  18.959  0.00  0.00    +0.000 F 
ENDBRANCH   6  11
BRANCH   1  18
ATOM     18  C   UNL     1       2.659   3.811  20.022  0.00  0.00    +0.000 C 
BRANCH  18  20
ATOM     19  C   UNL     1       4.268   1.867  20.197  0.00  0.00    +0.000 C 
ATOM     20  C   UNL     1       3.976   3.181  19.460  0.00  0.00    +0.000 C 
ATOM     21  C   UNL     1       3.903   2.961  17.923  0.00  0.00    +0.000 C 
ATOM     22  N   UNL     1       5.074   3.680  17.493  0.00  0.00    +0.000 N 
ATOM     23  C   UNL     1       5.586   4.134  16.339  0.00  0.00    +0.000 A 
ATOM     24  C   UNL     1       6.563   5.029  16.769  0.00  0.00    +0.000 A 
ATOM     25  N   UNL     1       6.628   5.101  18.164  0.00  0.00    +0.000 NA
ATOM     26  C   UNL     1       5.700   4.265  18.536  0.00  0.00    +0.000 A 
ATOM     27  O   UNL     1       5.148   4.028  19.719  0.00  0.00    +0.000 OA
BRANCH  24  28
ATOM     28  N   UNL     1       7.388   5.869  15.927  0.00  0.00    +0.000 N 
ATOM     29  O   UNL     1       7.577   5.477  14.767  0.00  0.00    +0.000 OA
ATOM     30  O   UNL     1       7.840   6.915  16.416  0.00  0.00    +0.000 OA
ENDBRANCH  24  28
ENDBRANCH  18  20
ENDBRANCH   1  18
TORSDOF 4
ENDMDL
MODEL 4
REMARK VINA RESULT:      -8.5      1.891      2.477
REMARK  Name = 
REMARK  5 active torsions:
REMARK  status: ('A' for Active; 'I' for Inactive)
REMARK    1  A    between atoms: C_1  and  C_2
REMARK    2  A    between atoms: C_2  and  C_3
REMARK    3  A    between atoms: C_3  and  N_4
REMARK    4  A    between atoms: C_9  and  C_10
REMARK    5  A    between atoms: C_24  and  N_25
REMARK                            x       y       z     vdW  Elec       q    Type
REMARK                         _______ _______ _______ _____ _____    ______ ____
ROOT
ATOM      1  N   UNL     1       2.617   5.255  20.099  0.00  0.00    +0.000 NA
ATOM      2  C   UNL     1       1.438   5.674  20.881  0.00  0.00    +0.000 C 
ATOM      3  C   UNL     1       1.478   7.170  21.150  0.00  0.00    +0.000 C 
ATOM      4  C   UNL     1       1.630   7.939  19.879  0.00  0.00    +0.000 A 
ATOM      5  N   UNL     1       1.238   9.230  19.933  0.00  0.00    +0.000 NA
ATOM      6  C   UNL     1       1.367  10.002  18.832  0.00  0.00    +0.000 A 
ATOM      7  C   UNL     1       1.885   9.479  17.649  0.00  0.00    +0.000 A 
ATOM      8  C   UNL     1       2.285   8.138  17.607  0.00  0.00    +0.000 A 
ATOM      9  C   UNL     1       2.174   7.341  18.748  0.00  0.00    +0.000 A 
ATOM     10  C   UNL     1       2.524   5.868  18.744  0.00  0.00    +0.000 C 
ENDROOT
BRANCH   6  11
ATOM     11  C   UNL     1       0.903  11.388  19.015  0.00  0.00    +0.000 A 
ATOM     12  C   UNL     1      -0.343  11.643  19.632  0.00  0.00    +0.000 A 
ATOM     13  C   UNL     1      -0.796  12.945  19.868  0.00  0.00    +0.000 A 
ATOM     14  C   UNL     1      -0.010  14.029  19.494  0.00  0.00    +0.000 A 
ATOM     15  C   UNL     1       1.222  13.807  18.883  0.00  0.00    +0.000 A 
ATOM     16  C   UNL     1       1.665  12.503  18.650  0.00  0.00    +0.000 A 
ATOM     17  F   UNL     1       2.873  12.349  18.086  0.00  0.00    +0.000 F 
ENDBRANCH   6  11
BRANCH   1  18
ATOM     18  C   UNL     1       2.706   3.778  19.995  0.00  0.00    +0.000 C 
BRANCH  18  20
ATOM     19  C   UNL     1       4.327   1.841  20.128  0.00  0.00    +0.000 C 
ATOM     20  C   UNL     1       4.030   3.171  19.423  0.00  0.00    +0.000 C 
ATOM     21  C   UNL     1       3.964   2.988  17.880  0.00  0.00    +0.000 C 
ATOM     22  N   UNL     1       5.132   3.725  17.473  0.00  0.00    +0.000 N 
ATOM     23  C   UNL     1       5.646   4.212  16.333  0.00  0.00    +0.000 A 
ATOM     24  C   UNL     1       6.615   5.102  16.789  0.00  0.00    +0.000 A 
ATOM     25  N   UNL     1       6.674   5.140  18.186  0.00  0.00    +0.000 NA
ATOM     26  C   UNL     1       5.750   4.288  18.534  0.00  0.00    +0.000 A 
ATOM     27  O   UNL     1       5.195   4.019  19.708  0.00  0.00    +0.000 OA
BRANCH  24  28
ATOM     28  N   UNL     1       7.437   5.969  15.972  0.00  0.00    +0.000 N 
ATOM     29  O   UNL     1       7.814   7.029  16.492  0.00  0.00    +0.000 OA
ATOM     30  O   UNL     1       7.710   5.594  14.822  0.00  0.00    +0.000 OA
ENDBRANCH  24  28
ENDBRANCH  18  20
ENDBRANCH   1  18
TORSDOF 4
ENDMDL
MODEL 5
REMARK VINA RESULT:      -8.4      5.136     11.053
REMARK  Name = 
REMARK  5 active torsions:
REMARK  status: ('A' for Active; 'I' for Inactive)
REMARK    1  A    between atoms: C_1  and  C_2
REMARK    2  A    between atoms: C_2  and  C_3
REMARK    3  A    between atoms: C_3  and  N_4
REMARK    4  A    between atoms: C_9  and  C_10
REMARK    5  A    between atoms: C_24  and  N_25
REMARK                            x       y       z     vdW  Elec       q    Type
REMARK                         _______ _______ _______ _____ _____    ______ ____
ROOT
ATOM      1  N   UNL     1       0.609   9.667  19.547  0.00  0.00    +0.000 NA
ATOM      2  C   UNL     1       0.733   9.564  18.080  0.00  0.00    +0.000 C 
ATOM      3  C   UNL     1       2.147   9.165  17.688  0.00  0.00    +0.000 C 
ATOM      4  C   UNL     1       2.565   7.915  18.391  0.00  0.00    +0.000 A 
ATOM      5  N   UNL     1       3.578   7.236  17.812  0.00  0.00    +0.000 NA
ATOM      6  C   UNL     1       4.033   6.108  18.400  0.00  0.00    +0.000 A 
ATOM      7  C   UNL     1       3.463   5.637  19.581  0.00  0.00    +0.000 A 
ATOM      8  C   UNL     1       2.412   6.352  20.169  0.00  0.00    +0.000 A 
ATOM      9  C   UNL     1       1.951   7.530  19.578  0.00  0.00    +0.000 A 
ATOM     10  C   UNL     1       0.774   8.305  20.128  0.00  0.00    +0.000 C 
ENDROOT
BRANCH   6  11
ATOM     11  C   UNL     1       5.136   5.457  17.672  0.00  0.00    +0.000 A 
ATOM     12  C   UNL     1       4.956   5.048  16.332  0.00  0.00    +0.000 A 
ATOM     13  C   UNL     1       5.994   4.471  15.591  0.00  0.00    +0.000 A 
ATOM     14  C   UNL     1       7.243   4.291  16.176  0.00  0.00    +0.000 A 
ATOM     15  C   UNL     1       7.447   4.685  17.496  0.00  0.00    +0.000 A 
ATOM     16  C   UNL     1       6.405   5.259  18.227  0.00  0.00    +0.000 A 
ATOM     17  F   UNL     1       6.668   5.646  19.485  0.00  0.00    +0.000 F 
ENDBRANCH   6  11
BRANCH   1  18
ATOM     18  C   UNL     1      -0.698  10.246  19.945  0.00  0.00    +0.000 C 
BRANCH  18  20
ATOM     19  C   UNL     1       0.757  11.998  21.046  0.00  0.00    +0.000 C 
ATOM     20  C   UNL     1      -0.679  11.475  20.914  0.00  0.00    +0.000 C 
ATOM     21  C   UNL     1      -1.648  12.597  20.445  0.00  0.00    +0.000 C 
ATOM     22  N   UNL     1      -2.457  12.763  21.624  0.00  0.00    +0.000 N 
ATOM     23  C   UNL     1      -3.610  13.364  21.954  0.00  0.00    +0.000 A 
ATOM     24  C   UNL     1      -3.913  12.789  23.187  0.00  0.00    +0.000 A 
ATOM     25  N   UNL     1      -2.947  11.857  23.580  0.00  0.00    +0.000 NA
ATOM     26  C   UNL     1      -2.100  11.889  22.590  0.00  0.00    +0.000 A 
ATOM     27  O   UNL     1      -1.075  11.106  22.280  0.00  0.00    +0.000 OA
BRANCH  24  28
ATOM     28  N   UNL     1      -5.105  13.024  23.973  0.00  0.00    +0.000 N 
ATOM     29  O   UNL     1      -5.586  14.165  23.924  0.00  0.00    +0.000 OA
ATOM     30  O   UNL     1      -5.561  12.078  24.632  0.00  0.00    +0.000 OA
ENDBRANCH  24  28
ENDBRANCH  18  20
ENDBRANCH   1  18
TORSDOF 4
ENDMDL
MODEL 6
REMARK VINA RESULT:      -8.3      5.775     10.870
REMARK  Name = 
REMARK  5 active torsions:
REMARK  status: ('A' for Active; 'I' for Inactive)
REMARK    1  A    between atoms: C_1  and  C_2
REMARK    2  A    between atoms: C_2  and  C_3
REMARK    3  A    between atoms: C_3  and  N_4
REMARK    4  A    between atoms: C_9  and  C_10
REMARK    5  A    between atoms: C_24  and  N_25
REMARK                            x       y       z     vdW  Elec       q    Type
REMARK                         _______ _______ _______ _____ _____    ______ ____
ROOT
ATOM      1  N   UNL     1      -0.099  10.898  20.769  0.00  0.00    +0.000 NA
ATOM      2  C   UNL     1       0.586  10.149  21.840  0.00  0.00    +0.000 C 
ATOM      3  C   UNL     1       0.713   8.681  21.470  0.00  0.00    +0.000 C 
ATOM      4  C   UNL     1       1.373   8.518  20.141  0.00  0.00    +0.000 A 
ATOM      5  N   UNL     1       1.932   7.309  19.915  0.00  0.00    +0.000 NA
ATOM      6  C   UNL     1       2.527   7.073  18.726  0.00  0.00    +0.000 A 
ATOM      7  C   UNL     1       2.580   8.059  17.744  0.00  0.00    +0.000 A 
ATOM      8  C   UNL     1       1.998   9.308  17.992  0.00  0.00    +0.000 A 
ATOM      9  C   UNL     1       1.363   9.552  19.212  0.00  0.00    +0.000 A 
ATOM     10  C   UNL     1       0.779  10.904  19.565  0.00  0.00    +0.000 C 
ENDROOT
BRANCH   6  11
ATOM     11  C   UNL     1       3.100   5.721  18.602  0.00  0.00    +0.000 A 
ATOM     12  C   UNL     1       4.350   5.425  19.190  0.00  0.00    +0.000 A 
ATOM     13  C   UNL     1       4.905   4.141  19.136  0.00  0.00    +0.000 A 
ATOM     14  C   UNL     1       4.218   3.118  18.493  0.00  0.00    +0.000 A 
ATOM     15  C   UNL     1       2.984   3.382  17.904  0.00  0.00    +0.000 A 
ATOM     16  C   UNL     1       2.439   4.667  17.962  0.00  0.00    +0.000 A 
ATOM     17  F   UNL     1       1.233   4.856  17.403  0.00  0.00    +0.000 F 
ENDBRANCH   6  11
BRANCH   1  18
ATOM     18  C   UNL     1      -0.413  12.286  21.188  0.00  0.00    +0.000 C 
BRANCH  18  20
ATOM     19  C   UNL     1      -0.784  14.154  19.523  0.00  0.00    +0.000 C 
ATOM     20  C   UNL     1      -1.481  13.069  20.354  0.00  0.00    +0.000 C 
ATOM     21  C   UNL     1      -2.320  12.121  19.452  0.00  0.00    +0.000 C 
ATOM     22  N   UNL     1      -3.654  12.456  19.878  0.00  0.00    +0.000 N 
ATOM     23  C   UNL     1      -4.891  11.953  19.744  0.00  0.00    +0.000 A 
ATOM     24  C   UNL     1      -5.608  12.635  20.724  0.00  0.00    +0.000 A 
ATOM     25  N   UNL     1      -4.801  13.535  21.430  0.00  0.00    +0.000 NA
ATOM     26  C   UNL     1      -3.635  13.373  20.869  0.00  0.00    +0.000 A 
ATOM     27  O   UNL     1      -2.426  13.798  21.211  0.00  0.00    +0.000 OA
BRANCH  24  28
ATOM     28  N   UNL     1      -6.997  12.428  21.073  0.00  0.00    +0.000 N 
ATOM     29  O   UNL     1      -7.268  11.374  21.667  0.00  0.00    +0.000 OA
ATOM     30  O   UNL     1      -7.811  13.309  20.761  0.00  0.00    +0.000 OA
ENDBRANCH  24  28
ENDBRANCH  18  20
ENDBRANCH   1  18
TORSDOF 4
ENDMDL
MODEL 7
REMARK VINA RESULT:      -8.2      4.973     10.942
REMARK  Name = 
REMARK  5 active torsions:
REMARK  status: ('A' for Active; 'I' for Inactive)
REMARK    1  A    between atoms: C_1  and  C_2
REMARK    2  A    between atoms: C_2  and  C_3
REMARK    3  A    between atoms: C_3  and  N_4
REMARK    4  A    between atoms: C_9  and  C_10
REMARK    5  A    between atoms: C_24  and  N_25
REMARK                            x       y       z     vdW  Elec       q    Type
REMARK                         _______ _______ _______ _____ _____    ______ ____
ROOT
ATOM      1  N   UNL     1       1.162   9.027  20.046  0.00  0.00    +0.000 NA
ATOM      2  C   UNL     1       0.927   9.096  18.591  0.00  0.00    +0.000 C 
ATOM      3  C   UNL     1       2.220   8.861  17.828  0.00  0.00    +0.000 C 
ATOM      4  C   UNL     1       2.864   7.580  18.248  0.00  0.00    +0.000 A 
ATOM      5  N   UNL     1       3.739   7.054  17.363  0.00  0.00    +0.000 NA
ATOM      6  C   UNL     1       4.383   5.910  17.679  0.00  0.00    +0.000 A 
ATOM      7  C   UNL     1       4.147   5.267  18.891  0.00  0.00    +0.000 A 
ATOM      8  C   UNL     1       3.237   5.823  19.798  0.00  0.00    +0.000 A 
ATOM      9  C   UNL     1       2.582   7.017  19.487  0.00  0.00    +0.000 A 
ATOM     10  C   UNL     1       1.536   7.627  20.395  0.00  0.00    +0.000 C 
ENDROOT
BRANCH   6  11
ATOM     11  C   UNL     1       5.307   5.436  16.633  0.00  0.00    +0.000 A 
ATOM     12  C   UNL     1       4.814   4.699  15.532  0.00  0.00    +0.000 A 
ATOM     13  C   UNL     1       5.651   4.275  14.495  0.00  0.00    +0.000 A 
ATOM     14  C   UNL     1       7.007   4.579  14.532  0.00  0.00    +0.000 A 
ATOM     15  C   UNL     1       7.520   5.303  15.606  0.00  0.00    +0.000 A 
ATOM     16  C   UNL     1       6.677   5.722  16.637  0.00  0.00    +0.000 A 
ATOM     17  F   UNL     1       7.221   6.442  17.631  0.00  0.00    +0.000 F 
ENDBRANCH   6  11
BRANCH   1  18
ATOM     18  C   UNL     1      -0.036   9.449  20.813  0.00  0.00    +0.000 C 
BRANCH  18  20
ATOM     19  C   UNL     1       1.160  11.676  20.886  0.00  0.00    +0.000 C 
ATOM     20  C   UNL     1      -0.173  10.968  21.163  0.00  0.00    +0.000 C 
ATOM     21  C   UNL     1      -1.339  11.639  20.383  0.00  0.00    +0.000 C 
ATOM     22  N   UNL     1      -2.101  12.197  21.470  0.00  0.00    +0.000 N 
ATOM     23  C   UNL     1      -3.320  12.729  21.652  0.00  0.00    +0.000 A 
ATOM     24  C   UNL     1      -3.456  12.715  23.039  0.00  0.00    +0.000 A 
ATOM     25  N   UNL     1      -2.328  12.181  23.669  0.00  0.00    +0.000 NA
ATOM     26  C   UNL     1      -1.552  11.887  22.664  0.00  0.00    +0.000 A 
ATOM     27  O   UNL     1      -0.428  11.186  22.593  0.00  0.00    +0.000 OA
BRANCH  24  28
ATOM     28  N   UNL     1      -4.627  13.115  23.789  0.00  0.00    +0.000 N 
ATOM     29  O   UNL     1      -5.061  12.300  24.616  0.00  0.00    +0.000 OA
ATOM     30  O   UNL     1      -5.108  14.235  23.561  0.00  0.00    +0.000 OA
ENDBRANCH  24  28
ENDBRANCH  18  20
ENDBRANCH   1  18
TORSDOF 4
ENDMDL
MODEL 8
REMARK VINA RESULT:      -8.1      5.713     10.281
REMARK  Name = 
REMARK  5 active torsions:
REMARK  status: ('A' for Active; 'I' for Inactive)
REMARK    1  A    between atoms: C_1  and  C_2
REMARK    2  A    between atoms: C_2  and  C_3
REMARK    3  A    between atoms: C_3  and  N_4
REMARK    4  A    between atoms: C_9  and  C_10
REMARK    5  A    between atoms: C_24  and  N_25
REMARK                            x       y       z     vdW  Elec       q    Type
REMARK                         _______ _______ _______ _____ _____    ______ ____
ROOT
ATOM      1  N   UNL     1       0.190  10.852  20.342  0.00  0.00    +0.000 NA
ATOM      2  C   UNL     1       0.733  10.271  21.585  0.00  0.00    +0.000 C 
ATOM      3  C   UNL     1       0.708   8.753  21.522  0.00  0.00    +0.000 C 
ATOM      4  C   UNL     1       1.407   8.256  20.300  0.00  0.00    +0.000 A 
ATOM      5  N   UNL     1       1.833   6.975  20.356  0.00  0.00    +0.000 NA
ATOM      6  C   UNL     1       2.452   6.442  19.280  0.00  0.00    +0.000 A 
ATOM      7  C   UNL     1       2.664   7.196  18.129  0.00  0.00    +0.000 A 
ATOM      8  C   UNL     1       2.218   8.523  18.086  0.00  0.00    +0.000 A 
ATOM      9  C   UNL     1       1.559   9.074  19.187  0.00  0.00    +0.000 A 
ATOM     10  C   UNL     1       1.118  10.522  19.225  0.00  0.00    +0.000 C 
ENDROOT
BRANCH   6  11
ATOM     11  C   UNL     1       2.871   5.041  19.466  0.00  0.00    +0.000 A 
ATOM     12  C   UNL     1       4.202   4.656  19.183  0.00  0.00    +0.000 A 
ATOM     13  C   UNL     1       4.651   3.348  19.393  0.00  0.00    +0.000 A 
ATOM     14  C   UNL     1       3.778   2.389  19.894  0.00  0.00    +0.000 A 
ATOM     15  C   UNL     1       2.461   2.741  20.180  0.00  0.00    +0.000 A 
ATOM     16  C   UNL     1       2.021   4.049  19.967  0.00  0.00    +0.000 A 
ATOM     17  F   UNL     1       0.751   4.338  20.289  0.00  0.00    +0.000 F 
ENDBRANCH   6  11
BRANCH   1  18
ATOM     18  C   UNL     1       0.017  12.321  20.457  0.00  0.00    +0.000 C 
BRANCH  18  20
ATOM     19  C   UNL     1      -0.578  14.310  19.011  0.00  0.00    +0.000 C 
ATOM     20  C   UNL     1      -1.101  12.988  19.589  0.00  0.00    +0.000 C 
ATOM     21  C   UNL     1      -1.603  12.040  18.463  0.00  0.00    +0.000 C 
ATOM     22  N   UNL     1      -3.016  12.023  18.737  0.00  0.00    +0.000 N 
ATOM     23  C   UNL     1      -4.086  11.303  18.367  0.00  0.00    +0.000 A 
ATOM     24  C   UNL     1      -5.040  11.662  19.316  0.00  0.00    +0.000 A 
ATOM     25  N   UNL     1      -4.538  12.587  20.238  0.00  0.00    +0.000 NA
ATOM     26  C   UNL     1      -3.312  12.758  19.831  0.00  0.00    +0.000 A 
ATOM     27  O   UNL     1      -2.273  13.364  20.391  0.00  0.00    +0.000 OA
BRANCH  24  28
ATOM     28  N   UNL     1      -6.377  11.121  19.436  0.00  0.00    +0.000 N 
ATOM     29  O   UNL     1      -6.789  10.908  20.586  0.00  0.00    +0.000 OA
ATOM     30  O   UNL     1      -7.014  10.913  18.393  0.00  0.00    +0.000 OA
ENDBRANCH  24  28
ENDBRANCH  18  20
ENDBRANCH   1  18
TORSDOF 4
ENDMDL
MODEL 9
REMARK VINA RESULT:      -8.1      5.665     10.662
REMARK  Name = 
REMARK  5 active torsions:
REMARK  status: ('A' for Active; 'I' for Inactive)
REMARK    1  A    between atoms: C_1  and  C_2
REMARK    2  A    between atoms: C_2  and  C_3
REMARK    3  A    between atoms: C_3  and  N_4
REMARK    4  A    between atoms: C_9  and  C_10
REMARK    5  A    between atoms: C_24  and  N_25
REMARK                            x       y       z     vdW  Elec       q    Type
REMARK                         _______ _______ _______ _____ _____    ______ ____
ROOT
ATOM      1  N   UNL     1       0.371  10.882  20.316  0.00  0.00    +0.000 NA
ATOM      2  C   UNL     1       0.877  10.135  21.483  0.00  0.00    +0.000 C 
ATOM      3  C   UNL     1       0.812   8.638  21.230  0.00  0.00    +0.000 C 
ATOM      4  C   UNL     1       1.519   8.278  19.965  0.00  0.00    +0.000 A 
ATOM      5  N   UNL     1       1.910   6.989  19.866  0.00  0.00    +0.000 NA
ATOM      6  C   UNL     1       2.534   6.576  18.741  0.00  0.00    +0.000 A 
ATOM      7  C   UNL     1       2.786   7.462  17.697  0.00  0.00    +0.000 A 
ATOM      8  C   UNL     1       2.377   8.796  17.814  0.00  0.00    +0.000 A 
ATOM      9  C   UNL     1       1.713   9.225  18.966  0.00  0.00    +0.000 A 
ATOM     10  C   UNL     1       1.311  10.668  19.179  0.00  0.00    +0.000 C 
ENDROOT
BRANCH   6  11
ATOM     11  C   UNL     1       2.912   5.152  18.755  0.00  0.00    +0.000 A 
ATOM     12  C   UNL     1       2.021   4.177  18.252  0.00  0.00    +0.000 A 
ATOM     13  C   UNL     1       2.362   2.821  18.203  0.00  0.00    +0.000 A 
ATOM     14  C   UNL     1       3.610   2.406  18.656  0.00  0.00    +0.000 A 
ATOM     15  C   UNL     1       4.507   3.345  19.158  0.00  0.00    +0.000 A 
ATOM     16  C   UNL     1       4.156   4.697  19.204  0.00  0.00    +0.000 A 
ATOM     17  F   UNL     1       5.072   5.561  19.670  0.00  0.00    +0.000 F 
ENDBRANCH   6  11
BRANCH   1  18
ATOM     18  C   UNL     1       0.236  12.330  20.611  0.00  0.00    +0.000 C 
BRANCH  18  20
ATOM     19  C   UNL     1      -0.317  14.196  18.996  0.00  0.00    +0.000 C 
ATOM     20  C   UNL     1      -0.918  13.110  19.897  0.00  0.00    +0.000 C 
ATOM     21  C   UNL     1      -1.846  12.158  19.091  0.00  0.00    +0.000 C 
ATOM     22  N   UNL     1      -3.128  12.490  19.658  0.00  0.00    +0.000 N 
ATOM     23  C   UNL     1      -4.370  11.982  19.658  0.00  0.00    +0.000 A 
ATOM     24  C   UNL     1      -4.979  12.663  20.711  0.00  0.00    +0.000 A 
ATOM     25  N   UNL     1      -4.104  13.565  21.325  0.00  0.00    +0.000 NA
ATOM     26  C   UNL     1      -3.005  13.407  20.642  0.00  0.00    +0.000 A 
ATOM     27  O   UNL     1      -1.767  13.836  20.851  0.00  0.00    +0.000 OA
BRANCH  24  28
ATOM     28  N   UNL     1      -6.322  12.451  21.207  0.00  0.00    +0.000 N 
ATOM     29  O   UNL     1      -6.909  13.443  21.660  0.00  0.00    +0.000 OA
ATOM     30  O   UNL     1      -6.790  11.304  21.141  0.00  0.00    +0.000 OA
ENDBRANCH  24  28
ENDBRANCH  18  20
ENDBRANCH   1  18
TORSDOF 4
ENDMDL
