MODEL 1
REMARK VINA RESULT:      -7.3      0.000      0.000
REMARK  Name = 
REMARK  2 active torsions:
REMARK  status: ('A' for Active; 'I' for Inactive)
REMARK    1  A    between atoms: C_2  and  C_4
REMARK    2  A    between atoms: N_7  and  C_8
REMARK                            x       y       z     vdW  Elec       q    Type
REMARK                         _______ _______ _______ _____ _____    ______ ____
ROOT
ATOM      1  C   UNL     1       2.231   7.303  18.878  0.00  0.00    +0.000 A 
ATOM      2  C   UNL     1       2.335   8.279  17.961  0.00  0.00    +0.000 A 
ATOM      3  S   UNL     1       1.794   9.900  18.058  0.00  0.00    +0.000 S 
ATOM      4  C   UNL     1       1.022   9.951  19.643  0.00  0.00    +0.000 A 
ATOM      5  C   UNL     1       0.400  11.167  20.004  0.00  0.00    +0.000 A 
ATOM      6  C   UNL     1      -0.209  11.320  21.246  0.00  0.00    +0.000 A 
ATOM      7  C   UNL     1      -0.196  10.264  22.142  0.00  0.00    +0.000 A 
ATOM      8  F   UNL     1      -0.768  10.411  23.343  0.00  0.00    +0.000 F 
ATOM      9  C   UNL     1       0.403   9.054  21.809  0.00  0.00    +0.000 A 
ATOM     10  C   UNL     1       1.004   8.886  20.545  0.00  0.00    +0.000 A 
ATOM     11  C   UNL     1       1.594   7.562  20.227  0.00  0.00    +0.000 A 
ATOM     12  O   UNL     1       1.567   6.685  21.093  0.00  0.00    +0.000 OA
ENDROOT
BRANCH   1  16
ATOM     13  C   UNL     1       3.039   3.319  19.617  0.00  0.00    +0.000 C 
ATOM     14  C   UNL     1       1.786   3.733  18.824  0.00  0.00    +0.000 C 
ATOM     15  C   UNL     1       1.938   4.975  17.949  0.00  0.00    +0.000 C 
ATOM     16  N   UNL     1       2.722   6.008  18.620  0.00  0.00    +0.000 N 
ATOM     17  C   UNL     1       4.072   5.575  18.970  0.00  0.00    +0.000 C 
ATOM     18  C   UNL     1       3.963   4.480  20.023  0.00  0.00    +0.000 C 
BRANCH  13  20
ATOM     19  N   UNL     1       4.900   1.746  19.626  0.00  0.00    +0.000 N 
ATOM     20  C   UNL     1       3.810   2.199  18.932  0.00  0.00    +0.000 C 
ATOM     21  O   UNL     1       3.529   1.728  17.837  0.00  0.00    +0.000 OA
ATOM     22  H   UNL     1       5.513   1.089  19.159  0.00  0.00    +0.000 HD
ATOM     23  H   UNL     1       5.237   2.202  20.465  0.00  0.00    +0.000 HD
ENDBRANCH  13  20
ENDBRANCH   1  16
TORSDOF 2
ENDMDL
MODEL 2
REMARK VINA RESULT:      -6.9      0.805      1.388
REMARK  Name = 
REMARK  2 active torsions:
REMARK  status: ('A' for Active; 'I' for Inactive)
REMARK    1  A    between atoms: C_2  and  C_4
REMARK    2  A    between atoms: N_7  and  C_8
REMARK                            x       y       z     vdW  Elec       q    Type
REMARK                         _______ _______ _______ _____ _____    ______ ____
ROOT
ATOM      1  C   UNL     1       2.178   7.396  19.290  0.00  0.00    +0.000 A 
ATOM      2  C   UNL     1       2.305   8.148  18.184  0.00  0.00    +0.000 A 
ATOM      3  S   UNL     1       1.771   9.751  17.913  0.00  0.00    +0.000 S 
ATOM      4  C   UNL     1       0.967  10.149  19.433  0.00  0.00    +0.000 A 
ATOM      5  C   UNL     1       0.344  11.414  19.507  0.00  0.00    +0.000 A 
ATOM      6  C   UNL     1      -0.290  11.835  20.672  0.00  0.00    +0.000 A 
ATOM      7  C   UNL     1      -0.300  11.001  21.777  0.00  0.00    +0.000 A 
ATOM      8  F   UNL     1      -0.895  11.407  22.905  0.00  0.00    +0.000 F 
ATOM      9  C   UNL     1       0.299   9.747  21.729  0.00  0.00    +0.000 A 
ATOM     10  C   UNL     1       0.925   9.306  20.545  0.00  0.00    +0.000 A 
ATOM     11  C   UNL     1       1.515   7.944  20.537  0.00  0.00    +0.000 A 
ATOM     12  O   UNL     1       1.466   7.277  21.573  0.00  0.00    +0.000 OA
ENDROOT
BRANCH   1  16
ATOM     13  C   UNL     1       3.605   3.814  17.805  0.00  0.00    +0.000 C 
ATOM     14  C   UNL     1       4.575   4.906  18.290  0.00  0.00    +0.000 C 
ATOM     15  C   UNL     1       4.085   5.753  19.463  0.00  0.00    +0.000 C 
ATOM     16  N   UNL     1       2.667   6.076  19.332  0.00  0.00    +0.000 N 
ATOM     17  C   UNL     1       1.807   4.896  19.279  0.00  0.00    +0.000 C 
ATOM     18  C   UNL     1       2.113   4.141  17.992  0.00  0.00    +0.000 C 
BRANCH  13  20
ATOM     19  N   UNL     1       4.914   2.452  19.343  0.00  0.00    +0.000 N 
ATOM     20  C   UNL     1       3.954   2.442  18.367  0.00  0.00    +0.000 C 
ATOM     21  O   UNL     1       3.461   1.388  17.989  0.00  0.00    +0.000 OA
ATOM     22  H   UNL     1       5.267   1.557  19.662  0.00  0.00    +0.000 HD
ATOM     23  H   UNL     1       5.437   3.284  19.584  0.00  0.00    +0.000 HD
ENDBRANCH  13  20
ENDBRANCH   1  16
TORSDOF 2
ENDMDL
MODEL 3
REMARK VINA RESULT:      -6.7      3.156      3.691
REMARK  Name = 
REMARK  2 active torsions:
REMARK  status: ('A' for Active; 'I' for Inactive)
REMARK    1  A    between atoms: C_2  and  C_4
REMARK    2  A    between atoms: N_7  and  C_8
REMARK                            x       y       z     vdW  Elec       q    Type
REMARK                         _______ _______ _______ _____ _____    ______ ____
ROOT
ATOM      1  C   UNL     1       3.155   6.471  18.353  0.00  0.00    +0.000 A 
ATOM      2  C   UNL     1       2.949   5.707  19.439  0.00  0.00    +0.000 A 
ATOM      3  S   UNL     1       2.030   6.061  20.838  0.00  0.00    +0.000 S 
ATOM      4  C   UNL     1       1.463   7.702  20.518  0.00  0.00    +0.000 A 
ATOM      5  C   UNL     1       0.712   8.321  21.541  0.00  0.00    +0.000 A 
ATOM      6  C   UNL     1       0.193   9.602  21.375  0.00  0.00    +0.000 A 
ATOM      7  C   UNL     1       0.411  10.271  20.182  0.00  0.00    +0.000 A 
ATOM      8  F   UNL     1      -0.099  11.497  20.011  0.00  0.00    +0.000 F 
ATOM      9  C   UNL     1       1.152   9.687  19.162  0.00  0.00    +0.000 A 
ATOM     10  C   UNL     1       1.699   8.398  19.332  0.00  0.00    +0.000 A 
ATOM     11  C   UNL     1       2.514   7.838  18.226  0.00  0.00    +0.000 A 
ATOM     12  O   UNL     1       2.646   8.505  17.198  0.00  0.00    +0.000 OA
ENDROOT
BRANCH   1  16
ATOM     13  C   UNL     1       6.486   4.853  16.522  0.00  0.00    +0.000 C 
ATOM     14  C   UNL     1       5.270   3.973  16.860  0.00  0.00    +0.000 C 
ATOM     15  C   UNL     1       3.909   4.661  16.766  0.00  0.00    +0.000 C 
ATOM     16  N   UNL     1       3.963   6.022  17.290  0.00  0.00    +0.000 N 
ATOM     17  C   UNL     1       4.914   6.878  16.586  0.00  0.00    +0.000 C 
ATOM     18  C   UNL     1       6.317   6.347  16.849  0.00  0.00    +0.000 C 
BRANCH  13  20
ATOM     19  N   UNL     1       6.398   3.580  14.446  0.00  0.00    +0.000 N 
ATOM     20  C   UNL     1       6.973   4.641  15.094  0.00  0.00    +0.000 C 
ATOM     21  O   UNL     1       7.824   5.323  14.540  0.00  0.00    +0.000 OA
ATOM     22  H   UNL     1       6.775   3.325  13.541  0.00  0.00    +0.000 HD
ATOM     23  H   UNL     1       5.795   2.918  14.917  0.00  0.00    +0.000 HD
ENDBRANCH  13  20
ENDBRANCH   1  16
TORSDOF 2
ENDMDL
MODEL 4
REMARK VINA RESULT:      -6.6      2.751      3.237
REMARK  Name = 
REMARK  2 active torsions:
REMARK  status: ('A' for Active; 'I' for Inactive)
REMARK    1  A    between atoms: C_2  and  C_4
REMARK    2  A    between atoms: N_7  and  C_8
REMARK                            x       y       z     vdW  Elec       q    Type
REMARK                         _______ _______ _______ _____ _____    ______ ____
ROOT
ATOM      1  C   UNL     1       2.756   7.106  18.663  0.00  0.00    +0.000 A 
ATOM      2  C   UNL     1       2.428   6.617  19.871  0.00  0.00    +0.000 A 
ATOM      3  S   UNL     1       1.428   7.313  21.072  0.00  0.00    +0.000 S 
ATOM      4  C   UNL     1       0.977   8.857  20.346  0.00  0.00    +0.000 A 
ATOM      5  C   UNL     1       0.187   9.720  21.137  0.00  0.00    +0.000 A 
ATOM      6  C   UNL     1      -0.248  10.947  20.645  0.00  0.00    +0.000 A 
ATOM      7  C   UNL     1       0.095  11.319  19.356  0.00  0.00    +0.000 A 
ATOM      8  F   UNL     1      -0.332  12.492  18.872  0.00  0.00    +0.000 F 
ATOM      9  C   UNL     1       0.878  10.492  18.558  0.00  0.00    +0.000 A 
ATOM     10  C   UNL     1       1.339   9.256  19.059  0.00  0.00    +0.000 A 
ATOM     11  C   UNL     1       2.203   8.430  18.180  0.00  0.00    +0.000 A 
ATOM     12  O   UNL     1       2.447   8.841  17.043  0.00  0.00    +0.000 OA
ENDROOT
BRANCH   1  16
ATOM     13  C   UNL     1       5.998   4.785  17.578  0.00  0.00    +0.000 C 
ATOM     14  C   UNL     1       4.622   4.144  17.831  0.00  0.00    +0.000 C 
ATOM     15  C   UNL     1       3.414   4.996  17.446  0.00  0.00    +0.000 C 
ATOM     16  N   UNL     1       3.615   6.398  17.800  0.00  0.00    +0.000 N 
ATOM     17  C   UNL     1       4.777   6.999  17.150  0.00  0.00    +0.000 C 
ATOM     18  C   UNL     1       6.029   6.319  17.688  0.00  0.00    +0.000 C 
BRANCH  13  20
ATOM     19  N   UNL     1       6.026   3.204  15.725  0.00  0.00    +0.000 N 
ATOM     20  C   UNL     1       6.629   4.301  16.279  0.00  0.00    +0.000 C 
ATOM     21  O   UNL     1       7.611   4.807  15.752  0.00  0.00    +0.000 OA
ATOM     22  H   UNL     1       6.481   2.773  14.929  0.00  0.00    +0.000 HD
ATOM     23  H   UNL     1       5.301   2.683  16.201  0.00  0.00    +0.000 HD
ENDBRANCH  13  20
ENDBRANCH   1  16
TORSDOF 2
ENDMDL
MODEL 5
REMARK VINA RESULT:      -6.6      5.349      7.684
REMARK  Name = 
REMARK  2 active torsions:
REMARK  status: ('A' for Active; 'I' for Inactive)
REMARK    1  A    between atoms: C_2  and  C_4
REMARK    2  A    between atoms: N_7  and  C_8
REMARK                            x       y       z     vdW  Elec       q    Type
REMARK                         _______ _______ _______ _____ _____    ______ ____
ROOT
ATOM      1  C   UNL     1       5.308   4.771  17.540  0.00  0.00    +0.000 A 
ATOM      2  C   UNL     1       6.220   5.756  17.606  0.00  0.00    +0.000 A 
ATOM      3  S   UNL     1       7.264   6.331  16.378  0.00  0.00    +0.000 S 
ATOM      4  C   UNL     1       6.878   5.272  15.020  0.00  0.00    +0.000 A 
ATOM      5  C   UNL     1       7.637   5.451  13.843  0.00  0.00    +0.000 A 
ATOM      6  C   UNL     1       7.389   4.687  12.706  0.00  0.00    +0.000 A 
ATOM      7  C   UNL     1       6.374   3.745  12.731  0.00  0.00    +0.000 A 
ATOM      8  F   UNL     1       6.122   3.018  11.636  0.00  0.00    +0.000 F 
ATOM      9  C   UNL     1       5.617   3.543  13.880  0.00  0.00    +0.000 A 
ATOM     10  C   UNL     1       5.876   4.299  15.041  0.00  0.00    +0.000 A 
ATOM     11  C   UNL     1       5.064   4.017  16.250  0.00  0.00    +0.000 A 
ATOM     12  O   UNL     1       4.176   3.165  16.174  0.00  0.00    +0.000 OA
ENDROOT
BRANCH   1  16
ATOM     13  C   UNL     1       2.558   2.620  19.749  0.00  0.00    +0.000 C 
ATOM     14  C   UNL     1       4.060   2.291  19.829  0.00  0.00    +0.000 C 
ATOM     15  C   UNL     1       5.006   3.482  19.688  0.00  0.00    +0.000 C 
ATOM     16  N   UNL     1       4.540   4.415  18.666  0.00  0.00    +0.000 N 
ATOM     17  C   UNL     1       3.215   4.964  18.942  0.00  0.00    +0.000 C 
ATOM     18  C   UNL     1       2.204   3.827  18.864  0.00  0.00    +0.000 C 
BRANCH  13  20
ATOM     19  N   UNL     1       0.575   2.994  21.114  0.00  0.00    +0.000 N 
ATOM     20  C   UNL     1       1.917   2.725  21.127  0.00  0.00    +0.000 C 
ATOM     21  O   UNL     1       2.520   2.611  22.186  0.00  0.00    +0.000 OA
ATOM     22  H   UNL     1       0.129   3.193  22.002  0.00  0.00    +0.000 HD
ATOM     23  H   UNL     1       0.075   3.227  20.266  0.00  0.00    +0.000 HD
ENDBRANCH  13  20
ENDBRANCH   1  16
TORSDOF 2
ENDMDL
MODEL 6
REMARK VINA RESULT:      -6.4      1.249      1.368
REMARK  Name = 
REMARK  2 active torsions:
REMARK  status: ('A' for Active; 'I' for Inactive)
REMARK    1  A    between atoms: C_2  and  C_4
REMARK    2  A    between atoms: N_7  and  C_8
REMARK                            x       y       z     vdW  Elec       q    Type
REMARK                         _______ _______ _______ _____ _____    ______ ____
ROOT
ATOM      1  C   UNL     1       2.098   7.993  18.544  0.00  0.00    +0.000 A 
ATOM      2  C   UNL     1       1.999   9.136  17.846  0.00  0.00    +0.000 A 
ATOM      3  S   UNL     1       1.338  10.637  18.337  0.00  0.00    +0.000 S 
ATOM      4  C   UNL     1       0.774  10.290  19.973  0.00  0.00    +0.000 A 
ATOM      5  C   UNL     1       0.103  11.335  20.644  0.00  0.00    +0.000 A 
ATOM      6  C   UNL     1      -0.354  11.172  21.949  0.00  0.00    +0.000 A 
ATOM      7  C   UNL     1      -0.135   9.968  22.598  0.00  0.00    +0.000 A 
ATOM      8  F   UNL     1      -0.558   9.812  23.858  0.00  0.00    +0.000 F 
ATOM      9  C   UNL     1       0.518   8.921  21.957  0.00  0.00    +0.000 A 
ATOM     10  C   UNL     1       0.964   9.072  20.628  0.00  0.00    +0.000 A 
ATOM     11  C   UNL     1       1.620   7.910  19.979  0.00  0.00    +0.000 A 
ATOM     12  O   UNL     1       1.779   6.881  20.640  0.00  0.00    +0.000 OA
ENDROOT
BRANCH   1  16
ATOM     13  C   UNL     1       4.110   4.386  18.440  0.00  0.00    +0.000 C 
ATOM     14  C   UNL     1       2.572   4.427  18.500  0.00  0.00    +0.000 C 
ATOM     15  C   UNL     1       1.913   5.598  17.774  0.00  0.00    +0.000 C 
ATOM     16  N   UNL     1       2.660   6.836  17.971  0.00  0.00    +0.000 N 
ATOM     17  C   UNL     1       4.037   6.765  17.488  0.00  0.00    +0.000 C 
ATOM     18  C   UNL     1       4.792   5.761  18.349  0.00  0.00    +0.000 C 
BRANCH  13  20
ATOM     19  N   UNL     1       4.232   2.129  17.530  0.00  0.00    +0.000 N 
ATOM     20  C   UNL     1       4.619   3.432  17.368  0.00  0.00    +0.000 C 
ATOM     21  O   UNL     1       5.341   3.756  16.433  0.00  0.00    +0.000 OA
ATOM     22  H   UNL     1       4.643   1.438  16.914  0.00  0.00    +0.000 HD
ATOM     23  H   UNL     1       3.751   1.804  18.360  0.00  0.00    +0.000 HD
ENDBRANCH  13  20
ENDBRANCH   1  16
TORSDOF 2
ENDMDL
MODEL 7
REMARK VINA RESULT:      -6.4      3.395      7.021
REMARK  Name = 
REMARK  2 active torsions:
REMARK  status: ('A' for Active; 'I' for Inactive)
REMARK    1  A    between atoms: C_2  and  C_4
REMARK    2  A    between atoms: N_7  and  C_8
REMARK                            x       y       z     vdW  Elec       q    Type
REMARK                         _______ _______ _______ _____ _____    ______ ____
ROOT
ATOM      1  C   UNL     1       2.230   7.638  19.006  0.00  0.00    +0.000 A 
ATOM      2  C   UNL     1       3.121   7.360  18.040  0.00  0.00    +0.000 A 
ATOM      3  S   UNL     1       3.989   5.910  17.771  0.00  0.00    +0.000 S 
ATOM      4  C   UNL     1       3.458   4.891  19.111  0.00  0.00    +0.000 A 
ATOM      5  C   UNL     1       4.060   3.618  19.213  0.00  0.00    +0.000 A 
ATOM      6  C   UNL     1       3.688   2.728  20.216  0.00  0.00    +0.000 A 
ATOM      7  C   UNL     1       2.705   3.097  21.119  0.00  0.00    +0.000 A 
ATOM      8  F   UNL     1       2.333   2.239  22.077  0.00  0.00    +0.000 F 
ATOM      9  C   UNL     1       2.102   4.348  21.046  0.00  0.00    +0.000 A 
ATOM     10  C   UNL     1       2.489   5.263  20.044  0.00  0.00    +0.000 A 
ATOM     11  C   UNL     1       1.841   6.597  20.035  0.00  0.00    +0.000 A 
ATOM     12  O   UNL     1       0.970   6.832  20.875  0.00  0.00    +0.000 OA
ENDROOT
BRANCH   1  16
ATOM     13  C   UNL     1      -0.862  10.379  19.026  0.00  0.00    +0.000 C 
ATOM     14  C   UNL     1      -0.300   9.818  20.345  0.00  0.00    +0.000 C 
ATOM     15  C   UNL     1       1.195   9.508  20.348  0.00  0.00    +0.000 C 
ATOM     16  N   UNL     1       1.617   8.904  19.087  0.00  0.00    +0.000 N 
ATOM     17  C   UNL     1       1.367   9.753  17.925  0.00  0.00    +0.000 C 
ATOM     18  C   UNL     1      -0.140   9.898  17.756  0.00  0.00    +0.000 C 
BRANCH  13  20
ATOM     19  N   UNL     1      -1.257  12.471  17.841  0.00  0.00    +0.000 N 
ATOM     20  C   UNL     1      -0.999  11.895  19.057  0.00  0.00    +0.000 C 
ATOM     21  O   UNL     1      -0.871  12.586  20.059  0.00  0.00    +0.000 OA
ATOM     22  H   UNL     1      -1.237  13.482  17.789  0.00  0.00    +0.000 HD
ATOM     23  H   UNL     1      -1.236  11.946  16.976  0.00  0.00    +0.000 HD
ENDBRANCH  13  20
ENDBRANCH   1  16
TORSDOF 2
ENDMDL
MODEL 8
REMARK VINA RESULT:      -6.3      3.956      7.590
REMARK  Name = 
REMARK  2 active torsions:
REMARK  status: ('A' for Active; 'I' for Inactive)
REMARK    1  A    between atoms: C_2  and  C_4
REMARK    2  A    between atoms: N_7  and  C_8
REMARK                            x       y       z     vdW  Elec       q    Type
REMARK                         _______ _______ _______ _____ _____    ______ ____
ROOT
ATOM      1  C   UNL     1       1.936   7.566  19.465  0.00  0.00    +0.000 A 
ATOM      2  C   UNL     1       1.602   6.768  20.493  0.00  0.00    +0.000 A 
ATOM      3  S   UNL     1       2.034   5.135  20.765  0.00  0.00    +0.000 S 
ATOM      4  C   UNL     1       2.985   4.747  19.330  0.00  0.00    +0.000 A 
ATOM      5  C   UNL     1       3.445   3.416  19.217  0.00  0.00    +0.000 A 
ATOM      6  C   UNL     1       4.229   3.017  18.139  0.00  0.00    +0.000 A 
ATOM      7  C   UNL     1       4.570   3.945  17.170  0.00  0.00    +0.000 A 
ATOM      8  F   UNL     1       5.336   3.569  16.138  0.00  0.00    +0.000 F 
ATOM      9  C   UNL     1       4.125   5.259  17.253  0.00  0.00    +0.000 A 
ATOM     10  C   UNL     1       3.313   5.665  18.332  0.00  0.00    +0.000 A 
ATOM     11  C   UNL     1       2.835   7.070  18.351  0.00  0.00    +0.000 A 
ATOM     12  O   UNL     1       3.198   7.826  17.448  0.00  0.00    +0.000 OA
ENDROOT
BRANCH   1  16
ATOM     13  C   UNL     1      -0.813  10.622  19.050  0.00  0.00    +0.000 C 
ATOM     14  C   UNL     1      -0.385  10.134  20.445  0.00  0.00    +0.000 C 
ATOM     15  C   UNL     1       1.062   9.660  20.566  0.00  0.00    +0.000 C 
ATOM     16  N   UNL     1       1.472   8.893  19.393  0.00  0.00    +0.000 N 
ATOM     17  C   UNL     1       1.380   9.648  18.146  0.00  0.00    +0.000 C 
ATOM     18  C   UNL     1      -0.090   9.942  17.875  0.00  0.00    +0.000 C 
BRANCH  13  20
ATOM     19  N   UNL     1      -1.182  12.632  17.723  0.00  0.00    +0.000 N 
ATOM     20  C   UNL     1      -0.773  12.140  18.933  0.00  0.00    +0.000 C 
ATOM     21  O   UNL     1      -0.390  12.897  19.816  0.00  0.00    +0.000 OA
ATOM     22  H   UNL     1      -1.059  13.623  17.555  0.00  0.00    +0.000 HD
ATOM     23  H   UNL     1      -1.375  12.033  16.930  0.00  0.00    +0.000 HD
ENDBRANCH  13  20
ENDBRANCH   1  16
TORSDOF 2
ENDMDL
MODEL 9
REMARK VINA RESULT:      -6.2      1.274      1.481
REMARK  Name = 
REMARK  2 active torsions:
REMARK  status: ('A' for Active; 'I' for Inactive)
REMARK    1  A    between atoms: C_2  and  C_4
REMARK    2  A    between atoms: N_7  and  C_8
REMARK                            x       y       z     vdW  Elec       q    Type
REMARK                         _______ _______ _______ _____ _____    ______ ____
ROOT
ATOM      1  C   UNL     1       1.961   7.812  19.266  0.00  0.00    +0.000 A 
ATOM      2  C   UNL     1       2.167   8.617  18.210  0.00  0.00    +0.000 A 
ATOM      3  S   UNL     1       1.757  10.268  18.027  0.00  0.00    +0.000 S 
ATOM      4  C   UNL     1       0.952  10.634  19.554  0.00  0.00    +0.000 A 
ATOM      5  C   UNL     1       0.422  11.936  19.693  0.00  0.00    +0.000 A 
ATOM      6  C   UNL     1      -0.204  12.334  20.871  0.00  0.00    +0.000 A 
ATOM      7  C   UNL     1      -0.298  11.439  21.923  0.00  0.00    +0.000 A 
ATOM      8  F   UNL     1      -0.886  11.821  23.063  0.00  0.00    +0.000 F 
ATOM      9  C   UNL     1       0.208  10.149  21.811  0.00  0.00    +0.000 A 
ATOM     10  C   UNL     1       0.826   9.733  20.613  0.00  0.00    +0.000 A 
ATOM     11  C   UNL     1       1.314   8.334  20.533  0.00  0.00    +0.000 A 
ATOM     12  O   UNL     1       1.194   7.613  21.525  0.00  0.00    +0.000 OA
ENDROOT
BRANCH   1  16
ATOM     13  C   UNL     1       1.495   3.720  18.945  0.00  0.00    +0.000 C 
ATOM     14  C   UNL     1       1.901   4.563  17.722  0.00  0.00    +0.000 C 
ATOM     15  C   UNL     1       2.779   5.777  18.019  0.00  0.00    +0.000 C 
ATOM     16  N   UNL     1       2.352   6.459  19.237  0.00  0.00    +0.000 N 
ATOM     17  C   UNL     1       2.399   5.609  20.424  0.00  0.00    +0.000 C 
ATOM     18  C   UNL     1       1.361   4.506  20.260  0.00  0.00    +0.000 C 
BRANCH  13  20
ATOM     19  N   UNL     1       2.424   1.667  18.017  0.00  0.00    +0.000 N 
ATOM     20  C   UNL     1       2.375   2.488  19.112  0.00  0.00    +0.000 C 
ATOM     21  O   UNL     1       2.986   2.201  20.133  0.00  0.00    +0.000 OA
ATOM     22  H   UNL     1       2.896   0.777  18.120  0.00  0.00    +0.000 HD
ATOM     23  H   UNL     1       1.829   1.802  17.209  0.00  0.00    +0.000 HD
ENDBRANCH  13  20
ENDBRANCH   1  16
TORSDOF 2
ENDMDL
