MODEL 1
REMARK VINA RESULT:      -8.3      0.000      0.000
REMARK  Name = 
REMARK  12 active torsions:
REMARK  status: ('A' for Active; 'I' for Inactive)
REMARK    1  A    between atoms: C_1  and  C_2
REMARK    2  A    between atoms: C_2  and  C_3
REMARK    3  A    between atoms: C_6  and  N_7
REMARK    4  A    between atoms: C_8  and  S_9
REMARK    5  A    between atoms: S_9  and  C_10
REMARK    6  A    between atoms: C_10  and  C_11
REMARK    7  A    between atoms: C_13  and  C_14
REMARK    8  A    between atoms: C_16  and  O_17
REMARK    9  A    between atoms: O_17  and  C_18
REMARK   10  A    between atoms: C_21  and  O_22
REMARK   11  A    between atoms: O_22  and  C_23
REMARK   12  A    between atoms: C_28  and  C_29
REMARK                            x       y       z     vdW  Elec       q    Type
REMARK                         _______ _______ _______ _____ _____    ______ ____
ROOT
ATOM      1  N   UNL     1       4.428   5.634  18.602  0.00  0.00    +0.000 N 
ATOM      2  C   UNL     1       5.729   5.625  18.073  0.00  0.00    +0.000 A 
ATOM      3  N   UNL     1       6.317   4.482  18.349  0.00  0.00    +0.000 NA
ATOM      4  N   UNL     1       5.418   3.698  19.026  0.00  0.00    +0.000 NA
ATOM      5  C   UNL     1       4.261   4.336  19.136  0.00  0.00    +0.000 A 
ENDROOT
BRANCH   1   9
ATOM      6  C   UNL     1       1.729   8.937  18.666  0.00  0.00    +0.000 A 
ATOM      7  C   UNL     1       1.801   8.057  19.752  0.00  0.00    +0.000 A 
ATOM      8  C   UNL     1       2.665   6.954  19.731  0.00  0.00    +0.000 A 
ATOM      9  C   UNL     1       3.460   6.696  18.610  0.00  0.00    +0.000 A 
ATOM     10  C   UNL     1       3.340   7.548  17.498  0.00  0.00    +0.000 A 
ATOM     11  C   UNL     1       2.513   8.675  17.540  0.00  0.00    +0.000 A 
BRANCH   6  13
ATOM     12  C   UNL     1      -0.490   9.934  18.055  0.00  0.00    +0.000 C 
ATOM     13  C   UNL     1       0.858  10.165  18.721  0.00  0.00    +0.000 C 
ENDBRANCH   6  13
ENDBRANCH   1   9
BRANCH   5  14
ATOM     14  C   UNL     1       3.040   3.702  19.691  0.00  0.00    +0.000 A 
ATOM     15  C   UNL     1       2.951   3.455  21.074  0.00  0.00    +0.000 A 
ATOM     16  C   UNL     1       1.801   2.881  21.643  0.00  0.00    +0.000 A 
ATOM     17  C   UNL     1       0.719   2.545  20.836  0.00  0.00    +0.000 A 
ATOM     18  C   UNL     1       0.794   2.757  19.462  0.00  0.00    +0.000 A 
ATOM     19  C   UNL     1       1.954   3.300  18.893  0.00  0.00    +0.000 A 
ENDBRANCH   5  14
BRANCH   2  20
ATOM     20  S   UNL     1       6.558   6.972  17.324  0.00  0.00    +0.000 S 
BRANCH  20  21
ATOM     21  C   UNL     1       8.037   7.248  18.375  0.00  0.00    +0.000 C 
BRANCH  21  22
ATOM     22  C   UNL     1       8.421   8.702  18.404  0.00  0.00    +0.000 A 
ATOM     23  N   UNL     1       9.214   9.364  19.222  0.00  0.00    +0.000 NA
ATOM     24  C   UNL     1       9.027  10.691  18.866  0.00  0.00    +0.000 A 
ATOM     25  N   UNL     1       8.271  10.818  17.758  0.00  0.00    +0.000 NA
ATOM     26  O   UNL     1       7.860   9.516  17.463  0.00  0.00    +0.000 OA
BRANCH  24  27
ATOM     27  C   UNL     1       9.584  11.851  19.592  0.00  0.00    +0.000 A 
ATOM     28  C   UNL     1      10.343  12.784  18.824  0.00  0.00    +0.000 A 
ATOM     29  C   UNL     1      10.885  13.962  19.366  0.00  0.00    +0.000 A 
ATOM     30  C   UNL     1      10.645  14.265  20.693  0.00  0.00    +0.000 A 
ATOM     31  C   UNL     1       9.908  13.374  21.467  0.00  0.00    +0.000 A 
ATOM     32  C   UNL     1       9.377  12.170  20.950  0.00  0.00    +0.000 A 
BRANCH  29  33
ATOM     33  O   UNL     1      11.595  14.761  18.507  0.00  0.00    +0.000 OA
ATOM     34  C   UNL     1      10.884  15.876  17.968  0.00  0.00    +0.000 C 
ENDBRANCH  29  33
BRANCH  32  35
ATOM     35  O   UNL     1       8.672  11.558  21.948  0.00  0.00    +0.000 OA
ATOM     36  C   UNL     1       7.771  12.264  22.770  0.00  0.00    +0.000 C 
ENDBRANCH  32  35
ENDBRANCH  24  27
ENDBRANCH  21  22
ENDBRANCH  20  21
ENDBRANCH   2  20
TORSDOF 9
ENDMDL
MODEL 2
REMARK VINA RESULT:      -8.3      5.805      9.891
REMARK  Name = 
REMARK  12 active torsions:
REMARK  status: ('A' for Active; 'I' for Inactive)
REMARK    1  A    between atoms: C_1  and  C_2
REMARK    2  A    between atoms: C_2  and  C_3
REMARK    3  A    between atoms: C_6  and  N_7
REMARK    4  A    between atoms: C_8  and  S_9
REMARK    5  A    between atoms: S_9  and  C_10
REMARK    6  A    between atoms: C_10  and  C_11
REMARK    7  A    between atoms: C_13  and  C_14
REMARK    8  A    between atoms: C_16  and  O_17
REMARK    9  A    between atoms: O_17  and  C_18
REMARK   10  A    between atoms: C_21  and  O_22
REMARK   11  A    between atoms: O_22  and  C_23
REMARK   12  A    between atoms: C_28  and  C_29
REMARK                            x       y       z     vdW  Elec       q    Type
REMARK                         _______ _______ _______ _____ _____    ______ ____
ROOT
ATOM      1  N   UNL     1      -0.365  12.305  20.259  0.00  0.00    +0.000 N 
ATOM      2  C   UNL     1       0.290  11.363  21.070  0.00  0.00    +0.000 A 
ATOM      3  N   UNL     1       1.487  11.803  21.390  0.00  0.00    +0.000 NA
ATOM      4  N   UNL     1       1.639  13.050  20.840  0.00  0.00    +0.000 NA
ATOM      5  C   UNL     1       0.525  13.401  20.212  0.00  0.00    +0.000 A 
ENDROOT
BRANCH   1   9
ATOM      6  C   UNL     1      -4.212  11.835  18.477  0.00  0.00    +0.000 A 
ATOM      7  C   UNL     1      -3.054  11.512  17.762  0.00  0.00    +0.000 A 
ATOM      8  C   UNL     1      -1.784  11.686  18.328  0.00  0.00    +0.000 A 
ATOM      9  C   UNL     1      -1.648  12.212  19.617  0.00  0.00    +0.000 A 
ATOM     10  C   UNL     1      -2.811  12.591  20.308  0.00  0.00    +0.000 A 
ATOM     11  C   UNL     1      -4.078  12.371  19.760  0.00  0.00    +0.000 A 
BRANCH   6  13
ATOM     12  C   UNL     1      -6.336  10.516  18.687  0.00  0.00    +0.000 C 
ATOM     13  C   UNL     1      -5.578  11.574  17.898  0.00  0.00    +0.000 C 
ENDBRANCH   6  13
ENDBRANCH   1   9
BRANCH   5  14
ATOM     14  C   UNL     1       0.317  14.752  19.634  0.00  0.00    +0.000 A 
ATOM     15  C   UNL     1      -0.887  15.437  19.882  0.00  0.00    +0.000 A 
ATOM     16  C   UNL     1      -1.113  16.729  19.377  0.00  0.00    +0.000 A 
ATOM     17  C   UNL     1      -0.135  17.357  18.611  0.00  0.00    +0.000 A 
ATOM     18  C   UNL     1       1.054  16.688  18.332  0.00  0.00    +0.000 A 
ATOM     19  C   UNL     1       1.264  15.389  18.811  0.00  0.00    +0.000 A 
ENDBRANCH   5  14
BRANCH   2  20
ATOM     20  S   UNL     1      -0.275   9.753  21.460  0.00  0.00    +0.000 S 
BRANCH  20  21
ATOM     21  C   UNL     1       1.255   8.754  21.632  0.00  0.00    +0.000 C 
BRANCH  21  22
ATOM     22  C   UNL     1       1.632   8.106  20.327  0.00  0.00    +0.000 A 
ATOM     23  N   UNL     1       2.029   6.879  20.062  0.00  0.00    +0.000 NA
ATOM     24  C   UNL     1       2.404   6.931  18.728  0.00  0.00    +0.000 A 
ATOM     25  N   UNL     1       2.089   8.110  18.157  0.00  0.00    +0.000 NA
ATOM     26  O   UNL     1       1.597   8.888  19.208  0.00  0.00    +0.000 OA
BRANCH  24  27
ATOM     27  C   UNL     1       3.067   5.836  17.989  0.00  0.00    +0.000 A 
ATOM     28  C   UNL     1       4.391   6.089  17.521  0.00  0.00    +0.000 A 
ATOM     29  C   UNL     1       5.166   5.125  16.854  0.00  0.00    +0.000 A 
ATOM     30  C   UNL     1       4.650   3.855  16.672  0.00  0.00    +0.000 A 
ATOM     31  C   UNL     1       3.361   3.579  17.117  0.00  0.00    +0.000 A 
ATOM     32  C   UNL     1       2.553   4.542  17.767  0.00  0.00    +0.000 A 
BRANCH  29  33
ATOM     33  O   UNL     1       6.420   5.513  16.458  0.00  0.00    +0.000 OA
ATOM     34  C   UNL     1       7.059   4.664  15.503  0.00  0.00    +0.000 C 
ENDBRANCH  29  33
BRANCH  32  35
ATOM     35  O   UNL     1       1.378   3.939  18.116  0.00  0.00    +0.000 OA
ATOM     36  C   UNL     1       1.337   2.809  18.957  0.00  0.00    +0.000 C 
ENDBRANCH  32  35
ENDBRANCH  24  27
ENDBRANCH  21  22
ENDBRANCH  20  21
ENDBRANCH   2  20
TORSDOF 9
ENDMDL
MODEL 3
REMARK VINA RESULT:      -8.2      4.765      9.233
REMARK  Name = 
REMARK  12 active torsions:
REMARK  status: ('A' for Active; 'I' for Inactive)
REMARK    1  A    between atoms: C_1  and  C_2
REMARK    2  A    between atoms: C_2  and  C_3
REMARK    3  A    between atoms: C_6  and  N_7
REMARK    4  A    between atoms: C_8  and  S_9
REMARK    5  A    between atoms: S_9  and  C_10
REMARK    6  A    between atoms: C_10  and  C_11
REMARK    7  A    between atoms: C_13  and  C_14
REMARK    8  A    between atoms: C_16  and  O_17
REMARK    9  A    between atoms: O_17  and  C_18
REMARK   10  A    between atoms: C_21  and  O_22
REMARK   11  A    between atoms: O_22  and  C_23
REMARK   12  A    between atoms: C_28  and  C_29
REMARK                            x       y       z     vdW  Elec       q    Type
REMARK                         _______ _______ _______ _____ _____    ______ ____
ROOT
ATOM      1  N   UNL     1      -0.928  11.460  20.302  0.00  0.00    +0.000 N 
ATOM      2  C   UNL     1       0.324  10.939  20.669  0.00  0.00    +0.000 A 
ATOM      3  N   UNL     1       0.765  11.552  21.745  0.00  0.00    +0.000 NA
ATOM      4  N   UNL     1      -0.189  12.456  22.137  0.00  0.00    +0.000 NA
ATOM      5  C   UNL     1      -1.238  12.379  21.330  0.00  0.00    +0.000 A 
ENDROOT
BRANCH   1   9
ATOM      6  C   UNL     1      -3.183  10.655  16.772  0.00  0.00    +0.000 A 
ATOM      7  C   UNL     1      -3.627  11.607  17.696  0.00  0.00    +0.000 A 
ATOM      8  C   UNL     1      -2.908  11.861  18.871  0.00  0.00    +0.000 A 
ATOM      9  C   UNL     1      -1.739  11.148  19.157  0.00  0.00    +0.000 A 
ATOM     10  C   UNL     1      -1.330  10.151  18.255  0.00  0.00    +0.000 A 
ATOM     11  C   UNL     1      -2.022   9.933  17.059  0.00  0.00    +0.000 A 
BRANCH   6  13
ATOM     12  C   UNL     1      -2.967  10.046  14.347  0.00  0.00    +0.000 C 
ATOM     13  C   UNL     1      -3.914  10.438  15.472  0.00  0.00    +0.000 C 
ENDBRANCH   6  13
ENDBRANCH   1   9
BRANCH   5  14
ATOM     14  C   UNL     1      -2.498  13.125  21.571  0.00  0.00    +0.000 A 
ATOM     15  C   UNL     1      -2.625  14.445  21.101  0.00  0.00    +0.000 A 
ATOM     16  C   UNL     1      -3.811  15.177  21.283  0.00  0.00    +0.000 A 
ATOM     17  C   UNL     1      -4.891  14.598  21.943  0.00  0.00    +0.000 A 
ATOM     18  C   UNL     1      -4.779  13.302  22.439  0.00  0.00    +0.000 A 
ATOM     19  C   UNL     1      -3.585  12.586  22.282  0.00  0.00    +0.000 A 
ENDBRANCH   5  14
BRANCH   2  20
ATOM     20  S   UNL     1       1.281   9.791  19.759  0.00  0.00    +0.000 S 
BRANCH  20  21
ATOM     21  C   UNL     1       1.129   8.218  20.694  0.00  0.00    +0.000 C 
BRANCH  21  22
ATOM     22  C   UNL     1       2.055   7.167  20.144  0.00  0.00    +0.000 A 
ATOM     23  N   UNL     1       2.922   7.221  19.154  0.00  0.00    +0.000 NA
ATOM     24  C   UNL     1       3.334   5.906  19.000  0.00  0.00    +0.000 A 
ATOM     25  N   UNL     1       2.856   5.106  19.974  0.00  0.00    +0.000 NA
ATOM     26  O   UNL     1       2.004   5.928  20.715  0.00  0.00    +0.000 OA
BRANCH  24  27
ATOM     27  C   UNL     1       4.200   5.410  17.910  0.00  0.00    +0.000 A 
ATOM     28  C   UNL     1       5.410   6.128  17.676  0.00  0.00    +0.000 A 
ATOM     29  C   UNL     1       6.357   5.740  16.713  0.00  0.00    +0.000 A 
ATOM     30  C   UNL     1       6.139   4.589  15.979  0.00  0.00    +0.000 A 
ATOM     31  C   UNL     1       4.967   3.868  16.185  0.00  0.00    +0.000 A 
ATOM     32  C   UNL     1       3.988   4.254  17.130  0.00  0.00    +0.000 A 
BRANCH  29  33
ATOM     33  O   UNL     1       7.472   6.530  16.597  0.00  0.00    +0.000 OA
ATOM     34  C   UNL     1       7.548   7.631  17.505  0.00  0.00    +0.000 C 
ENDBRANCH  29  33
BRANCH  32  35
ATOM     35  O   UNL     1       2.997   3.314  17.118  0.00  0.00    +0.000 OA
ATOM     36  C   UNL     1       3.073   2.136  17.888  0.00  0.00    +0.000 C 
ENDBRANCH  32  35
ENDBRANCH  24  27
ENDBRANCH  21  22
ENDBRANCH  20  21
ENDBRANCH   2  20
TORSDOF 9
ENDMDL
MODEL 4
REMARK VINA RESULT:      -8.1      3.049     10.774
REMARK  Name = 
REMARK  12 active torsions:
REMARK  status: ('A' for Active; 'I' for Inactive)
REMARK    1  A    between atoms: C_1  and  C_2
REMARK    2  A    between atoms: C_2  and  C_3
REMARK    3  A    between atoms: C_6  and  N_7
REMARK    4  A    between atoms: C_8  and  S_9
REMARK    5  A    between atoms: S_9  and  C_10
REMARK    6  A    between atoms: C_10  and  C_11
REMARK    7  A    between atoms: C_13  and  C_14
REMARK    8  A    between atoms: C_16  and  O_17
REMARK    9  A    between atoms: O_17  and  C_18
REMARK   10  A    between atoms: C_21  and  O_22
REMARK   11  A    between atoms: O_22  and  C_23
REMARK   12  A    between atoms: C_28  and  C_29
REMARK                            x       y       z     vdW  Elec       q    Type
REMARK                         _______ _______ _______ _____ _____    ______ ____
ROOT
ATOM      1  N   UNL     1       9.881  12.806  19.386  0.00  0.00    +0.000 N 
ATOM      2  C   UNL     1      10.032  11.577  18.723  0.00  0.00    +0.000 A 
ATOM      3  N   UNL     1      10.721  11.747  17.616  0.00  0.00    +0.000 NA
ATOM      4  N   UNL     1      11.076  13.069  17.539  0.00  0.00    +0.000 NA
ATOM      5  C   UNL     1      10.641  13.713  18.613  0.00  0.00    +0.000 A 
ENDROOT
BRANCH   1   9
ATOM      6  C   UNL     1       7.562  13.499  22.897  0.00  0.00    +0.000 A 
ATOM      7  C   UNL     1       7.304  14.216  21.724  0.00  0.00    +0.000 A 
ATOM      8  C   UNL     1       8.077  14.015  20.572  0.00  0.00    +0.000 A 
ATOM      9  C   UNL     1       9.140  13.106  20.580  0.00  0.00    +0.000 A 
ATOM     10  C   UNL     1       9.432  12.433  21.778  0.00  0.00    +0.000 A 
ATOM     11  C   UNL     1       8.630  12.600  22.912  0.00  0.00    +0.000 A 
BRANCH   6  13
ATOM     12  C   UNL     1       6.377  15.122  24.401  0.00  0.00    +0.000 C 
ATOM     13  C   UNL     1       6.682  13.659  24.111  0.00  0.00    +0.000 C 
ENDBRANCH   6  13
ENDBRANCH   1   9
BRANCH   5  14
ATOM     14  C   UNL     1      10.985  15.128  18.900  0.00  0.00    +0.000 A 
ATOM     15  C   UNL     1      11.957  15.424  19.873  0.00  0.00    +0.000 A 
ATOM     16  C   UNL     1      12.332  16.749  20.155  0.00  0.00    +0.000 A 
ATOM     17  C   UNL     1      11.737  17.802  19.466  0.00  0.00    +0.000 A 
ATOM     18  C   UNL     1      10.755  17.533  18.517  0.00  0.00    +0.000 A 
ATOM     19  C   UNL     1      10.361  16.214  18.260  0.00  0.00    +0.000 A 
ENDBRANCH   5  14
BRANCH   2  20
ATOM     20  S   UNL     1       9.273  10.060  19.155  0.00  0.00    +0.000 S 
BRANCH  20  21
ATOM     21  C   UNL     1       8.329   9.571  17.659  0.00  0.00    +0.000 C 
BRANCH  21  22
ATOM     22  C   UNL     1       7.785   8.175  17.791  0.00  0.00    +0.000 A 
ATOM     23  N   UNL     1       6.744   7.602  17.221  0.00  0.00    +0.000 NA
ATOM     24  C   UNL     1       6.640   6.381  17.869  0.00  0.00    +0.000 A 
ATOM     25  N   UNL     1       7.683   6.150  18.691  0.00  0.00    +0.000 NA
ATOM     26  O   UNL     1       8.427   7.332  18.652  0.00  0.00    +0.000 OA
BRANCH  24  27
ATOM     27  C   UNL     1       5.531   5.420  17.696  0.00  0.00    +0.000 A 
ATOM     28  C   UNL     1       4.352   5.658  18.464  0.00  0.00    +0.000 A 
ATOM     29  C   UNL     1       3.198   4.862  18.363  0.00  0.00    +0.000 A 
ATOM     30  C   UNL     1       3.174   3.823  17.451  0.00  0.00    +0.000 A 
ATOM     31  C   UNL     1       4.310   3.567  16.689  0.00  0.00    +0.000 A 
ATOM     32  C   UNL     1       5.491   4.337  16.794  0.00  0.00    +0.000 A 
BRANCH  29  33
ATOM     33  O   UNL     1       2.142   5.209  19.166  0.00  0.00    +0.000 OA
ATOM     34  C   UNL     1       2.052   4.507  20.407  0.00  0.00    +0.000 C 
ENDBRANCH  29  33
BRANCH  32  35
ATOM     35  O   UNL     1       6.388   3.858  15.881  0.00  0.00    +0.000 OA
ATOM     36  C   UNL     1       6.612   4.497  14.645  0.00  0.00    +0.000 C 
ENDBRANCH  32  35
ENDBRANCH  24  27
ENDBRANCH  21  22
ENDBRANCH  20  21
ENDBRANCH   2  20
TORSDOF 9
ENDMDL
MODEL 5
REMARK VINA RESULT:      -8.1      3.822      7.756
REMARK  Name = 
REMARK  12 active torsions:
REMARK  status: ('A' for Active; 'I' for Inactive)
REMARK    1  A    between atoms: C_1  and  C_2
REMARK    2  A    between atoms: C_2  and  C_3
REMARK    3  A    between atoms: C_6  and  N_7
REMARK    4  A    between atoms: C_8  and  S_9
REMARK    5  A    between atoms: S_9  and  C_10
REMARK    6  A    between atoms: C_10  and  C_11
REMARK    7  A    between atoms: C_13  and  C_14
REMARK    8  A    between atoms: C_16  and  O_17
REMARK    9  A    between atoms: O_17  and  C_18
REMARK   10  A    between atoms: C_21  and  O_22
REMARK   11  A    between atoms: O_22  and  C_23
REMARK   12  A    between atoms: C_28  and  C_29
REMARK                            x       y       z     vdW  Elec       q    Type
REMARK                         _______ _______ _______ _____ _____    ______ ____
ROOT
ATOM      1  N   UNL     1       5.292   5.039  17.342  0.00  0.00    +0.000 N 
ATOM      2  C   UNL     1       4.348   4.496  18.230  0.00  0.00    +0.000 A 
ATOM      3  N   UNL     1       3.582   3.636  17.596  0.00  0.00    +0.000 NA
ATOM      4  N   UNL     1       4.019   3.558  16.299  0.00  0.00    +0.000 NA
ATOM      5  C   UNL     1       5.078   4.338  16.134  0.00  0.00    +0.000 A 
ENDROOT
BRANCH   1   9
ATOM      6  C   UNL     1       8.101   8.119  18.251  0.00  0.00    +0.000 A 
ATOM      7  C   UNL     1       7.028   8.368  17.387  0.00  0.00    +0.000 A 
ATOM      8  C   UNL     1       6.114   7.357  17.062  0.00  0.00    +0.000 A 
ATOM      9  C   UNL     1       6.270   6.067  17.577  0.00  0.00    +0.000 A 
ATOM     10  C   UNL     1       7.383   5.805  18.395  0.00  0.00    +0.000 A 
ATOM     11  C   UNL     1       8.266   6.828  18.757  0.00  0.00    +0.000 A 
BRANCH   6  13
ATOM     12  C   UNL     1       8.661  10.554  18.021  0.00  0.00    +0.000 C 
ATOM     13  C   UNL     1       9.037   9.226  18.662  0.00  0.00    +0.000 C 
ENDBRANCH   6  13
ENDBRANCH   1   9
BRANCH   5  14
ATOM     14  C   UNL     1       5.872   4.367  14.881  0.00  0.00    +0.000 A 
ATOM     15  C   UNL     1       5.420   3.656  13.754  0.00  0.00    +0.000 A 
ATOM     16  C   UNL     1       6.128   3.680  12.540  0.00  0.00    +0.000 A 
ATOM     17  C   UNL     1       7.303   4.418  12.435  0.00  0.00    +0.000 A 
ATOM     18  C   UNL     1       7.783   5.108  13.544  0.00  0.00    +0.000 A 
ATOM     19  C   UNL     1       7.092   5.058  14.762  0.00  0.00    +0.000 A 
ENDBRANCH   5  14
BRANCH   2  20
ATOM     20  S   UNL     1       4.064   4.997  19.882  0.00  0.00    +0.000 S 
BRANCH  20  21
ATOM     21  C   UNL     1       2.287   5.455  19.928  0.00  0.00    +0.000 C 
BRANCH  21  22
ATOM     22  C   UNL     1       2.082   6.884  19.504  0.00  0.00    +0.000 A 
ATOM     23  N   UNL     1       1.523   7.895  20.136  0.00  0.00    +0.000 NA
ATOM     24  C   UNL     1       1.461   8.895  19.177  0.00  0.00    +0.000 A 
ATOM     25  N   UNL     1       2.111   8.556  18.046  0.00  0.00    +0.000 NA
ATOM     26  O   UNL     1       2.506   7.232  18.253  0.00  0.00    +0.000 OA
BRANCH  24  27
ATOM     27  C   UNL     1       0.774  10.192  19.345  0.00  0.00    +0.000 A 
ATOM     28  C   UNL     1       1.320  11.085  20.315  0.00  0.00    +0.000 A 
ATOM     29  C   UNL     1       0.808  12.373  20.545  0.00  0.00    +0.000 A 
ATOM     30  C   UNL     1      -0.247  12.826  19.775  0.00  0.00    +0.000 A 
ATOM     31  C   UNL     1      -0.801  11.977  18.822  0.00  0.00    +0.000 A 
ATOM     32  C   UNL     1      -0.320  10.667  18.592  0.00  0.00    +0.000 A 
BRANCH  29  33
ATOM     33  O   UNL     1       1.434  13.118  21.512  0.00  0.00    +0.000 OA
ATOM     34  C   UNL     1       2.296  14.153  21.036  0.00  0.00    +0.000 C 
ENDBRANCH  29  33
BRANCH  32  35
ATOM     35  O   UNL     1      -1.043  10.127  17.567  0.00  0.00    +0.000 OA
ATOM     36  C   UNL     1      -2.419   9.847  17.687  0.00  0.00    +0.000 C 
ENDBRANCH  32  35
ENDBRANCH  24  27
ENDBRANCH  21  22
ENDBRANCH  20  21
ENDBRANCH   2  20
TORSDOF 9
ENDMDL
MODEL 6
REMARK VINA RESULT:      -8.0      6.007     10.084
REMARK  Name = 
REMARK  12 active torsions:
REMARK  status: ('A' for Active; 'I' for Inactive)
REMARK    1  A    between atoms: C_1  and  C_2
REMARK    2  A    between atoms: C_2  and  C_3
REMARK    3  A    between atoms: C_6  and  N_7
REMARK    4  A    between atoms: C_8  and  S_9
REMARK    5  A    between atoms: S_9  and  C_10
REMARK    6  A    between atoms: C_10  and  C_11
REMARK    7  A    between atoms: C_13  and  C_14
REMARK    8  A    between atoms: C_16  and  O_17
REMARK    9  A    between atoms: O_17  and  C_18
REMARK   10  A    between atoms: C_21  and  O_22
REMARK   11  A    between atoms: O_22  and  C_23
REMARK   12  A    between atoms: C_28  and  C_29
REMARK                            x       y       z     vdW  Elec       q    Type
REMARK                         _______ _______ _______ _____ _____    ______ ____
ROOT
ATOM      1  N   UNL     1      -0.413  12.004  20.158  0.00  0.00    +0.000 N 
ATOM      2  C   UNL     1       0.063  11.097  21.119  0.00  0.00    +0.000 A 
ATOM      3  N   UNL     1       1.017  11.657  21.829  0.00  0.00    +0.000 NA
ATOM      4  N   UNL     1       1.169  12.947  21.389  0.00  0.00    +0.000 NA
ATOM      5  C   UNL     1       0.285  13.202  20.434  0.00  0.00    +0.000 A 
ENDROOT
BRANCH   1   9
ATOM      6  C   UNL     1      -3.368  11.194  17.191  0.00  0.00    +0.000 A 
ATOM      7  C   UNL     1      -2.010  11.020  16.905  0.00  0.00    +0.000 A 
ATOM      8  C   UNL     1      -1.029  11.307  17.864  0.00  0.00    +0.000 A 
ATOM      9  C   UNL     1      -1.389  11.799  19.123  0.00  0.00    +0.000 A 
ATOM     10  C   UNL     1      -2.751  12.029  19.384  0.00  0.00    +0.000 A 
ATOM     11  C   UNL     1      -3.730  11.696  18.443  0.00  0.00    +0.000 A 
BRANCH   6  13
ATOM     12  C   UNL     1      -3.821  10.184  14.939  0.00  0.00    +0.000 C 
ATOM     13  C   UNL     1      -4.425  10.810  16.187  0.00  0.00    +0.000 C 
ENDBRANCH   6  13
ENDBRANCH   1   9
BRANCH   5  14
ATOM     14  C   UNL     1       0.095  14.552  19.850  0.00  0.00    +0.000 A 
ATOM     15  C   UNL     1      -1.067  15.285  20.155  0.00  0.00    +0.000 A 
ATOM     16  C   UNL     1      -1.273  16.578  19.645  0.00  0.00    +0.000 A 
ATOM     17  C   UNL     1      -0.317  17.161  18.819  0.00  0.00    +0.000 A 
ATOM     18  C   UNL     1       0.829  16.444  18.483  0.00  0.00    +0.000 A 
ATOM     19  C   UNL     1       1.017  15.143  18.968  0.00  0.00    +0.000 A 
ENDBRANCH   5  14
BRANCH   2  20
ATOM     20  S   UNL     1      -0.373   9.408  21.262  0.00  0.00    +0.000 S 
BRANCH  20  21
ATOM     21  C   UNL     1       1.205   8.554  21.652  0.00  0.00    +0.000 C 
BRANCH  21  22
ATOM     22  C   UNL     1       1.612   7.628  20.538  0.00  0.00    +0.000 A 
ATOM     23  N   UNL     1       1.602   6.313  20.469  0.00  0.00    +0.000 NA
ATOM     24  C   UNL     1       2.259   6.037  19.280  0.00  0.00    +0.000 A 
ATOM     25  N   UNL     1       2.515   7.153  18.569  0.00  0.00    +0.000 NA
ATOM     26  O   UNL     1       2.105   8.198  19.400  0.00  0.00    +0.000 OA
BRANCH  24  27
ATOM     27  C   UNL     1       2.644   4.687  18.816  0.00  0.00    +0.000 A 
ATOM     28  C   UNL     1       3.664   4.619  17.821  0.00  0.00    +0.000 A 
ATOM     29  C   UNL     1       4.172   3.405  17.325  0.00  0.00    +0.000 A 
ATOM     30  C   UNL     1       3.699   2.215  17.847  0.00  0.00    +0.000 A 
ATOM     31  C   UNL     1       2.703   2.251  18.818  0.00  0.00    +0.000 A 
ATOM     32  C   UNL     1       2.159   3.460  19.312  0.00  0.00    +0.000 A 
BRANCH  29  33
ATOM     33  O   UNL     1       5.148   3.495  16.367  0.00  0.00    +0.000 OA
ATOM     34  C   UNL     1       5.401   4.807  15.861  0.00  0.00    +0.000 C 
ENDBRANCH  29  33
BRANCH  32  35
ATOM     35  O   UNL     1       1.249   3.147  20.282  0.00  0.00    +0.000 OA
ATOM     36  C   UNL     1       1.639   2.813  21.594  0.00  0.00    +0.000 C 
ENDBRANCH  32  35
ENDBRANCH  24  27
ENDBRANCH  21  22
ENDBRANCH  20  21
ENDBRANCH   2  20
TORSDOF 9
ENDMDL
MODEL 7
REMARK VINA RESULT:      -8.0      5.039      9.380
REMARK  Name = 
REMARK  12 active torsions:
REMARK  status: ('A' for Active; 'I' for Inactive)
REMARK    1  A    between atoms: C_1  and  C_2
REMARK    2  A    between atoms: C_2  and  C_3
REMARK    3  A    between atoms: C_6  and  N_7
REMARK    4  A    between atoms: C_8  and  S_9
REMARK    5  A    between atoms: S_9  and  C_10
REMARK    6  A    between atoms: C_10  and  C_11
REMARK    7  A    between atoms: C_13  and  C_14
REMARK    8  A    between atoms: C_16  and  O_17
REMARK    9  A    between atoms: O_17  and  C_18
REMARK   10  A    between atoms: C_21  and  O_22
REMARK   11  A    between atoms: O_22  and  C_23
REMARK   12  A    between atoms: C_28  and  C_29
REMARK                            x       y       z     vdW  Elec       q    Type
REMARK                         _______ _______ _______ _____ _____    ______ ____
ROOT
ATOM      1  N   UNL     1      -0.559  11.305  19.994  0.00  0.00    +0.000 N 
ATOM      2  C   UNL     1      -0.086  10.318  20.875  0.00  0.00    +0.000 A 
ATOM      3  N   UNL     1       0.724  10.857  21.759  0.00  0.00    +0.000 NA
ATOM      4  N   UNL     1       0.778  12.206  21.514  0.00  0.00    +0.000 NA
ATOM      5  C   UNL     1      -0.027  12.511  20.506  0.00  0.00    +0.000 A 
ENDROOT
BRANCH   1   9
ATOM      6  C   UNL     1      -3.170  10.715  16.674  0.00  0.00    +0.000 A 
ATOM      7  C   UNL     1      -1.882  10.170  16.669  0.00  0.00    +0.000 A 
ATOM      8  C   UNL     1      -1.007  10.379  17.744  0.00  0.00    +0.000 A 
ATOM      9  C   UNL     1      -1.397  11.160  18.836  0.00  0.00    +0.000 A 
ATOM     10  C   UNL     1      -2.670  11.755  18.808  0.00  0.00    +0.000 A 
ATOM     11  C   UNL     1      -3.559  11.506  17.758  0.00  0.00    +0.000 A 
BRANCH   6  13
ATOM     12  C   UNL     1      -3.419  10.093  14.256  0.00  0.00    +0.000 C 
ATOM     13  C   UNL     1      -4.138  10.425  15.556  0.00  0.00    +0.000 C 
ENDBRANCH   6  13
ENDBRANCH   1   9
BRANCH   5  14
ATOM     14  C   UNL     1      -0.303  13.908  20.088  0.00  0.00    +0.000 A 
ATOM     15  C   UNL     1       0.519  14.521  19.125  0.00  0.00    +0.000 A 
ATOM     16  C   UNL     1       0.276  15.832  18.681  0.00  0.00    +0.000 A 
ATOM     17  C   UNL     1      -0.798  16.553  19.196  0.00  0.00    +0.000 A 
ATOM     18  C   UNL     1      -1.610  15.975  20.168  0.00  0.00    +0.000 A 
ATOM     19  C   UNL     1      -1.346  14.679  20.631  0.00  0.00    +0.000 A 
ENDBRANCH   5  14
BRANCH   2  20
ATOM     20  S   UNL     1      -0.348   8.593  20.743  0.00  0.00    +0.000 S 
BRANCH  20  21
ATOM     21  C   UNL     1       1.068   7.840  21.636  0.00  0.00    +0.000 C 
BRANCH  21  22
ATOM     22  C   UNL     1       1.776   6.827  20.777  0.00  0.00    +0.000 A 
ATOM     23  N   UNL     1       2.692   6.985  19.843  0.00  0.00    +0.000 NA
ATOM     24  C   UNL     1       2.819   5.722  19.285  0.00  0.00    +0.000 A 
ATOM     25  N   UNL     1       2.123   4.792  19.967  0.00  0.00    +0.000 NA
ATOM     26  O   UNL     1       1.426   5.517  20.937  0.00  0.00    +0.000 OA
BRANCH  24  27
ATOM     27  C   UNL     1       3.621   5.401  18.086  0.00  0.00    +0.000 A 
ATOM     28  C   UNL     1       4.632   6.340  17.721  0.00  0.00    +0.000 A 
ATOM     29  C   UNL     1       5.508   6.141  16.640  0.00  0.00    +0.000 A 
ATOM     30  C   UNL     1       5.425   4.968  15.913  0.00  0.00    +0.000 A 
ATOM     31  C   UNL     1       4.448   4.035  16.245  0.00  0.00    +0.000 A 
ATOM     32  C   UNL     1       3.538   4.226  17.311  0.00  0.00    +0.000 A 
BRANCH  29  33
ATOM     33  O   UNL     1       6.426   7.132  16.405  0.00  0.00    +0.000 OA
ATOM     34  C   UNL     1       7.487   7.230  17.358  0.00  0.00    +0.000 C 
ENDBRANCH  29  33
BRANCH  32  35
ATOM     35  O   UNL     1       2.754   3.111  17.400  0.00  0.00    +0.000 OA
ATOM     36  C   UNL     1       3.191   1.936  18.044  0.00  0.00    +0.000 C 
ENDBRANCH  32  35
ENDBRANCH  24  27
ENDBRANCH  21  22
ENDBRANCH  20  21
ENDBRANCH   2  20
TORSDOF 9
ENDMDL
MODEL 8
REMARK VINA RESULT:      -7.9      5.563     10.079
REMARK  Name = 
REMARK  12 active torsions:
REMARK  status: ('A' for Active; 'I' for Inactive)
REMARK    1  A    between atoms: C_1  and  C_2
REMARK    2  A    between atoms: C_2  and  C_3
REMARK    3  A    between atoms: C_6  and  N_7
REMARK    4  A    between atoms: C_8  and  S_9
REMARK    5  A    between atoms: S_9  and  C_10
REMARK    6  A    between atoms: C_10  and  C_11
REMARK    7  A    between atoms: C_13  and  C_14
REMARK    8  A    between atoms: C_16  and  O_17
REMARK    9  A    between atoms: O_17  and  C_18
REMARK   10  A    between atoms: C_21  and  O_22
REMARK   11  A    between atoms: O_22  and  C_23
REMARK   12  A    between atoms: C_28  and  C_29
REMARK                            x       y       z     vdW  Elec       q    Type
REMARK                         _______ _______ _______ _____ _____    ______ ____
ROOT
ATOM      1  N   UNL     1      -2.590  11.671  19.339  0.00  0.00    +0.000 N 
ATOM      2  C   UNL     1      -1.489  10.909  18.915  0.00  0.00    +0.000 A 
ATOM      3  N   UNL     1      -1.860  10.071  17.974  0.00  0.00    +0.000 NA
ATOM      4  N   UNL     1      -3.192  10.280  17.724  0.00  0.00    +0.000 NA
ATOM      5  C   UNL     1      -3.640  11.272  18.481  0.00  0.00    +0.000 A 
ENDROOT
BRANCH   1   9
ATOM      6  C   UNL     1      -3.047  14.571  22.434  0.00  0.00    +0.000 A 
ATOM      7  C   UNL     1      -2.524  14.938  21.189  0.00  0.00    +0.000 A 
ATOM      8  C   UNL     1      -2.346  13.988  20.174  0.00  0.00    +0.000 A 
ATOM      9  C   UNL     1      -2.666  12.645  20.394  0.00  0.00    +0.000 A 
ATOM     10  C   UNL     1      -3.134  12.271  21.665  0.00  0.00    +0.000 A 
ATOM     11  C   UNL     1      -3.357  13.228  22.661  0.00  0.00    +0.000 A 
BRANCH   6  13
ATOM     12  C   UNL     1      -3.415  14.982  24.882  0.00  0.00    +0.000 C 
ATOM     13  C   UNL     1      -3.311  15.605  23.497  0.00  0.00    +0.000 C 
ENDBRANCH   6  13
ENDBRANCH   1   9
BRANCH   5  14
ATOM     14  C   UNL     1      -5.005  11.838  18.346  0.00  0.00    +0.000 A 
ATOM     15  C   UNL     1      -5.895  11.773  19.434  0.00  0.00    +0.000 A 
ATOM     16  C   UNL     1      -7.187  12.322  19.357  0.00  0.00    +0.000 A 
ATOM     17  C   UNL     1      -7.610  12.944  18.187  0.00  0.00    +0.000 A 
ATOM     18  C   UNL     1      -6.755  12.997  17.089  0.00  0.00    +0.000 A 
ATOM     19  C   UNL     1      -5.479  12.423  17.158  0.00  0.00    +0.000 A 
ENDBRANCH   5  14
BRANCH   2  20
ATOM     20  S   UNL     1       0.108  10.900  19.631  0.00  0.00    +0.000 S 
BRANCH  20  21
ATOM     21  C   UNL     1       1.227  10.403  18.262  0.00  0.00    +0.000 C 
BRANCH  21  22
ATOM     22  C   UNL     1       1.827   9.047  18.515  0.00  0.00    +0.000 A 
ATOM     23  N   UNL     1       2.495   8.242  17.714  0.00  0.00    +0.000 NA
ATOM     24  C   UNL     1       2.623   7.073  18.448  0.00  0.00    +0.000 A 
ATOM     25  N   UNL     1       2.190   7.219  19.716  0.00  0.00    +0.000 NA
ATOM     26  O   UNL     1       1.654   8.508  19.757  0.00  0.00    +0.000 OA
BRANCH  24  27
ATOM     27  C   UNL     1       3.170   5.801  17.931  0.00  0.00    +0.000 A 
ATOM     28  C   UNL     1       4.522   5.823  17.478  0.00  0.00    +0.000 A 
ATOM     29  C   UNL     1       5.194   4.679  17.013  0.00  0.00    +0.000 A 
ATOM     30  C   UNL     1       4.539   3.462  17.029  0.00  0.00    +0.000 A 
ATOM     31  C   UNL     1       3.219   3.410  17.465  0.00  0.00    +0.000 A 
ATOM     32  C   UNL     1       2.515   4.553  17.911  0.00  0.00    +0.000 A 
BRANCH  29  33
ATOM     33  O   UNL     1       6.491   4.853  16.605  0.00  0.00    +0.000 OA
ATOM     34  C   UNL     1       7.052   6.142  16.858  0.00  0.00    +0.000 C 
ENDBRANCH  29  33
BRANCH  32  35
ATOM     35  O   UNL     1       1.272   4.152  18.313  0.00  0.00    +0.000 OA
ATOM     36  C   UNL     1       0.977   2.804  18.601  0.00  0.00    +0.000 C 
ENDBRANCH  32  35
ENDBRANCH  24  27
ENDBRANCH  21  22
ENDBRANCH  20  21
ENDBRANCH   2  20
TORSDOF 9
ENDMDL
MODEL 9
REMARK VINA RESULT:      -7.9      5.804      9.722
REMARK  Name = 
REMARK  12 active torsions:
REMARK  status: ('A' for Active; 'I' for Inactive)
REMARK    1  A    between atoms: C_1  and  C_2
REMARK    2  A    between atoms: C_2  and  C_3
REMARK    3  A    between atoms: C_6  and  N_7
REMARK    4  A    between atoms: C_8  and  S_9
REMARK    5  A    between atoms: S_9  and  C_10
REMARK    6  A    between atoms: C_10  and  C_11
REMARK    7  A    between atoms: C_13  and  C_14
REMARK    8  A    between atoms: C_16  and  O_17
REMARK    9  A    between atoms: O_17  and  C_18
REMARK   10  A    between atoms: C_21  and  O_22
REMARK   11  A    between atoms: O_22  and  C_23
REMARK   12  A    between atoms: C_28  and  C_29
REMARK                            x       y       z     vdW  Elec       q    Type
REMARK                         _______ _______ _______ _____ _____    ______ ____
ROOT
ATOM      1  N   UNL     1      -2.325  11.890  19.333  0.00  0.00    +0.000 N 
ATOM      2  C   UNL     1      -1.182  11.269  18.803  0.00  0.00    +0.000 A 
ATOM      3  N   UNL     1      -1.526  10.449  17.835  0.00  0.00    +0.000 NA
ATOM      4  N   UNL     1      -2.885  10.534  17.673  0.00  0.00    +0.000 NA
ATOM      5  C   UNL     1      -3.381  11.433  18.512  0.00  0.00    +0.000 A 
ENDROOT
BRANCH   1   9
ATOM      6  C   UNL     1      -2.874  14.562  22.612  0.00  0.00    +0.000 A 
ATOM      7  C   UNL     1      -2.434  15.040  21.374  0.00  0.00    +0.000 A 
ATOM      8  C   UNL     1      -2.226  14.167  20.297  0.00  0.00    +0.000 A 
ATOM      9  C   UNL     1      -2.432  12.793  20.447  0.00  0.00    +0.000 A 
ATOM     10  C   UNL     1      -2.816  12.310  21.710  0.00  0.00    +0.000 A 
ATOM     11  C   UNL     1      -3.069  13.188  22.769  0.00  0.00    +0.000 A 
BRANCH   6  13
ATOM     12  C   UNL     1      -2.855  14.891  25.100  0.00  0.00    +0.000 C 
ATOM     13  C   UNL     1      -3.173  15.509  23.746  0.00  0.00    +0.000 C 
ENDBRANCH   6  13
ENDBRANCH   1   9
BRANCH   5  14
ATOM     14  C   UNL     1      -4.801  11.863  18.488  0.00  0.00    +0.000 A 
ATOM     15  C   UNL     1      -5.362  12.345  17.291  0.00  0.00    +0.000 A 
ATOM     16  C   UNL     1      -6.710  12.736  17.219  0.00  0.00    +0.000 A 
ATOM     17  C   UNL     1      -7.520  12.651  18.347  0.00  0.00    +0.000 A 
ATOM     18  C   UNL     1      -6.980  12.200  19.548  0.00  0.00    +0.000 A 
ATOM     19  C   UNL     1      -5.628  11.841  19.625  0.00  0.00    +0.000 A 
ENDBRANCH   5  14
BRANCH   2  20
ATOM     20  S   UNL     1       0.449  11.384  19.427  0.00  0.00    +0.000 S 
BRANCH  20  21
ATOM     21  C   UNL     1       0.790   9.727  20.141  0.00  0.00    +0.000 C 
BRANCH  21  22
ATOM     22  C   UNL     1       1.568   8.870  19.180  0.00  0.00    +0.000 A 
ATOM     23  N   UNL     1       2.120   7.685  19.341  0.00  0.00    +0.000 NA
ATOM     24  C   UNL     1       2.850   7.496  18.177  0.00  0.00    +0.000 A 
ATOM     25  N   UNL     1       2.616   8.463  17.268  0.00  0.00    +0.000 NA
ATOM     26  O   UNL     1       1.788   9.373  17.930  0.00  0.00    +0.000 OA
BRANCH  24  27
ATOM     27  C   UNL     1       3.779   6.374  17.931  0.00  0.00    +0.000 A 
ATOM     28  C   UNL     1       4.736   6.553  16.888  0.00  0.00    +0.000 A 
ATOM     29  C   UNL     1       5.719   5.596  16.577  0.00  0.00    +0.000 A 
ATOM     30  C   UNL     1       5.799   4.443  17.335  0.00  0.00    +0.000 A 
ATOM     31  C   UNL     1       4.877   4.241  18.358  0.00  0.00    +0.000 A 
ATOM     32  C   UNL     1       3.864   5.177  18.671  0.00  0.00    +0.000 A 
BRANCH  29  33
ATOM     33  O   UNL     1       6.569   5.904  15.546  0.00  0.00    +0.000 OA
ATOM     34  C   UNL     1       6.792   4.860  14.596  0.00  0.00    +0.000 C 
ENDBRANCH  29  33
BRANCH  32  35
ATOM     35  O   UNL     1       3.170   4.702  19.747  0.00  0.00    +0.000 OA
ATOM     36  C   UNL     1       3.148   3.332  20.079  0.00  0.00    +0.000 C 
ENDBRANCH  32  35
ENDBRANCH  24  27
ENDBRANCH  21  22
ENDBRANCH  20  21
ENDBRANCH   2  20
TORSDOF 9
ENDMDL
