MODEL 1
REMARK VINA RESULT:      -7.5      0.000      0.000
REMARK  Name = 
REMARK  10 active torsions:
REMARK  status: ('A' for Active; 'I' for Inactive)
REMARK    1  A    between atoms: C_1  and  C_2
REMARK    2  A    between atoms: C_2  and  N_3
REMARK    3  A    between atoms: N_3  and  C_4
REMARK    4  A    between atoms: N_3  and  C_6
REMARK    5  A    between atoms: C_4  and  C_5
REMARK    6  A    between atoms: C_6  and  C_7
REMARK    7  A    between atoms: C_7  and  N_8
REMARK    8  A    between atoms: N_8  and  C_9
REMARK    9  A    between atoms: N_8  and  S_10
REMARK   10  A    between atoms: S_10  and  C_13
REMARK                            x       y       z     vdW  Elec       q    Type
REMARK                         _______ _______ _______ _____ _____    ______ ____
ROOT
ATOM      1  C   UNL     1       5.628   5.198  17.582  0.00  0.00    +0.000 A 
ATOM      2  C   UNL     1       4.896   6.266  18.091  0.00  0.00    +0.000 A 
ATOM      3  C   UNL     1       3.716   6.012  18.798  0.00  0.00    +0.000 A 
ATOM      4  C   UNL     1       3.252   4.719  19.019  0.00  0.00    +0.000 A 
ATOM      5  N   UNL     1       2.105   4.546  19.684  0.00  0.00    +0.000 NA
ATOM      6  C   UNL     1       1.670   3.296  19.845  0.00  0.00    +0.000 A 
ATOM      7  N   UNL     1       0.480   3.124  20.522  0.00  0.00    +0.000 N 
ATOM      8  N   UNL     1       2.309   2.201  19.432  0.00  0.00    +0.000 NA
ATOM      9  C   UNL     1       3.462   2.385  18.778  0.00  0.00    +0.000 A 
ATOM     10  N   UNL     1       4.068   1.217  18.300  0.00  0.00    +0.000 N 
ATOM     11  C   UNL     1       4.003   3.648  18.524  0.00  0.00    +0.000 A 
ATOM     12  C   UNL     1       5.204   3.887  17.812  0.00  0.00    +0.000 A 
ATOM     13  H   UNL     1       0.296   3.921  21.114  0.00  0.00    +0.000 HD
ATOM     14  H   UNL     1       0.447   2.208  20.947  0.00  0.00    +0.000 HD
ATOM     15  H   UNL     1       3.515   0.430  18.633  0.00  0.00    +0.000 HD
ATOM     16  H   UNL     1       5.037   1.142  18.587  0.00  0.00    +0.000 HD
ENDROOT
BRANCH   1  17
ATOM     17  S   UNL     1       7.134   5.494  16.672  0.00  0.00    +0.000 S 
ATOM     18  O   UNL     1       7.991   4.344  16.873  0.00  0.00    +0.000 OA
ATOM     19  O   UNL     1       7.580   6.828  17.009  0.00  0.00    +0.000 OA
BRANCH  17  20
ATOM     20  N   UNL     1       6.592   5.501  15.042  0.00  0.00    +0.000 NA
ATOM     21  C   UNL     1       5.361   6.285  14.800  0.00  0.00    +0.000 C 
BRANCH  20  22
ATOM     22  C   UNL     1       6.634   4.167  14.366  0.00  0.00    +0.000 C 
BRANCH  22  23
ATOM     23  C   UNL     1       5.376   3.870  13.525  0.00  0.00    +0.000 C 
BRANCH  23  24
ATOM     24  N   UNL     1       5.639   3.579  12.096  0.00  0.00    +0.000 NA
BRANCH  24  26
ATOM     25  C   UNL     1       7.113   1.811  11.052  0.00  0.00    +0.000 C 
ATOM     26  C   UNL     1       7.006   3.042  11.948  0.00  0.00    +0.000 C 
ENDBRANCH  24  26
BRANCH  24  27
ATOM     27  C   UNL     1       4.604   2.757  11.449  0.00  0.00    +0.000 C 
ATOM     28  C   UNL     1       3.551   3.513  10.646  0.00  0.00    +0.000 C 
ENDBRANCH  24  27
ENDBRANCH  23  24
ENDBRANCH  22  23
ENDBRANCH  20  22
ENDBRANCH  17  20
ENDBRANCH   1  17
TORSDOF 7
ENDMDL
MODEL 2
REMARK VINA RESULT:      -7.5      0.522      1.386
REMARK  Name = 
REMARK  10 active torsions:
REMARK  status: ('A' for Active; 'I' for Inactive)
REMARK    1  A    between atoms: C_1  and  C_2
REMARK    2  A    between atoms: C_2  and  N_3
REMARK    3  A    between atoms: N_3  and  C_4
REMARK    4  A    between atoms: N_3  and  C_6
REMARK    5  A    between atoms: C_4  and  C_5
REMARK    6  A    between atoms: C_6  and  C_7
REMARK    7  A    between atoms: C_7  and  N_8
REMARK    8  A    between atoms: N_8  and  C_9
REMARK    9  A    between atoms: N_8  and  S_10
REMARK   10  A    between atoms: S_10  and  C_13
REMARK                            x       y       z     vdW  Elec       q    Type
REMARK                         _______ _______ _______ _____ _____    ______ ____
ROOT
ATOM      1  C   UNL     1       5.507   5.153  17.383  0.00  0.00    +0.000 A 
ATOM      2  C   UNL     1       4.734   6.236  17.792  0.00  0.00    +0.000 A 
ATOM      3  C   UNL     1       3.554   6.004  18.505  0.00  0.00    +0.000 A 
ATOM      4  C   UNL     1       3.129   4.720  18.831  0.00  0.00    +0.000 A 
ATOM      5  N   UNL     1       1.979   4.566  19.496  0.00  0.00    +0.000 NA
ATOM      6  C   UNL     1       1.582   3.321  19.759  0.00  0.00    +0.000 A 
ATOM      7  N   UNL     1       0.390   3.167  20.436  0.00  0.00    +0.000 N 
ATOM      8  N   UNL     1       2.262   2.216  19.448  0.00  0.00    +0.000 NA
ATOM      9  C   UNL     1       3.417   2.382  18.792  0.00  0.00    +0.000 A 
ATOM     10  N   UNL     1       4.066   1.198  18.421  0.00  0.00    +0.000 N 
ATOM     11  C   UNL     1       3.921   3.636  18.437  0.00  0.00    +0.000 A 
ATOM     12  C   UNL     1       5.122   3.854  17.720  0.00  0.00    +0.000 A 
ATOM     13  H   UNL     1       0.173   4.005  20.956  0.00  0.00    +0.000 HD
ATOM     14  H   UNL     1       0.381   2.290  20.937  0.00  0.00    +0.000 HD
ATOM     15  H   UNL     1       3.534   0.425  18.815  0.00  0.00    +0.000 HD
ATOM     16  H   UNL     1       5.033   1.181  18.724  0.00  0.00    +0.000 HD
ENDROOT
BRANCH   1  17
ATOM     17  S   UNL     1       7.015   5.421  16.467  0.00  0.00    +0.000 S 
ATOM     18  O   UNL     1       7.905   4.320  16.773  0.00  0.00    +0.000 OA
ATOM     19  O   UNL     1       7.414   6.792  16.695  0.00  0.00    +0.000 OA
BRANCH  17  20
ATOM     20  N   UNL     1       6.493   5.274  14.837  0.00  0.00    +0.000 NA
ATOM     21  C   UNL     1       5.401   6.192  14.449  0.00  0.00    +0.000 C 
BRANCH  20  22
ATOM     22  C   UNL     1       6.334   3.865  14.358  0.00  0.00    +0.000 C 
BRANCH  22  23
ATOM     23  C   UNL     1       6.408   3.731  12.824  0.00  0.00    +0.000 C 
BRANCH  23  24
ATOM     24  N   UNL     1       5.315   2.934  12.218  0.00  0.00    +0.000 NA
BRANCH  24  26
ATOM     25  C   UNL     1       3.354   3.121  10.635  0.00  0.00    +0.000 C 
ATOM     26  C   UNL     1       4.394   3.833  11.497  0.00  0.00    +0.000 C 
ENDBRANCH  24  26
BRANCH  24  27
ATOM     27  C   UNL     1       5.779   1.790  11.416  0.00  0.00    +0.000 C 
ATOM     28  C   UNL     1       7.260   1.779  11.054  0.00  0.00    +0.000 C 
ENDBRANCH  24  27
ENDBRANCH  23  24
ENDBRANCH  22  23
ENDBRANCH  20  22
ENDBRANCH  17  20
ENDBRANCH   1  17
TORSDOF 7
ENDMDL
MODEL 3
REMARK VINA RESULT:      -7.5      4.055      7.431
REMARK  Name = 
REMARK  10 active torsions:
REMARK  status: ('A' for Active; 'I' for Inactive)
REMARK    1  A    between atoms: C_1  and  C_2
REMARK    2  A    between atoms: C_2  and  N_3
REMARK    3  A    between atoms: N_3  and  C_4
REMARK    4  A    between atoms: N_3  and  C_6
REMARK    5  A    between atoms: C_4  and  C_5
REMARK    6  A    between atoms: C_6  and  C_7
REMARK    7  A    between atoms: C_7  and  N_8
REMARK    8  A    between atoms: N_8  and  C_9
REMARK    9  A    between atoms: N_8  and  S_10
REMARK   10  A    between atoms: S_10  and  C_13
REMARK                            x       y       z     vdW  Elec       q    Type
REMARK                         _______ _______ _______ _____ _____    ______ ____
ROOT
ATOM      1  C   UNL     1       4.229   4.141  18.419  0.00  0.00    +0.000 A 
ATOM      2  C   UNL     1       3.826   4.870  17.305  0.00  0.00    +0.000 A 
ATOM      3  C   UNL     1       4.628   5.922  16.848  0.00  0.00    +0.000 A 
ATOM      4  C   UNL     1       5.827   6.258  17.468  0.00  0.00    +0.000 A 
ATOM      5  N   UNL     1       6.535   7.289  16.994  0.00  0.00    +0.000 NA
ATOM      6  C   UNL     1       7.660   7.608  17.635  0.00  0.00    +0.000 A 
ATOM      7  N   UNL     1       8.382   8.678  17.149  0.00  0.00    +0.000 N 
ATOM      8  N   UNL     1       8.157   6.955  18.686  0.00  0.00    +0.000 NA
ATOM      9  C   UNL     1       7.446   5.919  19.145  0.00  0.00    +0.000 A 
ATOM     10  N   UNL     1       7.963   5.303  20.292  0.00  0.00    +0.000 N 
ATOM     11  C   UNL     1       6.238   5.508  18.574  0.00  0.00    +0.000 A 
ATOM     12  C   UNL     1       5.442   4.437  19.045  0.00  0.00    +0.000 A 
ATOM     13  H   UNL     1       8.161   8.836  16.176  0.00  0.00    +0.000 HD
ATOM     14  H   UNL     1       9.356   8.588  17.399  0.00  0.00    +0.000 HD
ATOM     15  H   UNL     1       8.854   5.748  20.499  0.00  0.00    +0.000 HD
ATOM     16  H   UNL     1       8.062   4.301  20.177  0.00  0.00    +0.000 HD
ENDROOT
BRANCH   1  17
ATOM     17  S   UNL     1       3.223   2.799  19.026  0.00  0.00    +0.000 S 
ATOM     18  O   UNL     1       4.122   1.759  19.482  0.00  0.00    +0.000 OA
ATOM     19  O   UNL     1       2.218   2.531  18.020  0.00  0.00    +0.000 OA
BRANCH  17  20
ATOM     20  N   UNL     1       2.448   3.498  20.390  0.00  0.00    +0.000 NA
ATOM     21  C   UNL     1       1.883   2.525  21.350  0.00  0.00    +0.000 C 
BRANCH  20  22
ATOM     22  C   UNL     1       1.562   4.662  20.075  0.00  0.00    +0.000 C 
BRANCH  22  23
ATOM     23  C   UNL     1       1.975   5.957  20.802  0.00  0.00    +0.000 C 
BRANCH  23  24
ATOM     24  N   UNL     1       1.526   7.207  20.144  0.00  0.00    +0.000 NA
BRANCH  24  26
ATOM     25  C   UNL     1      -0.133   8.451  21.588  0.00  0.00    +0.000 C 
ATOM     26  C   UNL     1       1.320   8.252  21.165  0.00  0.00    +0.000 C 
ENDBRANCH  24  26
BRANCH  24  27
ATOM     27  C   UNL     1       2.376   7.633  19.020  0.00  0.00    +0.000 C 
ATOM     28  C   UNL     1       1.833   8.770  18.161  0.00  0.00    +0.000 C 
ENDBRANCH  24  27
ENDBRANCH  23  24
ENDBRANCH  22  23
ENDBRANCH  20  22
ENDBRANCH  17  20
ENDBRANCH   1  17
TORSDOF 7
ENDMDL
MODEL 4
REMARK VINA RESULT:      -7.3      3.906      7.334
REMARK  Name = 
REMARK  10 active torsions:
REMARK  status: ('A' for Active; 'I' for Inactive)
REMARK    1  A    between atoms: C_1  and  C_2
REMARK    2  A    between atoms: C_2  and  N_3
REMARK    3  A    between atoms: N_3  and  C_4
REMARK    4  A    between atoms: N_3  and  C_6
REMARK    5  A    between atoms: C_4  and  C_5
REMARK    6  A    between atoms: C_6  and  C_7
REMARK    7  A    between atoms: C_7  and  N_8
REMARK    8  A    between atoms: N_8  and  C_9
REMARK    9  A    between atoms: N_8  and  S_10
REMARK   10  A    between atoms: S_10  and  C_13
REMARK                            x       y       z     vdW  Elec       q    Type
REMARK                         _______ _______ _______ _____ _____    ______ ____
ROOT
ATOM      1  C   UNL     1       4.385   4.034  18.190  0.00  0.00    +0.000 A 
ATOM      2  C   UNL     1       4.013   4.738  17.049  0.00  0.00    +0.000 A 
ATOM      3  C   UNL     1       4.787   5.826  16.632  0.00  0.00    +0.000 A 
ATOM      4  C   UNL     1       5.930   6.224  17.319  0.00  0.00    +0.000 A 
ATOM      5  N   UNL     1       6.613   7.287  16.880  0.00  0.00    +0.000 NA
ATOM      6  C   UNL     1       7.680   7.665  17.584  0.00  0.00    +0.000 A 
ATOM      7  N   UNL     1       8.376   8.768  17.134  0.00  0.00    +0.000 N 
ATOM      8  N   UNL     1       8.146   7.042  18.668  0.00  0.00    +0.000 NA
ATOM      9  C   UNL     1       7.461   5.974  19.092  0.00  0.00    +0.000 A 
ATOM     10  N   UNL     1       7.939   5.389  20.271  0.00  0.00    +0.000 N 
ATOM     11  C   UNL     1       6.311   5.500  18.454  0.00  0.00    +0.000 A 
ATOM     12  C   UNL     1       5.542   4.393  18.885  0.00  0.00    +0.000 A 
ATOM     13  H   UNL     1       8.206   8.910  16.148  0.00  0.00    +0.000 HD
ATOM     14  H   UNL     1       9.337   8.727  17.442  0.00  0.00    +0.000 HD
ATOM     15  H   UNL     1       8.793   5.879  20.527  0.00  0.00    +0.000 HD
ATOM     16  H   UNL     1       8.094   4.393  20.169  0.00  0.00    +0.000 HD
ENDROOT
BRANCH   1  17
ATOM     17  S   UNL     1       3.412   2.646  18.746  0.00  0.00    +0.000 S 
ATOM     18  O   UNL     1       4.305   1.749  19.451  0.00  0.00    +0.000 OA
ATOM     19  O   UNL     1       2.634   2.190  17.615  0.00  0.00    +0.000 OA
BRANCH  17  20
ATOM     20  N   UNL     1       2.344   3.367  19.882  0.00  0.00    +0.000 NA
ATOM     21  C   UNL     1       1.301   2.465  20.414  0.00  0.00    +0.000 C 
BRANCH  20  22
ATOM     22  C   UNL     1       1.865   4.734  19.506  0.00  0.00    +0.000 C 
BRANCH  22  23
ATOM     23  C   UNL     1       1.695   5.675  20.715  0.00  0.00    +0.000 C 
BRANCH  23  24
ATOM     24  N   UNL     1       2.037   7.093  20.451  0.00  0.00    +0.000 NA
BRANCH  24  26
ATOM     25  C   UNL     1       1.947   8.526  18.372  0.00  0.00    +0.000 C 
ATOM     26  C   UNL     1       2.441   7.246  19.040  0.00  0.00    +0.000 C 
ENDBRANCH  24  26
BRANCH  24  27
ATOM     27  C   UNL     1       1.006   8.050  20.883  0.00  0.00    +0.000 C 
ATOM     28  C   UNL     1       1.374   8.948  22.060  0.00  0.00    +0.000 C 
ENDBRANCH  24  27
ENDBRANCH  23  24
ENDBRANCH  22  23
ENDBRANCH  20  22
ENDBRANCH  17  20
ENDBRANCH   1  17
TORSDOF 7
ENDMDL
MODEL 5
REMARK VINA RESULT:      -7.2      1.346      1.587
REMARK  Name = 
REMARK  10 active torsions:
REMARK  status: ('A' for Active; 'I' for Inactive)
REMARK    1  A    between atoms: C_1  and  C_2
REMARK    2  A    between atoms: C_2  and  N_3
REMARK    3  A    between atoms: N_3  and  C_4
REMARK    4  A    between atoms: N_3  and  C_6
REMARK    5  A    between atoms: C_4  and  C_5
REMARK    6  A    between atoms: C_6  and  C_7
REMARK    7  A    between atoms: C_7  and  N_8
REMARK    8  A    between atoms: N_8  and  C_9
REMARK    9  A    between atoms: N_8  and  S_10
REMARK   10  A    between atoms: S_10  and  C_13
REMARK                            x       y       z     vdW  Elec       q    Type
REMARK                         _______ _______ _______ _____ _____    ______ ____
ROOT
ATOM      1  C   UNL     1       4.388   5.898  17.645  0.00  0.00    +0.000 A 
ATOM      2  C   UNL     1       3.312   6.678  18.056  0.00  0.00    +0.000 A 
ATOM      3  C   UNL     1       2.462   6.198  19.058  0.00  0.00    +0.000 A 
ATOM      4  C   UNL     1       2.664   4.964  19.668  0.00  0.00    +0.000 A 
ATOM      5  N   UNL     1       1.801   4.555  20.604  0.00  0.00    +0.000 NA
ATOM      6  C   UNL     1       2.002   3.351  21.141  0.00  0.00    +0.000 A 
ATOM      7  N   UNL     1       1.104   2.929  22.099  0.00  0.00    +0.000 N 
ATOM      8  N   UNL     1       3.019   2.540  20.849  0.00  0.00    +0.000 NA
ATOM      9  C   UNL     1       3.883   2.964  19.919  0.00  0.00    +0.000 A 
ATOM     10  N   UNL     1       4.897   2.056  19.590  0.00  0.00    +0.000 N 
ATOM     11  C   UNL     1       3.760   4.194  19.266  0.00  0.00    +0.000 A 
ATOM     12  C   UNL     1       4.634   4.668  18.258  0.00  0.00    +0.000 A 
ATOM     13  H   UNL     1       0.644   3.723  22.521  0.00  0.00    +0.000 HD
ATOM     14  H   UNL     1       1.537   2.257  22.716  0.00  0.00    +0.000 HD
ATOM     15  H   UNL     1       4.802   1.257  20.212  0.00  0.00    +0.000 HD
ATOM     16  H   UNL     1       5.818   2.473  19.651  0.00  0.00    +0.000 HD
ENDROOT
BRANCH   1  17
ATOM     17  S   UNL     1       5.485   6.483  16.365  0.00  0.00    +0.000 S 
ATOM     18  O   UNL     1       6.557   7.208  17.015  0.00  0.00    +0.000 OA
ATOM     19  O   UNL     1       4.663   7.111  15.353  0.00  0.00    +0.000 OA
BRANCH  17  20
ATOM     20  N   UNL     1       6.118   5.024  15.717  0.00  0.00    +0.000 NA
ATOM     21  C   UNL     1       7.595   4.936  15.711  0.00  0.00    +0.000 C 
BRANCH  20  22
ATOM     22  C   UNL     1       5.452   4.559  14.461  0.00  0.00    +0.000 C 
BRANCH  22  23
ATOM     23  C   UNL     1       6.350   3.654  13.594  0.00  0.00    +0.000 C 
BRANCH  23  24
ATOM     24  N   UNL     1       5.941   3.552  12.173  0.00  0.00    +0.000 NA
BRANCH  24  26
ATOM     25  C   UNL     1       6.514   1.347  11.079  0.00  0.00    +0.000 C 
ATOM     26  C   UNL     1       6.945   2.769  11.427  0.00  0.00    +0.000 C 
ENDBRANCH  24  26
BRANCH  24  27
ATOM     27  C   UNL     1       4.558   3.086  11.978  0.00  0.00    +0.000 C 
ATOM     28  C   UNL     1       3.878   3.523  10.685  0.00  0.00    +0.000 C 
ENDBRANCH  24  27
ENDBRANCH  23  24
ENDBRANCH  22  23
ENDBRANCH  20  22
ENDBRANCH  17  20
ENDBRANCH   1  17
TORSDOF 7
ENDMDL
MODEL 6
REMARK VINA RESULT:      -7.2      4.200      6.122
REMARK  Name = 
REMARK  10 active torsions:
REMARK  status: ('A' for Active; 'I' for Inactive)
REMARK    1  A    between atoms: C_1  and  C_2
REMARK    2  A    between atoms: C_2  and  N_3
REMARK    3  A    between atoms: N_3  and  C_4
REMARK    4  A    between atoms: N_3  and  C_6
REMARK    5  A    between atoms: C_4  and  C_5
REMARK    6  A    between atoms: C_6  and  C_7
REMARK    7  A    between atoms: C_7  and  N_8
REMARK    8  A    between atoms: N_8  and  C_9
REMARK    9  A    between atoms: N_8  and  S_10
REMARK   10  A    between atoms: S_10  and  C_13
REMARK                            x       y       z     vdW  Elec       q    Type
REMARK                         _______ _______ _______ _____ _____    ______ ____
ROOT
ATOM      1  C   UNL     1       2.490   6.934  19.274  0.00  0.00    +0.000 A 
ATOM      2  C   UNL     1       2.610   7.544  18.029  0.00  0.00    +0.000 A 
ATOM      3  C   UNL     1       2.032   8.801  17.824  0.00  0.00    +0.000 A 
ATOM      4  C   UNL     1       1.346   9.471  18.833  0.00  0.00    +0.000 A 
ATOM      5  N   UNL     1       0.799  10.661  18.564  0.00  0.00    +0.000 NA
ATOM      6  C   UNL     1       0.115  11.258  19.542  0.00  0.00    +0.000 A 
ATOM      7  N   UNL     1      -0.456  12.480  19.257  0.00  0.00    +0.000 N 
ATOM      8  N   UNL     1      -0.030  10.782  20.779  0.00  0.00    +0.000 NA
ATOM      9  C   UNL     1       0.532   9.596  21.040  0.00  0.00    +0.000 A 
ATOM     10  N   UNL     1       0.299   9.096  22.327  0.00  0.00    +0.000 N 
ATOM     11  C   UNL     1       1.247   8.863  20.088  0.00  0.00    +0.000 A 
ATOM     12  C   UNL     1       1.832   7.594  20.314  0.00  0.00    +0.000 A 
ATOM     13  H   UNL     1       0.022  12.919  18.484  0.00  0.00    +0.000 HD
ATOM     14  H   UNL     1      -0.572  13.020  20.103  0.00  0.00    +0.000 HD
ATOM     15  H   UNL     1      -0.210   9.812  22.841  0.00  0.00    +0.000 HD
ATOM     16  H   UNL     1       1.157   8.835  22.797  0.00  0.00    +0.000 HD
ENDROOT
BRANCH   1  17
ATOM     17  S   UNL     1       3.213   5.328  19.560  0.00  0.00    +0.000 S 
ATOM     18  O   UNL     1       2.449   4.694  20.614  0.00  0.00    +0.000 OA
ATOM     19  O   UNL     1       4.641   5.520  19.683  0.00  0.00    +0.000 OA
BRANCH  17  20
ATOM     20  N   UNL     1       2.902   4.509  18.083  0.00  0.00    +0.000 NA
ATOM     21  C   UNL     1       1.614   3.784  18.033  0.00  0.00    +0.000 C 
BRANCH  20  22
ATOM     22  C   UNL     1       4.071   3.756  17.530  0.00  0.00    +0.000 C 
BRANCH  22  23
ATOM     23  C   UNL     1       4.709   4.437  16.302  0.00  0.00    +0.000 C 
BRANCH  23  24
ATOM     24  N   UNL     1       6.062   4.995  16.536  0.00  0.00    +0.000 NA
BRANCH  24  26
ATOM     25  C   UNL     1       6.294   4.075  14.194  0.00  0.00    +0.000 C 
ATOM     26  C   UNL     1       6.980   4.516  15.484  0.00  0.00    +0.000 C 
ENDBRANCH  24  26
BRANCH  24  27
ATOM     27  C   UNL     1       6.085   6.454  16.727  0.00  0.00    +0.000 C 
ATOM     28  C   UNL     1       7.274   7.012  17.502  0.00  0.00    +0.000 C 
ENDBRANCH  24  27
ENDBRANCH  23  24
ENDBRANCH  22  23
ENDBRANCH  20  22
ENDBRANCH  17  20
ENDBRANCH   1  17
TORSDOF 7
ENDMDL
MODEL 7
REMARK VINA RESULT:      -7.1      3.586      6.874
REMARK  Name = 
REMARK  10 active torsions:
REMARK  status: ('A' for Active; 'I' for Inactive)
REMARK    1  A    between atoms: C_1  and  C_2
REMARK    2  A    between atoms: C_2  and  N_3
REMARK    3  A    between atoms: N_3  and  C_4
REMARK    4  A    between atoms: N_3  and  C_6
REMARK    5  A    between atoms: C_4  and  C_5
REMARK    6  A    between atoms: C_6  and  C_7
REMARK    7  A    between atoms: C_7  and  N_8
REMARK    8  A    between atoms: N_8  and  C_9
REMARK    9  A    between atoms: N_8  and  S_10
REMARK   10  A    between atoms: S_10  and  C_13
REMARK                            x       y       z     vdW  Elec       q    Type
REMARK                         _______ _______ _______ _____ _____    ______ ____
ROOT
ATOM      1  C   UNL     1       3.740   3.242  18.863  0.00  0.00    +0.000 A 
ATOM      2  C   UNL     1       3.130   3.139  17.617  0.00  0.00    +0.000 A 
ATOM      3  C   UNL     1       3.826   3.556  16.478  0.00  0.00    +0.000 A 
ATOM      4  C   UNL     1       5.119   4.065  16.548  0.00  0.00    +0.000 A 
ATOM      5  N   UNL     1       5.720   4.466  15.423  0.00  0.00    +0.000 NA
ATOM      6  C   UNL     1       6.944   4.984  15.531  0.00  0.00    +0.000 A 
ATOM      7  N   UNL     1       7.556   5.407  14.369  0.00  0.00    +0.000 N 
ATOM      8  N   UNL     1       7.634   5.094  16.667  0.00  0.00    +0.000 NA
ATOM      9  C   UNL     1       7.028   4.679  17.785  0.00  0.00    +0.000 A 
ATOM     10  N   UNL     1       7.755   4.875  18.966  0.00  0.00    +0.000 N 
ATOM     11  C   UNL     1       5.736   4.146  17.801  0.00  0.00    +0.000 A 
ATOM     12  C   UNL     1       5.048   3.721  18.963  0.00  0.00    +0.000 A 
ATOM     13  H   UNL     1       7.155   4.935  13.571  0.00  0.00    +0.000 HD
ATOM     14  H   UNL     1       8.561   5.381  14.472  0.00  0.00    +0.000 HD
ATOM     15  H   UNL     1       8.667   5.241  18.702  0.00  0.00    +0.000 HD
ATOM     16  H   UNL     1       7.835   4.026  19.512  0.00  0.00    +0.000 HD
ENDROOT
BRANCH   1  17
ATOM     17  S   UNL     1       2.873   2.722  20.333  0.00  0.00    +0.000 S 
ATOM     18  O   UNL     1       3.870   2.439  21.344  0.00  0.00    +0.000 OA
ATOM     19  O   UNL     1       1.912   1.718  19.929  0.00  0.00    +0.000 OA
BRANCH  17  20
ATOM     20  N   UNL     1       2.015   4.140  20.784  0.00  0.00    +0.000 NA
ATOM     21  C   UNL     1       0.599   4.171  20.359  0.00  0.00    +0.000 C 
BRANCH  20  22
ATOM     22  C   UNL     1       2.766   5.417  20.571  0.00  0.00    +0.000 C 
BRANCH  22  23
ATOM     23  C   UNL     1       1.847   6.642  20.393  0.00  0.00    +0.000 C 
BRANCH  23  24
ATOM     24  N   UNL     1       2.337   7.648  19.421  0.00  0.00    +0.000 NA
BRANCH  24  26
ATOM     25  C   UNL     1       3.943   7.242  17.512  0.00  0.00    +0.000 C 
ATOM     26  C   UNL     1       2.561   7.000  18.114  0.00  0.00    +0.000 C 
ENDBRANCH  24  26
BRANCH  24  27
ATOM     27  C   UNL     1       1.513   8.865  19.349  0.00  0.00    +0.000 C 
ATOM     28  C   UNL     1       1.047   9.280  17.957  0.00  0.00    +0.000 C 
ENDBRANCH  24  27
ENDBRANCH  23  24
ENDBRANCH  22  23
ENDBRANCH  20  22
ENDBRANCH  17  20
ENDBRANCH   1  17
TORSDOF 7
ENDMDL
MODEL 8
REMARK VINA RESULT:      -7.1      1.562      2.002
REMARK  Name = 
REMARK  10 active torsions:
REMARK  status: ('A' for Active; 'I' for Inactive)
REMARK    1  A    between atoms: C_1  and  C_2
REMARK    2  A    between atoms: C_2  and  N_3
REMARK    3  A    between atoms: N_3  and  C_4
REMARK    4  A    between atoms: N_3  and  C_6
REMARK    5  A    between atoms: C_4  and  C_5
REMARK    6  A    between atoms: C_6  and  C_7
REMARK    7  A    between atoms: C_7  and  N_8
REMARK    8  A    between atoms: N_8  and  C_9
REMARK    9  A    between atoms: N_8  and  S_10
REMARK   10  A    between atoms: S_10  and  C_13
REMARK                            x       y       z     vdW  Elec       q    Type
REMARK                         _______ _______ _______ _____ _____    ______ ____
ROOT
ATOM      1  C   UNL     1       4.336   5.746  18.058  0.00  0.00    +0.000 A 
ATOM      2  C   UNL     1       3.232   6.491  18.459  0.00  0.00    +0.000 A 
ATOM      3  C   UNL     1       2.373   5.971  19.434  0.00  0.00    +0.000 A 
ATOM      4  C   UNL     1       2.593   4.731  20.026  0.00  0.00    +0.000 A 
ATOM      5  N   UNL     1       1.721   4.283  20.935  0.00  0.00    +0.000 NA
ATOM      6  C   UNL     1       1.941   3.075  21.454  0.00  0.00    +0.000 A 
ATOM      7  N   UNL     1       1.033   2.612  22.384  0.00  0.00    +0.000 N 
ATOM      8  N   UNL     1       2.985   2.295  21.170  0.00  0.00    +0.000 NA
ATOM      9  C   UNL     1       3.857   2.758  20.267  0.00  0.00    +0.000 A 
ATOM     10  N   UNL     1       4.901   1.882  19.944  0.00  0.00    +0.000 N 
ATOM     11  C   UNL     1       3.717   3.997  19.634  0.00  0.00    +0.000 A 
ATOM     12  C   UNL     1       4.600   4.511  18.655  0.00  0.00    +0.000 A 
ATOM     13  H   UNL     1       0.544   3.386  22.811  0.00  0.00    +0.000 HD
ATOM     14  H   UNL     1       1.470   1.940  22.998  0.00  0.00    +0.000 HD
ATOM     15  H   UNL     1       4.813   1.070  20.549  0.00  0.00    +0.000 HD
ATOM     16  H   UNL     1       5.810   2.320  20.033  0.00  0.00    +0.000 HD
ENDROOT
BRANCH   1  17
ATOM     17  S   UNL     1       5.445   6.383  16.814  0.00  0.00    +0.000 S 
ATOM     18  O   UNL     1       6.556   7.004  17.505  0.00  0.00    +0.000 OA
ATOM     19  O   UNL     1       4.643   7.126  15.868  0.00  0.00    +0.000 OA
BRANCH  17  20
ATOM     20  N   UNL     1       6.004   4.953  16.043  0.00  0.00    +0.000 NA
ATOM     21  C   UNL     1       7.464   4.730  16.128  0.00  0.00    +0.000 C 
BRANCH  20  22
ATOM     22  C   UNL     1       5.404   4.696  14.696  0.00  0.00    +0.000 C 
BRANCH  22  23
ATOM     23  C   UNL     1       6.143   3.603  13.898  0.00  0.00    +0.000 C 
BRANCH  23  24
ATOM     24  N   UNL     1       6.029   3.727  12.425  0.00  0.00    +0.000 NA
BRANCH  24  26
ATOM     25  C   UNL     1       7.881   5.444  12.346  0.00  0.00    +0.000 C 
ATOM     26  C   UNL     1       7.340   4.102  11.862  0.00  0.00    +0.000 C 
ENDBRANCH  24  26
BRANCH  24  27
ATOM     27  C   UNL     1       5.411   2.563  11.770  0.00  0.00    +0.000 C 
ATOM     28  C   UNL     1       6.370   1.525  11.200  0.00  0.00    +0.000 C 
ENDBRANCH  24  27
ENDBRANCH  23  24
ENDBRANCH  22  23
ENDBRANCH  20  22
ENDBRANCH  17  20
ENDBRANCH   1  17
TORSDOF 7
ENDMDL
MODEL 9
REMARK VINA RESULT:      -7.1      1.177      1.744
REMARK  Name = 
REMARK  10 active torsions:
REMARK  status: ('A' for Active; 'I' for Inactive)
REMARK    1  A    between atoms: C_1  and  C_2
REMARK    2  A    between atoms: C_2  and  N_3
REMARK    3  A    between atoms: N_3  and  C_4
REMARK    4  A    between atoms: N_3  and  C_6
REMARK    5  A    between atoms: C_4  and  C_5
REMARK    6  A    between atoms: C_6  and  C_7
REMARK    7  A    between atoms: C_7  and  N_8
REMARK    8  A    between atoms: N_8  and  C_9
REMARK    9  A    between atoms: N_8  and  S_10
REMARK   10  A    between atoms: S_10  and  C_13
REMARK                            x       y       z     vdW  Elec       q    Type
REMARK                         _______ _______ _______ _____ _____    ______ ____
ROOT
ATOM      1  C   UNL     1       5.412   5.548  18.111  0.00  0.00    +0.000 A 
ATOM      2  C   UNL     1       4.303   6.383  18.202  0.00  0.00    +0.000 A 
ATOM      3  C   UNL     1       3.186   5.960  18.930  0.00  0.00    +0.000 A 
ATOM      4  C   UNL     1       3.150   4.728  19.577  0.00  0.00    +0.000 A 
ATOM      5  N   UNL     1       2.043   4.374  20.237  0.00  0.00    +0.000 NA
ATOM      6  C   UNL     1       2.028   3.172  20.814  0.00  0.00    +0.000 A 
ATOM      7  N   UNL     1       0.880   2.807  21.485  0.00  0.00    +0.000 N 
ATOM      8  N   UNL     1       3.046   2.311  20.820  0.00  0.00    +0.000 NA
ATOM      9  C   UNL     1       4.154   2.680  20.166  0.00  0.00    +0.000 A 
ATOM     10  N   UNL     1       5.175   1.722  20.135  0.00  0.00    +0.000 N 
ATOM     11  C   UNL     1       4.276   3.902  19.499  0.00  0.00    +0.000 A 
ATOM     12  C   UNL     1       5.418   4.319  18.773  0.00  0.00    +0.000 A 
ATOM     13  H   UNL     1       0.359   3.628  21.759  0.00  0.00    +0.000 HD
ATOM     14  H   UNL     1       1.092   2.126  22.200  0.00  0.00    +0.000 HD
ATOM     15  H   UNL     1       4.872   0.938  20.709  0.00  0.00    +0.000 HD
ATOM     16  H   UNL     1       6.062   2.097  20.449  0.00  0.00    +0.000 HD
ENDROOT
BRANCH   1  17
ATOM     17  S   UNL     1       6.849   6.062  17.185  0.00  0.00    +0.000 S 
ATOM     18  O   UNL     1       7.935   5.177  17.550  0.00  0.00    +0.000 OA
ATOM     19  O   UNL     1       6.966   7.495  17.341  0.00  0.00    +0.000 OA
BRANCH  17  20
ATOM     20  N   UNL     1       6.387   5.731  15.564  0.00  0.00    +0.000 NA
ATOM     21  C   UNL     1       5.273   6.559  15.053  0.00  0.00    +0.000 C 
BRANCH  20  22
ATOM     22  C   UNL     1       6.299   4.276  15.226  0.00  0.00    +0.000 C 
BRANCH  22  23
ATOM     23  C   UNL     1       5.581   4.003  13.889  0.00  0.00    +0.000 C 
BRANCH  23  24
ATOM     24  N   UNL     1       6.476   3.621  12.771  0.00  0.00    +0.000 NA
BRANCH  24  26
ATOM     25  C   UNL     1       4.422   3.135  11.382  0.00  0.00    +0.000 C 
ATOM     26  C   UNL     1       5.781   2.663  11.890  0.00  0.00    +0.000 C 
ENDBRANCH  24  26
BRANCH  24  27
ATOM     27  C   UNL     1       7.067   4.765  12.057  0.00  0.00    +0.000 C 
ATOM     28  C   UNL     1       8.242   5.451  12.744  0.00  0.00    +0.000 C 
ENDBRANCH  24  27
ENDBRANCH  23  24
ENDBRANCH  22  23
ENDBRANCH  20  22
ENDBRANCH  17  20
ENDBRANCH   1  17
TORSDOF 7
ENDMDL
