MODEL 1
REMARK VINA RESULT:      -7.1      0.000      0.000
REMARK  Name = 
REMARK  3 active torsions:
REMARK  status: ('A' for Active; 'I' for Inactive)
REMARK    1  A    between atoms: C_1  and  S_2
REMARK    2  A    between atoms: S_2  and  C_5
REMARK    3  A    between atoms: C_13  and  C_14
REMARK                            x       y       z     vdW  Elec       q    Type
REMARK                         _______ _______ _______ _____ _____    ______ ____
ROOT
ATOM      1  C   UNL     1       5.732   5.143  16.750  0.00  0.00    +0.000 A 
ATOM      2  C   UNL     1       5.172   6.288  17.325  0.00  0.00    +0.000 A 
ATOM      3  C   UNL     1       3.961   6.192  18.015  0.00  0.00    +0.000 A 
ATOM      4  C   UNL     1       3.331   4.951  18.140  0.00  0.00    +0.000 A 
ATOM      5  C   UNL     1       3.887   3.808  17.543  0.00  0.00    +0.000 A 
ATOM      6  C   UNL     1       5.095   3.904  16.849  0.00  0.00    +0.000 A 
ATOM      7  C   UNL     1       3.102   2.524  17.616  0.00  0.00    +0.000 C 
ATOM      8  N   UNL     1       2.564   2.244  18.944  0.00  0.00    +0.000 NA
ATOM      9  C   UNL     1       2.059   3.441  19.691  0.00  0.00    +0.000 C 
ATOM     10  C   UNL     1       2.037   4.770  18.894  0.00  0.00    +0.000 C 
ATOM     11  H   UNL     1       3.287   1.796  19.508  0.00  0.00    +0.000 HD
ENDROOT
BRANCH   1  13
ATOM     12  C   UNL     1       6.981   4.856  14.264  0.00  0.00    +0.000 C 
ATOM     13  S   UNL     1       7.323   5.250  15.956  0.00  0.00    +0.000 S 
ATOM     14  O   UNL     1       8.151   4.192  16.506  0.00  0.00    +0.000 OA
ATOM     15  O   UNL     1       7.747   6.635  16.021  0.00  0.00    +0.000 OA
ENDBRANCH   1  13
BRANCH   9  16
ATOM     16  C   UNL     1       0.701   3.247  20.424  0.00  0.00    +0.000 C 
ATOM     17  F   UNL     1       0.042   4.413  20.612  0.00  0.00    +0.000 F 
ATOM     18  F   UNL     1      -0.115   2.446  19.694  0.00  0.00    +0.000 F 
ATOM     19  F   UNL     1       0.848   2.667  21.637  0.00  0.00    +0.000 F 
ENDBRANCH   9  16
TORSDOF 2
ENDMDL
MODEL 2
REMARK VINA RESULT:      -6.9      1.166      1.575
REMARK  Name = 
REMARK  3 active torsions:
REMARK  status: ('A' for Active; 'I' for Inactive)
REMARK    1  A    between atoms: C_1  and  S_2
REMARK    2  A    between atoms: S_2  and  C_5
REMARK    3  A    between atoms: C_13  and  C_14
REMARK                            x       y       z     vdW  Elec       q    Type
REMARK                         _______ _______ _______ _____ _____    ______ ____
ROOT
ATOM      1  C   UNL     1       5.305   4.859  16.081  0.00  0.00    +0.000 A 
ATOM      2  C   UNL     1       4.872   6.035  16.702  0.00  0.00    +0.000 A 
ATOM      3  C   UNL     1       3.950   5.965  17.749  0.00  0.00    +0.000 A 
ATOM      4  C   UNL     1       3.484   4.719  18.179  0.00  0.00    +0.000 A 
ATOM      5  C   UNL     1       3.906   3.542  17.538  0.00  0.00    +0.000 A 
ATOM      6  C   UNL     1       4.823   3.613  16.489  0.00  0.00    +0.000 A 
ATOM      7  C   UNL     1       3.279   2.242  17.973  0.00  0.00    +0.000 C 
ATOM      8  N   UNL     1       3.208   2.084  19.423  0.00  0.00    +0.000 NA
ATOM      9  C   UNL     1       2.878   3.334  20.182  0.00  0.00    +0.000 C 
ATOM     10  C   UNL     1       2.510   4.567  19.321  0.00  0.00    +0.000 C 
ATOM     11  H   UNL     1       4.103   1.730  19.763  0.00  0.00    +0.000 HD
ENDROOT
BRANCH   1  13
ATOM     12  C   UNL     1       6.132   3.625  13.712  0.00  0.00    +0.000 C 
ATOM     13  S   UNL     1       6.553   4.945  14.813  0.00  0.00    +0.000 S 
ATOM     14  O   UNL     1       7.824   4.623  15.437  0.00  0.00    +0.000 OA
ATOM     15  O   UNL     1       6.369   6.199  14.109  0.00  0.00    +0.000 OA
ENDBRANCH   1  13
BRANCH   9  16
ATOM     16  C   UNL     1       1.838   3.163  21.326  0.00  0.00    +0.000 C 
ATOM     17  F   UNL     1       1.747   1.885  21.758  0.00  0.00    +0.000 F 
ATOM     18  F   UNL     1       2.191   3.917  22.398  0.00  0.00    +0.000 F 
ATOM     19  F   UNL     1       0.597   3.553  20.958  0.00  0.00    +0.000 F 
ENDBRANCH   9  16
TORSDOF 2
ENDMDL
MODEL 3
REMARK VINA RESULT:      -6.8      1.610      2.038
REMARK  Name = 
REMARK  3 active torsions:
REMARK  status: ('A' for Active; 'I' for Inactive)
REMARK    1  A    between atoms: C_1  and  S_2
REMARK    2  A    between atoms: S_2  and  C_5
REMARK    3  A    between atoms: C_13  and  C_14
REMARK                            x       y       z     vdW  Elec       q    Type
REMARK                         _______ _______ _______ _____ _____    ______ ____
ROOT
ATOM      1  C   UNL     1       5.759   6.333  17.645  0.00  0.00    +0.000 A 
ATOM      2  C   UNL     1       4.535   6.968  17.413  0.00  0.00    +0.000 A 
ATOM      3  C   UNL     1       3.347   6.327  17.771  0.00  0.00    +0.000 A 
ATOM      4  C   UNL     1       3.393   5.068  18.375  0.00  0.00    +0.000 A 
ATOM      5  C   UNL     1       4.625   4.426  18.587  0.00  0.00    +0.000 A 
ATOM      6  C   UNL     1       5.812   5.064  18.225  0.00  0.00    +0.000 A 
ATOM      7  C   UNL     1       4.601   3.023  19.136  0.00  0.00    +0.000 C 
ATOM      8  N   UNL     1       3.691   2.853  20.265  0.00  0.00    +0.000 NA
ATOM      9  C   UNL     1       2.401   3.609  20.160  0.00  0.00    +0.000 C 
ATOM     10  C   UNL     1       2.152   4.330  18.813  0.00  0.00    +0.000 C 
ATOM     11  H   UNL     1       4.164   3.146  21.121  0.00  0.00    +0.000 HD
ENDROOT
BRANCH   1  13
ATOM     12  C   UNL     1       8.281   6.913  18.706  0.00  0.00    +0.000 C 
ATOM     13  S   UNL     1       7.275   7.193  17.277  0.00  0.00    +0.000 S 
ATOM     14  O   UNL     1       6.963   8.611  17.218  0.00  0.00    +0.000 OA
ATOM     15  O   UNL     1       7.892   6.522  16.151  0.00  0.00    +0.000 OA
ENDBRANCH   1  13
BRANCH   9  16
ATOM     16  C   UNL     1       1.128   2.816  20.574  0.00  0.00    +0.000 C 
ATOM     17  F   UNL     1      -0.014   3.442  20.208  0.00  0.00    +0.000 F 
ATOM     18  F   UNL     1       1.119   1.599  19.975  0.00  0.00    +0.000 F 
ATOM     19  F   UNL     1       1.062   2.604  21.907  0.00  0.00    +0.000 F 
ENDBRANCH   9  16
TORSDOF 2
ENDMDL
MODEL 4
REMARK VINA RESULT:      -6.8      2.877      3.710
REMARK  Name = 
REMARK  3 active torsions:
REMARK  status: ('A' for Active; 'I' for Inactive)
REMARK    1  A    between atoms: C_1  and  S_2
REMARK    2  A    between atoms: S_2  and  C_5
REMARK    3  A    between atoms: C_13  and  C_14
REMARK                            x       y       z     vdW  Elec       q    Type
REMARK                         _______ _______ _______ _____ _____    ______ ____
ROOT
ATOM      1  C   UNL     1       5.168   5.867  17.391  0.00  0.00    +0.000 A 
ATOM      2  C   UNL     1       4.840   7.093  16.804  0.00  0.00    +0.000 A 
ATOM      3  C   UNL     1       3.738   7.811  17.275  0.00  0.00    +0.000 A 
ATOM      4  C   UNL     1       2.987   7.308  18.340  0.00  0.00    +0.000 A 
ATOM      5  C   UNL     1       3.308   6.066  18.912  0.00  0.00    +0.000 A 
ATOM      6  C   UNL     1       4.406   5.346  18.439  0.00  0.00    +0.000 A 
ATOM      7  C   UNL     1       2.392   5.525  19.980  0.00  0.00    +0.000 C 
ATOM      8  N   UNL     1       2.020   6.516  20.986  0.00  0.00    +0.000 NA
ATOM      9  C   UNL     1       1.777   7.898  20.459  0.00  0.00    +0.000 C 
ATOM     10  C   UNL     1       1.802   8.043  18.917  0.00  0.00    +0.000 C 
ATOM     11  H   UNL     1       2.757   6.567  21.690  0.00  0.00    +0.000 HD
ENDROOT
BRANCH   1  13
ATOM     12  C   UNL     1       6.004   3.734  15.788  0.00  0.00    +0.000 C 
ATOM     13  S   UNL     1       6.629   5.002  16.854  0.00  0.00    +0.000 S 
ATOM     14  O   UNL     1       7.206   4.362  18.023  0.00  0.00    +0.000 OA
ATOM     15  O   UNL     1       7.409   5.924  16.052  0.00  0.00    +0.000 OA
ENDBRANCH   1  13
BRANCH   9  16
ATOM     16  C   UNL     1       0.526   8.621  21.034  0.00  0.00    +0.000 C 
ATOM     17  F   UNL     1      -0.430   7.756  21.445  0.00  0.00    +0.000 F 
ATOM     18  F   UNL     1       0.870   9.369  22.112  0.00  0.00    +0.000 F 
ATOM     19  F   UNL     1      -0.046   9.455  20.137  0.00  0.00    +0.000 F 
ENDBRANCH   9  16
TORSDOF 2
ENDMDL
MODEL 5
REMARK VINA RESULT:      -6.7      5.166      6.409
REMARK  Name = 
REMARK  3 active torsions:
REMARK  status: ('A' for Active; 'I' for Inactive)
REMARK    1  A    between atoms: C_1  and  S_2
REMARK    2  A    between atoms: S_2  and  C_5
REMARK    3  A    between atoms: C_13  and  C_14
REMARK                            x       y       z     vdW  Elec       q    Type
REMARK                         _______ _______ _______ _____ _____    ______ ____
ROOT
ATOM      1  C   UNL     1       1.201   9.141  19.964  0.00  0.00    +0.000 A 
ATOM      2  C   UNL     1       1.580   9.384  18.639  0.00  0.00    +0.000 A 
ATOM      3  C   UNL     1       2.236   8.386  17.915  0.00  0.00    +0.000 A 
ATOM      4  C   UNL     1       2.490   7.149  18.514  0.00  0.00    +0.000 A 
ATOM      5  C   UNL     1       2.127   6.918  19.850  0.00  0.00    +0.000 A 
ATOM      6  C   UNL     1       1.475   7.916  20.576  0.00  0.00    +0.000 A 
ATOM      7  C   UNL     1       2.531   5.606  20.472  0.00  0.00    +0.000 C 
ATOM      8  N   UNL     1       2.264   4.449  19.621  0.00  0.00    +0.000 NA
ATOM      9  C   UNL     1       2.518   4.664  18.160  0.00  0.00    +0.000 C 
ATOM     10  C   UNL     1       3.170   6.018  17.782  0.00  0.00    +0.000 C 
ATOM     11  H   UNL     1       1.290   4.169  19.738  0.00  0.00    +0.000 HD
ENDROOT
BRANCH   1  13
ATOM     12  C   UNL     1      -0.309   9.524  22.286  0.00  0.00    +0.000 C 
ATOM     13  S   UNL     1       0.279  10.379  20.852  0.00  0.00    +0.000 S 
ATOM     14  O   UNL     1      -0.870  10.730  20.035  0.00  0.00    +0.000 OA
ATOM     15  O   UNL     1       1.220  11.394  21.284  0.00  0.00    +0.000 OA
ENDBRANCH   1  13
BRANCH   9  16
ATOM     16  C   UNL     1       3.259   3.505  17.434  0.00  0.00    +0.000 C 
ATOM     17  F   UNL     1       3.934   3.925  16.340  0.00  0.00    +0.000 F 
ATOM     18  F   UNL     1       4.170   2.939  18.265  0.00  0.00    +0.000 F 
ATOM     19  F   UNL     1       2.419   2.523  17.037  0.00  0.00    +0.000 F 
ENDBRANCH   9  16
TORSDOF 2
ENDMDL
MODEL 6
REMARK VINA RESULT:      -6.6      2.822      3.649
REMARK  Name = 
REMARK  3 active torsions:
REMARK  status: ('A' for Active; 'I' for Inactive)
REMARK    1  A    between atoms: C_1  and  S_2
REMARK    2  A    between atoms: S_2  and  C_5
REMARK    3  A    between atoms: C_13  and  C_14
REMARK                            x       y       z     vdW  Elec       q    Type
REMARK                         _______ _______ _______ _____ _____    ______ ____
ROOT
ATOM      1  C   UNL     1       4.934   5.676  16.959  0.00  0.00    +0.000 A 
ATOM      2  C   UNL     1       4.742   7.007  16.576  0.00  0.00    +0.000 A 
ATOM      3  C   UNL     1       3.760   7.772  17.208  0.00  0.00    +0.000 A 
ATOM      4  C   UNL     1       2.992   7.208  18.230  0.00  0.00    +0.000 A 
ATOM      5  C   UNL     1       3.174   5.864  18.597  0.00  0.00    +0.000 A 
ATOM      6  C   UNL     1       4.153   5.097  17.962  0.00  0.00    +0.000 A 
ATOM      7  C   UNL     1       2.238   5.283  19.625  0.00  0.00    +0.000 C 
ATOM      8  N   UNL     1       2.035   6.147  20.784  0.00  0.00    +0.000 NA
ATOM      9  C   UNL     1       1.950   7.612  20.477  0.00  0.00    +0.000 C 
ATOM     10  C   UNL     1       1.934   7.984  18.974  0.00  0.00    +0.000 C 
ATOM     11  H   UNL     1       2.799   6.003  21.445  0.00  0.00    +0.000 HD
ENDROOT
BRANCH   1  13
ATOM     12  C   UNL     1       7.445   4.578  17.518  0.00  0.00    +0.000 C 
ATOM     13  S   UNL     1       6.251   4.732  16.220  0.00  0.00    +0.000 S 
ATOM     14  O   UNL     1       6.831   5.551  15.170  0.00  0.00    +0.000 OA
ATOM     15  O   UNL     1       5.728   3.412  15.928  0.00  0.00    +0.000 OA
ENDBRANCH   1  13
BRANCH   9  16
ATOM     16  C   UNL     1       0.823   8.385  21.221  0.00  0.00    +0.000 C 
ATOM     17  F   UNL     1       1.208   8.812  22.445  0.00  0.00    +0.000 F 
ATOM     18  F   UNL     1       0.465   9.486  20.515  0.00  0.00    +0.000 F 
ATOM     19  F   UNL     1      -0.292   7.639  21.388  0.00  0.00    +0.000 F 
ENDBRANCH   9  16
TORSDOF 2
ENDMDL
MODEL 7
REMARK VINA RESULT:      -6.6      5.163      6.301
REMARK  Name = 
REMARK  3 active torsions:
REMARK  status: ('A' for Active; 'I' for Inactive)
REMARK    1  A    between atoms: C_1  and  S_2
REMARK    2  A    between atoms: S_2  and  C_5
REMARK    3  A    between atoms: C_13  and  C_14
REMARK                            x       y       z     vdW  Elec       q    Type
REMARK                         _______ _______ _______ _____ _____    ______ ____
ROOT
ATOM      1  C   UNL     1       1.192   8.763  20.262  0.00  0.00    +0.000 A 
ATOM      2  C   UNL     1       1.581   9.057  18.951  0.00  0.00    +0.000 A 
ATOM      3  C   UNL     1       2.232   8.084  18.190  0.00  0.00    +0.000 A 
ATOM      4  C   UNL     1       2.471   6.821  18.738  0.00  0.00    +0.000 A 
ATOM      5  C   UNL     1       2.098   6.538  20.062  0.00  0.00    +0.000 A 
ATOM      6  C   UNL     1       1.451   7.512  20.825  0.00  0.00    +0.000 A 
ATOM      7  C   UNL     1       2.487   5.198  20.632  0.00  0.00    +0.000 C 
ATOM      8  N   UNL     1       2.214   4.080  19.732  0.00  0.00    +0.000 NA
ATOM      9  C   UNL     1       2.478   4.352  18.282  0.00  0.00    +0.000 C 
ATOM     10  C   UNL     1       3.144   5.714  17.964  0.00  0.00    +0.000 C 
ATOM     11  H   UNL     1       1.237   3.804  19.833  0.00  0.00    +0.000 HD
ENDROOT
BRANCH   1  13
ATOM     12  C   UNL     1      -0.819  10.689  20.004  0.00  0.00    +0.000 C 
ATOM     13  S   UNL     1       0.276   9.972  21.196  0.00  0.00    +0.000 S 
ATOM     14  O   UNL     1       1.216  10.996  21.615  0.00  0.00    +0.000 OA
ATOM     15  O   UNL     1      -0.523   9.254  22.169  0.00  0.00    +0.000 OA
ENDBRANCH   1  13
BRANCH   9  16
ATOM     16  C   UNL     1       3.213   3.217  17.514  0.00  0.00    +0.000 C 
ATOM     17  F   UNL     1       2.365   2.270  17.052  0.00  0.00    +0.000 F 
ATOM     18  F   UNL     1       3.862   3.724  16.436  0.00  0.00    +0.000 F 
ATOM     19  F   UNL     1       4.137   2.591  18.277  0.00  0.00    +0.000 F 
ENDBRANCH   9  16
TORSDOF 2
ENDMDL
MODEL 8
REMARK VINA RESULT:      -6.6      5.070      6.149
REMARK  Name = 
REMARK  3 active torsions:
REMARK  status: ('A' for Active; 'I' for Inactive)
REMARK    1  A    between atoms: C_1  and  S_2
REMARK    2  A    between atoms: S_2  and  C_5
REMARK    3  A    between atoms: C_13  and  C_14
REMARK                            x       y       z     vdW  Elec       q    Type
REMARK                         _______ _______ _______ _____ _____    ______ ____
ROOT
ATOM      1  C   UNL     1       1.421   9.153  19.639  0.00  0.00    +0.000 A 
ATOM      2  C   UNL     1       1.894   9.282  18.329  0.00  0.00    +0.000 A 
ATOM      3  C   UNL     1       2.518   8.197  17.710  0.00  0.00    +0.000 A 
ATOM      4  C   UNL     1       2.647   6.987  18.398  0.00  0.00    +0.000 A 
ATOM      5  C   UNL     1       2.189   6.869  19.720  0.00  0.00    +0.000 A 
ATOM      6  C   UNL     1       1.569   7.954  20.341  0.00  0.00    +0.000 A 
ATOM      7  C   UNL     1       2.460   5.576  20.445  0.00  0.00    +0.000 C 
ATOM      8  N   UNL     1       2.161   4.387  19.651  0.00  0.00    +0.000 NA
ATOM      9  C   UNL     1       2.516   4.488  18.198  0.00  0.00    +0.000 C 
ATOM     10  C   UNL     1       3.284   5.766  17.781  0.00  0.00    +0.000 C 
ATOM     11  H   UNL     1       1.164   4.182  19.724  0.00  0.00    +0.000 HD
ENDROOT
BRANCH   1  13
ATOM     12  C   UNL     1       1.128  11.931  19.520  0.00  0.00    +0.000 C 
ATOM     13  S   UNL     1       0.540  10.506  20.390  0.00  0.00    +0.000 S 
ATOM     14  O   UNL     1       0.990  10.602  21.768  0.00  0.00    +0.000 OA
ATOM     15  O   UNL     1      -0.866  10.334  20.079  0.00  0.00    +0.000 OA
ENDBRANCH   1  13
BRANCH   9  16
ATOM     16  C   UNL     1       3.213   3.236  17.594  0.00  0.00    +0.000 C 
ATOM     17  F   UNL     1       4.008   3.542  16.543  0.00  0.00    +0.000 F 
ATOM     18  F   UNL     1       4.002   2.643  18.524  0.00  0.00    +0.000 F 
ATOM     19  F   UNL     1       2.328   2.305  17.171  0.00  0.00    +0.000 F 
ENDBRANCH   9  16
TORSDOF 2
ENDMDL
MODEL 9
REMARK VINA RESULT:      -6.6      1.647      2.076
REMARK  Name = 
REMARK  3 active torsions:
REMARK  status: ('A' for Active; 'I' for Inactive)
REMARK    1  A    between atoms: C_1  and  S_2
REMARK    2  A    between atoms: S_2  and  C_5
REMARK    3  A    between atoms: C_13  and  C_14
REMARK                            x       y       z     vdW  Elec       q    Type
REMARK                         _______ _______ _______ _____ _____    ______ ____
ROOT
ATOM      1  C   UNL     1       5.973   6.258  17.843  0.00  0.00    +0.000 A 
ATOM      2  C   UNL     1       4.798   6.942  17.515  0.00  0.00    +0.000 A 
ATOM      3  C   UNL     1       3.560   6.358  17.792  0.00  0.00    +0.000 A 
ATOM      4  C   UNL     1       3.507   5.105  18.411  0.00  0.00    +0.000 A 
ATOM      5  C   UNL     1       4.690   4.414  18.718  0.00  0.00    +0.000 A 
ATOM      6  C   UNL     1       5.928   4.995  18.438  0.00  0.00    +0.000 A 
ATOM      7  C   UNL     1       4.565   3.020  19.279  0.00  0.00    +0.000 C 
ATOM      8  N   UNL     1       3.568   2.905  20.340  0.00  0.00    +0.000 NA
ATOM      9  C   UNL     1       2.324   3.714  20.133  0.00  0.00    +0.000 C 
ATOM     10  C   UNL     1       2.206   4.428  18.763  0.00  0.00    +0.000 C 
ATOM     11  H   UNL     1       3.991   3.189  21.224  0.00  0.00    +0.000 HD
ENDROOT
BRANCH   1  13
ATOM     12  C   UNL     1       7.163   8.775  17.576  0.00  0.00    +0.000 C 
ATOM     13  S   UNL     1       7.548   7.047  17.579  0.00  0.00    +0.000 S 
ATOM     14  O   UNL     1       7.994   6.683  16.245  0.00  0.00    +0.000 OA
ATOM     15  O   UNL     1       8.373   6.769  18.738  0.00  0.00    +0.000 OA
ENDBRANCH   1  13
BRANCH   9  16
ATOM     16  C   UNL     1       0.991   2.983  20.459  0.00  0.00    +0.000 C 
ATOM     17  F   UNL     1       0.909   2.608  21.757  0.00  0.00    +0.000 F 
ATOM     18  F   UNL     1      -0.065   3.800  20.218  0.00  0.00    +0.000 F 
ATOM     19  F   UNL     1       0.813   1.872  19.708  0.00  0.00    +0.000 F 
ENDBRANCH   9  16
TORSDOF 2
ENDMDL
