MODEL 1
REMARK VINA RESULT:      -8.2      0.000      0.000
REMARK  Name = 
REMARK  5 active torsions:
REMARK  status: ('A' for Active; 'I' for Inactive)
REMARK    1  A    between atoms: C_1  and  C_2
REMARK    2  A    between atoms: C_5  and  C_6
REMARK    3  A    between atoms: N_8  and  C_9
REMARK    4  A    between atoms: C_17  and  S_18
REMARK    5  A    between atoms: S_18  and  N_21
REMARK                            x       y       z     vdW  Elec       q    Type
REMARK                         _______ _______ _______ _____ _____    ______ ____
ROOT
ATOM      1  C   UNL     1      -1.228  11.319  22.807  0.00  0.00    +0.000 C 
ATOM      2  C   UNL     1      -0.452  10.447  21.861  0.00  0.00    +0.000 A 
ATOM      3  C   UNL     1       0.303   9.422  22.449  0.00  0.00    +0.000 A 
ATOM      4  C   UNL     1       1.103   8.582  21.683  0.00  0.00    +0.000 A 
ATOM      5  C   UNL     1       1.188   8.729  20.295  0.00  0.00    +0.000 A 
ATOM      6  C   UNL     1       0.451   9.749  19.688  0.00  0.00    +0.000 A 
ATOM      7  C   UNL     1      -0.385  10.598  20.457  0.00  0.00    +0.000 A 
ENDROOT
BRANCH   5   8
ATOM      8  C   UNL     1       2.067   7.750  19.580  0.00  0.00    +0.000 C 
ATOM      9  O   UNL     1       2.526   8.138  18.506  0.00  0.00    +0.000 OA
ATOM     10  N   UNL     1       2.285   6.506  20.147  0.00  0.00    +0.000 N 
ATOM     11  H   UNL     1       1.714   6.217  20.930  0.00  0.00    +0.000 HD
BRANCH  10  12
ATOM     12  C   UNL     1       3.091   5.502  19.555  0.00  0.00    +0.000 A 
ATOM     13  C   UNL     1       4.480   5.623  19.417  0.00  0.00    +0.000 A 
ATOM     14  C   UNL     1       5.230   4.665  18.738  0.00  0.00    +0.000 A 
ATOM     15  C   UNL     1       4.597   3.557  18.197  0.00  0.00    +0.000 A 
ATOM     16  C   UNL     1       3.222   3.393  18.376  0.00  0.00    +0.000 A 
ATOM     17 CL   UNL     1       2.443   2.006  17.715  0.00  0.00    +0.000 Cl
ATOM     18  C   UNL     1       2.469   4.352  19.062  0.00  0.00    +0.000 A 
ENDBRANCH  10  12
ENDBRANCH   5   8
BRANCH   7  19
ATOM     19  S   UNL     1      -1.160  11.954  19.549  0.00  0.00    +0.000 S 
ATOM     20  O   UNL     1      -1.780  12.847  20.501  0.00  0.00    +0.000 OA
ATOM     21  O   UNL     1      -0.156  12.445  18.628  0.00  0.00    +0.000 OA
BRANCH  19  22
ATOM     22  N   UNL     1      -2.397  11.232  18.597  0.00  0.00    +0.000 NA
ATOM     23  C   UNL     1      -3.759  11.792  18.749  0.00  0.00    +0.000 C 
ATOM     24  C   UNL     1      -4.795  11.245  17.777  0.00  0.00    +0.000 C 
ATOM     25  C   UNL     1      -4.252  11.096  16.370  0.00  0.00    +0.000 C 
ATOM     26  C   UNL     1      -3.065  10.156  16.406  0.00  0.00    +0.000 C 
ATOM     27  C   UNL     1      -1.955  10.667  17.308  0.00  0.00    +0.000 C 
ENDBRANCH  19  22
ENDBRANCH   7  19
TORSDOF 4
ENDMDL
MODEL 2
REMARK VINA RESULT:      -8.2      4.225      8.664
REMARK  Name = 
REMARK  5 active torsions:
REMARK  status: ('A' for Active; 'I' for Inactive)
REMARK    1  A    between atoms: C_1  and  C_2
REMARK    2  A    between atoms: C_5  and  C_6
REMARK    3  A    between atoms: N_8  and  C_9
REMARK    4  A    between atoms: C_17  and  S_18
REMARK    5  A    between atoms: S_18  and  N_21
REMARK                            x       y       z     vdW  Elec       q    Type
REMARK                         _______ _______ _______ _____ _____    ______ ____
ROOT
ATOM      1  C   UNL     1       2.528   3.043  21.284  0.00  0.00    +0.000 C 
ATOM      2  C   UNL     1       2.500   4.386  20.611  0.00  0.00    +0.000 A 
ATOM      3  C   UNL     1       1.570   5.307  21.116  0.00  0.00    +0.000 A 
ATOM      4  C   UNL     1       1.413   6.564  20.545  0.00  0.00    +0.000 A 
ATOM      5  C   UNL     1       2.175   6.959  19.441  0.00  0.00    +0.000 A 
ATOM      6  C   UNL     1       3.102   6.055  18.915  0.00  0.00    +0.000 A 
ATOM      7  C   UNL     1       3.286   4.778  19.503  0.00  0.00    +0.000 A 
ENDROOT
BRANCH   5   8
ATOM      8  C   UNL     1       1.928   8.345  18.929  0.00  0.00    +0.000 C 
ATOM      9  O   UNL     1       2.519   8.638  17.891  0.00  0.00    +0.000 OA
ATOM     10  N   UNL     1       1.091   9.184  19.645  0.00  0.00    +0.000 N 
ATOM     11  H   UNL     1       0.808   8.916  20.578  0.00  0.00    +0.000 HD
BRANCH  10  12
ATOM     12  C   UNL     1       0.793  10.514  19.257  0.00  0.00    +0.000 A 
ATOM     13  C   UNL     1      -0.451  10.898  18.742  0.00  0.00    +0.000 A 
ATOM     14  C   UNL     1      -0.678  12.191  18.274  0.00  0.00    +0.000 A 
ATOM     15  C   UNL     1       0.341  13.128  18.331  0.00  0.00    +0.000 A 
ATOM     16  C   UNL     1       1.569  12.777  18.894  0.00  0.00    +0.000 A 
ATOM     17 CL   UNL     1       2.827  13.951  18.976  0.00  0.00    +0.000 Cl
ATOM     18  C   UNL     1       1.797  11.481  19.369  0.00  0.00    +0.000 A 
ENDBRANCH  10  12
ENDBRANCH   5   8
BRANCH   7  19
ATOM     19  S   UNL     1       4.415   3.674  18.626  0.00  0.00    +0.000 S 
ATOM     20  O   UNL     1       5.425   3.220  19.555  0.00  0.00    +0.000 OA
ATOM     21  O   UNL     1       3.579   2.720  17.926  0.00  0.00    +0.000 OA
BRANCH  19  22
ATOM     22  N   UNL     1       5.178   4.642  17.426  0.00  0.00    +0.000 NA
ATOM     23  C   UNL     1       6.502   5.204  17.774  0.00  0.00    +0.000 C 
ATOM     24  C   UNL     1       7.221   5.916  16.637  0.00  0.00    +0.000 C 
ATOM     25  C   UNL     1       7.096   5.180  15.318  0.00  0.00    +0.000 C 
ATOM     26  C   UNL     1       5.628   5.054  14.970  0.00  0.00    +0.000 C 
ATOM     27  C   UNL     1       4.849   4.294  16.031  0.00  0.00    +0.000 C 
ENDBRANCH  19  22
ENDBRANCH   7  19
TORSDOF 4
ENDMDL
MODEL 3
REMARK VINA RESULT:      -8.2      3.975      8.480
REMARK  Name = 
REMARK  5 active torsions:
REMARK  status: ('A' for Active; 'I' for Inactive)
REMARK    1  A    between atoms: C_1  and  C_2
REMARK    2  A    between atoms: C_5  and  C_6
REMARK    3  A    between atoms: N_8  and  C_9
REMARK    4  A    between atoms: C_17  and  S_18
REMARK    5  A    between atoms: S_18  and  N_21
REMARK                            x       y       z     vdW  Elec       q    Type
REMARK                         _______ _______ _______ _____ _____    ______ ____
ROOT
ATOM      1  C   UNL     1       6.315   4.886  16.060  0.00  0.00    +0.000 C 
ATOM      2  C   UNL     1       5.185   5.582  16.766  0.00  0.00    +0.000 A 
ATOM      3  C   UNL     1       4.994   6.932  16.438  0.00  0.00    +0.000 A 
ATOM      4  C   UNL     1       4.015   7.697  17.060  0.00  0.00    +0.000 A 
ATOM      5  C   UNL     1       3.183   7.149  18.043  0.00  0.00    +0.000 A 
ATOM      6  C   UNL     1       3.361   5.807  18.392  0.00  0.00    +0.000 A 
ATOM      7  C   UNL     1       4.342   5.013  17.748  0.00  0.00    +0.000 A 
ENDROOT
BRANCH   5   8
ATOM      8  C   UNL     1       2.154   8.068  18.624  0.00  0.00    +0.000 C 
ATOM      9  O   UNL     1       1.882   7.875  19.809  0.00  0.00    +0.000 OA
ATOM     10  N   UNL     1       1.582   9.033  17.812  0.00  0.00    +0.000 N 
ATOM     11  H   UNL     1       1.732   8.986  16.814  0.00  0.00    +0.000 HD
BRANCH  10  12
ATOM     12  C   UNL     1       0.595   9.949  18.255  0.00  0.00    +0.000 A 
ATOM     13  C   UNL     1       0.876  11.010  19.125  0.00  0.00    +0.000 A 
ATOM     14  C   UNL     1      -0.135  11.830  19.623  0.00  0.00    +0.000 A 
ATOM     15  C   UNL     1      -1.448  11.606  19.242  0.00  0.00    +0.000 A 
ATOM     16  C   UNL     1      -1.737  10.588  18.331  0.00  0.00    +0.000 A 
ATOM     17 CL   UNL     1      -3.370  10.324  17.850  0.00  0.00    +0.000 Cl
ATOM     18  C   UNL     1      -0.723   9.768  17.827  0.00  0.00    +0.000 A 
ENDBRANCH  10  12
ENDBRANCH   5   8
BRANCH   7  19
ATOM     19  S   UNL     1       4.545   3.343  18.407  0.00  0.00    +0.000 S 
ATOM     20  O   UNL     1       4.706   2.430  17.299  0.00  0.00    +0.000 OA
ATOM     21  O   UNL     1       5.563   3.439  19.434  0.00  0.00    +0.000 OA
BRANCH  19  22
ATOM     22  N   UNL     1       3.067   2.973  19.205  0.00  0.00    +0.000 NA
ATOM     23  C   UNL     1       2.935   3.445  20.601  0.00  0.00    +0.000 C 
ATOM     24  C   UNL     1       1.560   3.247  21.224  0.00  0.00    +0.000 C 
ATOM     25  C   UNL     1       0.434   3.574  20.263  0.00  0.00    +0.000 C 
ATOM     26  C   UNL     1       0.558   2.680  19.047  0.00  0.00    +0.000 C 
ATOM     27  C   UNL     1       1.884   2.867  18.330  0.00  0.00    +0.000 C 
ENDBRANCH  19  22
ENDBRANCH   7  19
TORSDOF 4
ENDMDL
MODEL 4
REMARK VINA RESULT:      -8.1      4.204      8.738
REMARK  Name = 
REMARK  5 active torsions:
REMARK  status: ('A' for Active; 'I' for Inactive)
REMARK    1  A    between atoms: C_1  and  C_2
REMARK    2  A    between atoms: C_5  and  C_6
REMARK    3  A    between atoms: N_8  and  C_9
REMARK    4  A    between atoms: C_17  and  S_18
REMARK    5  A    between atoms: S_18  and  N_21
REMARK                            x       y       z     vdW  Elec       q    Type
REMARK                         _______ _______ _______ _____ _____    ______ ____
ROOT
ATOM      1  C   UNL     1       2.672   3.522  21.046  0.00  0.00    +0.000 C 
ATOM      2  C   UNL     1       2.558   4.848  20.347  0.00  0.00    +0.000 A 
ATOM      3  C   UNL     1       1.724   5.795  20.960  0.00  0.00    +0.000 A 
ATOM      4  C   UNL     1       1.497   7.040  20.384  0.00  0.00    +0.000 A 
ATOM      5  C   UNL     1       2.089   7.394  19.167  0.00  0.00    +0.000 A 
ATOM      6  C   UNL     1       2.917   6.463  18.534  0.00  0.00    +0.000 A 
ATOM      7  C   UNL     1       3.173   5.199  19.124  0.00  0.00    +0.000 A 
ENDROOT
BRANCH   5   8
ATOM      8  C   UNL     1       1.783   8.770  18.660  0.00  0.00    +0.000 C 
ATOM      9  O   UNL     1       2.208   9.024  17.533  0.00  0.00    +0.000 OA
ATOM     10  N   UNL     1       1.080   9.642  19.472  0.00  0.00    +0.000 N 
ATOM     11  H   UNL     1       0.944   9.405  20.446  0.00  0.00    +0.000 HD
BRANCH  10  12
ATOM     12  C   UNL     1       0.743  10.967  19.097  0.00  0.00    +0.000 A 
ATOM     13  C   UNL     1      -0.568  11.367  18.808  0.00  0.00    +0.000 A 
ATOM     14  C   UNL     1      -0.852  12.649  18.342  0.00  0.00    +0.000 A 
ATOM     15  C   UNL     1       0.179  13.560  18.173  0.00  0.00    +0.000 A 
ATOM     16  C   UNL     1       1.483  13.195  18.511  0.00  0.00    +0.000 A 
ATOM     17 CL   UNL     1       2.758  14.336  18.313  0.00  0.00    +0.000 Cl
ATOM     18  C   UNL     1       1.769  11.910  18.984  0.00  0.00    +0.000 A 
ENDBRANCH  10  12
ENDBRANCH   5   8
BRANCH   7  19
ATOM     19  S   UNL     1       4.147   4.056  18.119  0.00  0.00    +0.000 S 
ATOM     20  O   UNL     1       4.301   2.820  18.852  0.00  0.00    +0.000 OA
ATOM     21  O   UNL     1       3.537   4.061  16.805  0.00  0.00    +0.000 OA
BRANCH  19  22
ATOM     22  N   UNL     1       5.696   4.784  17.951  0.00  0.00    +0.000 NA
ATOM     23  C   UNL     1       5.947   5.519  16.691  0.00  0.00    +0.000 C 
ATOM     24  C   UNL     1       7.260   6.287  16.640  0.00  0.00    +0.000 C 
ATOM     25  C   UNL     1       7.566   7.002  17.941  0.00  0.00    +0.000 C 
ATOM     26  C   UNL     1       7.637   5.977  19.053  0.00  0.00    +0.000 C 
ATOM     27  C   UNL     1       6.336   5.209  19.210  0.00  0.00    +0.000 C 
ENDBRANCH  19  22
ENDBRANCH   7  19
TORSDOF 4
ENDMDL
MODEL 5
REMARK VINA RESULT:      -8.0      1.770      2.207
REMARK  Name = 
REMARK  5 active torsions:
REMARK  status: ('A' for Active; 'I' for Inactive)
REMARK    1  A    between atoms: C_1  and  C_2
REMARK    2  A    between atoms: C_5  and  C_6
REMARK    3  A    between atoms: N_8  and  C_9
REMARK    4  A    between atoms: C_17  and  S_18
REMARK    5  A    between atoms: S_18  and  N_21
REMARK                            x       y       z     vdW  Elec       q    Type
REMARK                         _______ _______ _______ _____ _____    ______ ____
ROOT
ATOM      1  C   UNL     1      -0.920  11.018  22.642  0.00  0.00    +0.000 C 
ATOM      2  C   UNL     1      -0.219  10.354  21.490  0.00  0.00    +0.000 A 
ATOM      3  C   UNL     1       0.536   9.215  21.804  0.00  0.00    +0.000 A 
ATOM      4  C   UNL     1       1.271   8.543  20.834  0.00  0.00    +0.000 A 
ATOM      5  C   UNL     1       1.288   8.981  19.506  0.00  0.00    +0.000 A 
ATOM      6  C   UNL     1       0.550  10.119  19.170  0.00  0.00    +0.000 A 
ATOM      7  C   UNL     1      -0.221  10.799  20.148  0.00  0.00    +0.000 A 
ENDROOT
BRANCH   5   8
ATOM      8  C   UNL     1       2.101   8.161  18.551  0.00  0.00    +0.000 C 
ATOM      9  O   UNL     1       2.246   8.646  17.429  0.00  0.00    +0.000 OA
ATOM     10  N   UNL     1       2.605   6.944  18.974  0.00  0.00    +0.000 N 
ATOM     11  H   UNL     1       2.272   6.550  19.844  0.00  0.00    +0.000 HD
BRANCH  10  12
ATOM     12  C   UNL     1       3.379   6.085  18.153  0.00  0.00    +0.000 A 
ATOM     13  C   UNL     1       2.919   4.840  17.706  0.00  0.00    +0.000 A 
ATOM     14  C   UNL     1       3.743   3.976  16.988  0.00  0.00    +0.000 A 
ATOM     15  C   UNL     1       5.042   4.356  16.691  0.00  0.00    +0.000 A 
ATOM     16  C   UNL     1       5.496   5.618  17.080  0.00  0.00    +0.000 A 
ATOM     17 CL   UNL     1       7.107   6.091  16.696  0.00  0.00    +0.000 Cl
ATOM     18  C   UNL     1       4.669   6.488  17.797  0.00  0.00    +0.000 A 
ENDBRANCH  10  12
ENDBRANCH   5   8
BRANCH   7  19
ATOM     19  S   UNL     1      -1.004  12.329  19.593  0.00  0.00    +0.000 S 
ATOM     20  O   UNL     1      -0.710  13.368  20.553  0.00  0.00    +0.000 OA
ATOM     21  O   UNL     1      -0.631  12.488  18.202  0.00  0.00    +0.000 OA
BRANCH  19  22
ATOM     22  N   UNL     1      -2.697  12.026  19.621  0.00  0.00    +0.000 NA
ATOM     23  C   UNL     1      -3.500  12.849  20.552  0.00  0.00    +0.000 C 
ATOM     24  C   UNL     1      -5.007  12.673  20.437  0.00  0.00    +0.000 C 
ATOM     25  C   UNL     1      -5.474  12.585  18.998  0.00  0.00    +0.000 C 
ATOM     26  C   UNL     1      -4.788  11.409  18.336  0.00  0.00    +0.000 C 
ATOM     27  C   UNL     1      -3.274  11.543  18.353  0.00  0.00    +0.000 C 
ENDBRANCH  19  22
ENDBRANCH   7  19
TORSDOF 4
ENDMDL
MODEL 6
REMARK VINA RESULT:      -8.0      1.157      1.157
REMARK  Name = 
REMARK  5 active torsions:
REMARK  status: ('A' for Active; 'I' for Inactive)
REMARK    1  A    between atoms: C_1  and  C_2
REMARK    2  A    between atoms: C_5  and  C_6
REMARK    3  A    between atoms: N_8  and  C_9
REMARK    4  A    between atoms: C_17  and  S_18
REMARK    5  A    between atoms: S_18  and  N_21
REMARK                            x       y       z     vdW  Elec       q    Type
REMARK                         _______ _______ _______ _____ _____    ______ ____
ROOT
ATOM      1  C   UNL     1      -1.359  11.824  22.743  0.00  0.00    +0.000 C 
ATOM      2  C   UNL     1      -0.625  10.781  21.948  0.00  0.00    +0.000 A 
ATOM      3  C   UNL     1       0.048   9.801  22.693  0.00  0.00    +0.000 A 
ATOM      4  C   UNL     1       0.804   8.813  22.074  0.00  0.00    +0.000 A 
ATOM      5  C   UNL     1       0.927   8.760  20.682  0.00  0.00    +0.000 A 
ATOM      6  C   UNL     1       0.273   9.732  19.919  0.00  0.00    +0.000 A 
ATOM      7  C   UNL     1      -0.519  10.731  20.540  0.00  0.00    +0.000 A 
ENDROOT
BRANCH   5   8
ATOM      8  C   UNL     1       1.752   7.637  20.133  0.00  0.00    +0.000 C 
ATOM      9  O   UNL     1       1.997   6.726  20.923  0.00  0.00    +0.000 OA
ATOM     10  N   UNL     1       2.184   7.703  18.820  0.00  0.00    +0.000 N 
ATOM     11  H   UNL     1       2.092   8.574  18.316  0.00  0.00    +0.000 HD
BRANCH  10  12
ATOM     12  C   UNL     1       2.974   6.702  18.201  0.00  0.00    +0.000 A 
ATOM     13  C   UNL     1       4.214   6.968  17.607  0.00  0.00    +0.000 A 
ATOM     14  C   UNL     1       4.917   5.983  16.917  0.00  0.00    +0.000 A 
ATOM     15  C   UNL     1       4.391   4.704  16.825  0.00  0.00    +0.000 A 
ATOM     16  C   UNL     1       3.184   4.408  17.460  0.00  0.00    +0.000 A 
ATOM     17 CL   UNL     1       2.543   2.812  17.354  0.00  0.00    +0.000 Cl
ATOM     18  C   UNL     1       2.479   5.395  18.157  0.00  0.00    +0.000 A 
ENDBRANCH  10  12
ENDBRANCH   5   8
BRANCH   7  19
ATOM     19  S   UNL     1      -1.183  11.994  19.433  0.00  0.00    +0.000 S 
ATOM     20  O   UNL     1      -1.824  13.013  20.232  0.00  0.00    +0.000 OA
ATOM     21  O   UNL     1      -0.106  12.340  18.528  0.00  0.00    +0.000 OA
BRANCH  19  22
ATOM     22  N   UNL     1      -2.388  11.206  18.492  0.00  0.00    +0.000 NA
ATOM     23  C   UNL     1      -3.760  11.754  18.581  0.00  0.00    +0.000 C 
ATOM     24  C   UNL     1      -4.765  11.143  17.616  0.00  0.00    +0.000 C 
ATOM     25  C   UNL     1      -4.186  10.925  16.233  0.00  0.00    +0.000 C 
ATOM     26  C   UNL     1      -2.989  10.004  16.347  0.00  0.00    +0.000 C 
ATOM     27  C   UNL     1      -1.907  10.577  17.247  0.00  0.00    +0.000 C 
ENDBRANCH  19  22
ENDBRANCH   7  19
TORSDOF 4
ENDMDL
MODEL 7
REMARK VINA RESULT:      -8.0      4.007      8.508
REMARK  Name = 
REMARK  5 active torsions:
REMARK  status: ('A' for Active; 'I' for Inactive)
REMARK    1  A    between atoms: C_1  and  C_2
REMARK    2  A    between atoms: C_5  and  C_6
REMARK    3  A    between atoms: N_8  and  C_9
REMARK    4  A    between atoms: C_17  and  S_18
REMARK    5  A    between atoms: S_18  and  N_21
REMARK                            x       y       z     vdW  Elec       q    Type
REMARK                         _______ _______ _______ _____ _____    ______ ____
ROOT
ATOM      1  C   UNL     1       5.672   5.472  15.775  0.00  0.00    +0.000 C 
ATOM      2  C   UNL     1       4.669   6.033  16.744  0.00  0.00    +0.000 A 
ATOM      3  C   UNL     1       4.318   7.378  16.556  0.00  0.00    +0.000 A 
ATOM      4  C   UNL     1       3.440   8.025  17.417  0.00  0.00    +0.000 A 
ATOM      5  C   UNL     1       2.874   7.359  18.509  0.00  0.00    +0.000 A 
ATOM      6  C   UNL     1       3.215   6.020  18.721  0.00  0.00    +0.000 A 
ATOM      7  C   UNL     1       4.093   5.345  17.836  0.00  0.00    +0.000 A 
ENDROOT
BRANCH   5   8
ATOM      8  C   UNL     1       1.927   8.157  19.351  0.00  0.00    +0.000 C 
ATOM      9  O   UNL     1       1.600   7.636  20.417  0.00  0.00    +0.000 OA
ATOM     10  N   UNL     1       1.483   9.381  18.883  0.00  0.00    +0.000 N 
ATOM     11  H   UNL     1       1.659   9.631  17.919  0.00  0.00    +0.000 HD
BRANCH  10  12
ATOM     12  C   UNL     1       0.583  10.215  19.592  0.00  0.00    +0.000 A 
ATOM     13  C   UNL     1       0.802  10.622  20.914  0.00  0.00    +0.000 A 
ATOM     14  C   UNL     1      -0.152  11.355  21.618  0.00  0.00    +0.000 A 
ATOM     15  C   UNL     1      -1.339  11.708  20.996  0.00  0.00    +0.000 A 
ATOM     16  C   UNL     1      -1.548  11.360  19.660  0.00  0.00    +0.000 A 
ATOM     17 CL   UNL     1      -3.019  11.814  18.889  0.00  0.00    +0.000 Cl
ATOM     18  C   UNL     1      -0.589  10.628  18.952  0.00  0.00    +0.000 A 
ENDBRANCH  10  12
ENDBRANCH   5   8
BRANCH   7  19
ATOM     19  S   UNL     1       4.546   3.665  18.323  0.00  0.00    +0.000 S 
ATOM     20  O   UNL     1       4.799   2.894  17.127  0.00  0.00    +0.000 OA
ATOM     21  O   UNL     1       5.572   3.806  19.337  0.00  0.00    +0.000 OA
BRANCH  19  22
ATOM     22  N   UNL     1       3.160   3.015  19.106  0.00  0.00    +0.000 NA
ATOM     23  C   UNL     1       3.150   3.069  20.585  0.00  0.00    +0.000 C 
ATOM     24  C   UNL     1       1.846   2.639  21.240  0.00  0.00    +0.000 C 
ATOM     25  C   UNL     1       0.627   3.167  20.511  0.00  0.00    +0.000 C 
ATOM     26  C   UNL     1       0.655   2.657  19.086  0.00  0.00    +0.000 C 
ATOM     27  C   UNL     1       1.902   3.102  18.341  0.00  0.00    +0.000 C 
ENDBRANCH  19  22
ENDBRANCH   7  19
TORSDOF 4
ENDMDL
MODEL 8
REMARK VINA RESULT:      -8.0      1.241      1.557
REMARK  Name = 
REMARK  5 active torsions:
REMARK  status: ('A' for Active; 'I' for Inactive)
REMARK    1  A    between atoms: C_1  and  C_2
REMARK    2  A    between atoms: C_5  and  C_6
REMARK    3  A    between atoms: N_8  and  C_9
REMARK    4  A    between atoms: C_17  and  S_18
REMARK    5  A    between atoms: S_18  and  N_21
REMARK                            x       y       z     vdW  Elec       q    Type
REMARK                         _______ _______ _______ _____ _____    ______ ____
ROOT
ATOM      1  C   UNL     1      -0.989  11.077  22.899  0.00  0.00    +0.000 C 
ATOM      2  C   UNL     1      -0.282  10.331  21.802  0.00  0.00    +0.000 A 
ATOM      3  C   UNL     1       0.485   9.228  22.206  0.00  0.00    +0.000 A 
ATOM      4  C   UNL     1       1.226   8.488  21.291  0.00  0.00    +0.000 A 
ATOM      5  C   UNL     1       1.238   8.819  19.932  0.00  0.00    +0.000 A 
ATOM      6  C   UNL     1       0.488   9.919  19.508  0.00  0.00    +0.000 A 
ATOM      7  C   UNL     1      -0.289  10.667  20.430  0.00  0.00    +0.000 A 
ENDROOT
BRANCH   5   8
ATOM      8  C   UNL     1       2.058   7.934  19.045  0.00  0.00    +0.000 C 
ATOM      9  O   UNL     1       2.437   8.446  17.992  0.00  0.00    +0.000 OA
ATOM     10  N   UNL     1       2.315   6.635  19.447  0.00  0.00    +0.000 N 
ATOM     11  H   UNL     1       1.804   6.254  20.232  0.00  0.00    +0.000 HD
BRANCH  10  12
ATOM     12  C   UNL     1       3.072   5.711  18.684  0.00  0.00    +0.000 A 
ATOM     13  C   UNL     1       2.486   4.717  17.891  0.00  0.00    +0.000 A 
ATOM     14  C   UNL     1       3.258   3.759  17.235  0.00  0.00    +0.000 A 
ATOM     15  C   UNL     1       4.638   3.794  17.353  0.00  0.00    +0.000 A 
ATOM     16  C   UNL     1       5.240   4.814  18.094  0.00  0.00    +0.000 A 
ATOM     17 CL   UNL     1       6.957   4.861  18.225  0.00  0.00    +0.000 Cl
ATOM     18  C   UNL     1       4.467   5.778  18.748  0.00  0.00    +0.000 A 
ENDBRANCH  10  12
ENDBRANCH   5   8
BRANCH   7  19
ATOM     19  S   UNL     1      -1.087  12.141  19.755  0.00  0.00    +0.000 S 
ATOM     20  O   UNL     1      -1.519  12.971  20.856  0.00  0.00    +0.000 OA
ATOM     21  O   UNL     1      -0.181  12.663  18.752  0.00  0.00    +0.000 OA
BRANCH  19  22
ATOM     22  N   UNL     1      -2.481  11.577  18.920  0.00  0.00    +0.000 NA
ATOM     23  C   UNL     1      -3.787  12.080  19.400  0.00  0.00    +0.000 C 
ATOM     24  C   UNL     1      -4.983  11.695  18.543  0.00  0.00    +0.000 C 
ATOM     25  C   UNL     1      -4.694  11.802  17.059  0.00  0.00    +0.000 C 
ATOM     26  C   UNL     1      -3.534  10.889  16.723  0.00  0.00    +0.000 C 
ATOM     27  C   UNL     1      -2.276  11.252  17.496  0.00  0.00    +0.000 C 
ENDBRANCH  19  22
ENDBRANCH   7  19
TORSDOF 4
ENDMDL
MODEL 9
REMARK VINA RESULT:      -7.9      4.404      8.736
REMARK  Name = 
REMARK  5 active torsions:
REMARK  status: ('A' for Active; 'I' for Inactive)
REMARK    1  A    between atoms: C_1  and  C_2
REMARK    2  A    between atoms: C_5  and  C_6
REMARK    3  A    between atoms: N_8  and  C_9
REMARK    4  A    between atoms: C_17  and  S_18
REMARK    5  A    between atoms: S_18  and  N_21
REMARK                            x       y       z     vdW  Elec       q    Type
REMARK                         _______ _______ _______ _____ _____    ______ ____
ROOT
ATOM      1  C   UNL     1       6.094   4.253  15.756  0.00  0.00    +0.000 C 
ATOM      2  C   UNL     1       5.099   5.089  16.510  0.00  0.00    +0.000 A 
ATOM      3  C   UNL     1       4.971   6.421  16.089  0.00  0.00    +0.000 A 
ATOM      4  C   UNL     1       4.121   7.308  16.740  0.00  0.00    +0.000 A 
ATOM      5  C   UNL     1       3.363   6.906  17.844  0.00  0.00    +0.000 A 
ATOM      6  C   UNL     1       3.480   5.585  18.287  0.00  0.00    +0.000 A 
ATOM      7  C   UNL     1       4.328   4.667  17.617  0.00  0.00    +0.000 A 
ENDROOT
BRANCH   5   8
ATOM      8  C   UNL     1       2.470   7.947  18.446  0.00  0.00    +0.000 C 
ATOM      9  O   UNL     1       2.148   7.753  19.618  0.00  0.00    +0.000 OA
ATOM     10  N   UNL     1       2.065   9.015  17.665  0.00  0.00    +0.000 N 
ATOM     11  H   UNL     1       2.226   8.983  16.668  0.00  0.00    +0.000 HD
BRANCH  10  12
ATOM     12  C   UNL     1       1.216  10.051  18.129  0.00  0.00    +0.000 A 
ATOM     13  C   UNL     1      -0.171   9.905  18.246  0.00  0.00    +0.000 A 
ATOM     14  C   UNL     1      -0.988  10.975  18.606  0.00  0.00    +0.000 A 
ATOM     15  C   UNL     1      -0.420  12.211  18.872  0.00  0.00    +0.000 A 
ATOM     16  C   UNL     1       0.967  12.358  18.816  0.00  0.00    +0.000 A 
ATOM     17 CL   UNL     1       1.668  13.893  19.162  0.00  0.00    +0.000 Cl
ATOM     18  C   UNL     1       1.788  11.284  18.459  0.00  0.00    +0.000 A 
ENDBRANCH  10  12
ENDBRANCH   5   8
BRANCH   7  19
ATOM     19  S   UNL     1       4.479   3.042  18.391  0.00  0.00    +0.000 S 
ATOM     20  O   UNL     1       4.628   2.051  17.351  0.00  0.00    +0.000 OA
ATOM     21  O   UNL     1       5.488   3.183  19.422  0.00  0.00    +0.000 OA
BRANCH  19  22
ATOM     22  N   UNL     1       2.984   2.766  19.195  0.00  0.00    +0.000 NA
ATOM     23  C   UNL     1       2.928   3.126  20.629  0.00  0.00    +0.000 C 
ATOM     24  C   UNL     1       1.552   3.024  21.269  0.00  0.00    +0.000 C 
ATOM     25  C   UNL     1       0.452   3.554  20.371  0.00  0.00    +0.000 C 
ATOM     26  C   UNL     1       0.456   2.761  19.081  0.00  0.00    +0.000 C 
ATOM     27  C   UNL     1       1.782   2.865  18.346  0.00  0.00    +0.000 C 
ENDBRANCH  19  22
ENDBRANCH   7  19
TORSDOF 4
ENDMDL
