MODEL 1
REMARK VINA RESULT:      -7.5      0.000      0.000
REMARK  Name = 
REMARK  5 active torsions:
REMARK  status: ('A' for Active; 'I' for Inactive)
REMARK    1  A    between atoms: C_1  and  C_2
REMARK    2  A    between atoms: C_2  and  C_3
REMARK    3  A    between atoms: C_2  and  N_9
REMARK    4  A    between atoms: N_9  and  C_10
REMARK    5  A    between atoms: N_9  and  C_11
REMARK                            x       y       z     vdW  Elec       q    Type
REMARK                         _______ _______ _______ _____ _____    ______ ____
ROOT
ATOM      1  N   UNL     1       3.991   3.586  19.088  0.00  0.00    +0.000 N 
ATOM      2  C   UNL     1       4.230   2.304  19.753  0.00  0.00    +0.000 C 
ENDROOT
BRANCH   1   3
ATOM      3  C   UNL     1       5.136   4.263  18.661  0.00  0.00    +0.000 A 
ATOM      4  N   UNL     1       5.873   4.882  19.624  0.00  0.00    +0.000 NA
ATOM      5  C   UNL     1       6.978   5.570  19.301  0.00  0.00    +0.000 A 
ATOM      6  N   UNL     1       7.504   5.724  18.090  0.00  0.00    +0.000 NA
ATOM      7  C   UNL     1       6.796   5.094  17.142  0.00  0.00    +0.000 A 
ATOM      8  S   UNL     1       7.332   5.150  15.522  0.00  0.00    +0.000 S 
ATOM      9  C   UNL     1       6.034   4.199  15.017  0.00  0.00    +0.000 A 
ATOM     10 BR   UNL     1       5.758   3.673  13.241  0.00  0.00    +0.000 Br
ATOM     11  C   UNL     1       5.204   3.838  16.045  0.00  0.00    +0.000 A 
ATOM     12  C   UNL     1       5.623   4.361  17.323  0.00  0.00    +0.000 A 
ENDBRANCH   1   3
BRANCH   1  14
ATOM     13  C   UNL     1       2.029   3.584  17.548  0.00  0.00    +0.000 C 
ATOM     14  C   UNL     1       2.633   4.091  18.871  0.00  0.00    +0.000 C 
BRANCH  14  15
ATOM     15  C   UNL     1       2.498   5.605  19.048  0.00  0.00    +0.000 A 
ATOM     16  C   UNL     1       2.129   6.207  20.263  0.00  0.00    +0.000 A 
ATOM     17  C   UNL     1       1.858   7.578  20.336  0.00  0.00    +0.000 A 
ATOM     18  C   UNL     1       1.959   8.374  19.199  0.00  0.00    +0.000 A 
ATOM     19  C   UNL     1       2.337   7.804  17.989  0.00  0.00    +0.000 A 
ATOM     20  C   UNL     1       2.602   6.435  17.914  0.00  0.00    +0.000 A 
ENDBRANCH  14  15
ENDBRANCH   1  14
TORSDOF 3
ENDMDL
MODEL 2
REMARK VINA RESULT:      -7.4      0.303      1.116
REMARK  Name = 
REMARK  5 active torsions:
REMARK  status: ('A' for Active; 'I' for Inactive)
REMARK    1  A    between atoms: C_1  and  C_2
REMARK    2  A    between atoms: C_2  and  C_3
REMARK    3  A    between atoms: C_2  and  N_9
REMARK    4  A    between atoms: N_9  and  C_10
REMARK    5  A    between atoms: N_9  and  C_11
REMARK                            x       y       z     vdW  Elec       q    Type
REMARK                         _______ _______ _______ _____ _____    ______ ____
ROOT
ATOM      1  N   UNL     1       4.108   3.377  19.134  0.00  0.00    +0.000 N 
ATOM      2  C   UNL     1       4.460   2.174  19.892  0.00  0.00    +0.000 C 
ENDROOT
BRANCH   1   3
ATOM      3  C   UNL     1       5.188   4.150  18.702  0.00  0.00    +0.000 A 
ATOM      4  N   UNL     1       5.881   4.821  19.663  0.00  0.00    +0.000 NA
ATOM      5  C   UNL     1       6.920   5.602  19.334  0.00  0.00    +0.000 A 
ATOM      6  N   UNL     1       7.419   5.809  18.120  0.00  0.00    +0.000 NA
ATOM      7  C   UNL     1       6.756   5.129  17.174  0.00  0.00    +0.000 A 
ATOM      8  S   UNL     1       7.268   5.242  15.548  0.00  0.00    +0.000 S 
ATOM      9  C   UNL     1       6.048   4.190  15.048  0.00  0.00    +0.000 A 
ATOM     10 BR   UNL     1       5.798   3.656  13.271  0.00  0.00    +0.000 Br
ATOM     11  C   UNL     1       5.263   3.752  16.082  0.00  0.00    +0.000 A 
ATOM     12  C   UNL     1       5.650   4.299  17.359  0.00  0.00    +0.000 A 
ENDBRANCH   1   3
BRANCH   1  14
ATOM     13  C   UNL     1       2.247   3.121  17.494  0.00  0.00    +0.000 C 
ATOM     14  C   UNL     1       2.713   3.710  18.839  0.00  0.00    +0.000 C 
BRANCH  14  15
ATOM     15  C   UNL     1       2.386   5.198  18.985  0.00  0.00    +0.000 A 
ATOM     16  C   UNL     1       2.539   6.125  17.941  0.00  0.00    +0.000 A 
ATOM     17  C   UNL     1       2.387   7.498  18.165  0.00  0.00    +0.000 A 
ATOM     18  C   UNL     1       2.072   7.969  19.436  0.00  0.00    +0.000 A 
ATOM     19  C   UNL     1       1.902   7.070  20.483  0.00  0.00    +0.000 A 
ATOM     20  C   UNL     1       2.058   5.700  20.260  0.00  0.00    +0.000 A 
ENDBRANCH  14  15
ENDBRANCH   1  14
TORSDOF 3
ENDMDL
MODEL 3
REMARK VINA RESULT:      -7.0      0.784      1.547
REMARK  Name = 
REMARK  5 active torsions:
REMARK  status: ('A' for Active; 'I' for Inactive)
REMARK    1  A    between atoms: C_1  and  C_2
REMARK    2  A    between atoms: C_2  and  C_3
REMARK    3  A    between atoms: C_2  and  N_9
REMARK    4  A    between atoms: N_9  and  C_10
REMARK    5  A    between atoms: N_9  and  C_11
REMARK                            x       y       z     vdW  Elec       q    Type
REMARK                         _______ _______ _______ _____ _____    ______ ____
ROOT
ATOM      1  N   UNL     1       3.692   4.429  19.107  0.00  0.00    +0.000 N 
ATOM      2  C   UNL     1       3.095   3.235  18.505  0.00  0.00    +0.000 C 
ENDROOT
BRANCH   1   3
ATOM      3  C   UNL     1       4.983   4.738  18.673  0.00  0.00    +0.000 A 
ATOM      4  N   UNL     1       5.862   5.155  19.625  0.00  0.00    +0.000 NA
ATOM      5  C   UNL     1       7.117   5.491  19.294  0.00  0.00    +0.000 A 
ATOM      6  N   UNL     1       7.669   5.449  18.085  0.00  0.00    +0.000 NA
ATOM      7  C   UNL     1       6.813   5.014  17.149  0.00  0.00    +0.000 A 
ATOM      8  S   UNL     1       7.348   4.861  15.534  0.00  0.00    +0.000 S 
ATOM      9  C   UNL     1       5.835   4.300  15.044  0.00  0.00    +0.000 A 
ATOM     10 BR   UNL     1       5.425   3.814  13.283  0.00  0.00    +0.000 Br
ATOM     11  C   UNL     1       4.933   4.223  16.073  0.00  0.00    +0.000 A 
ATOM     12  C   UNL     1       5.480   4.649  17.338  0.00  0.00    +0.000 A 
ENDBRANCH   1   3
BRANCH   1  14
ATOM     13  C   UNL     1       1.889   4.424  20.830  0.00  0.00    +0.000 C 
ATOM     14  C   UNL     1       2.954   5.242  20.077  0.00  0.00    +0.000 C 
BRANCH  14  15
ATOM     15  C   UNL     1       2.406   6.550  19.500  0.00  0.00    +0.000 A 
ATOM     16  C   UNL     1       2.629   6.958  18.174  0.00  0.00    +0.000 A 
ATOM     17  C   UNL     1       2.252   8.233  17.738  0.00  0.00    +0.000 A 
ATOM     18  C   UNL     1       1.638   9.120  18.616  0.00  0.00    +0.000 A 
ATOM     19  C   UNL     1       1.393   8.735  19.929  0.00  0.00    +0.000 A 
ATOM     20  C   UNL     1       1.774   7.464  20.366  0.00  0.00    +0.000 A 
ENDBRANCH  14  15
ENDBRANCH   1  14
TORSDOF 3
ENDMDL
MODEL 4
REMARK VINA RESULT:      -7.0      1.562      2.714
REMARK  Name = 
REMARK  5 active torsions:
REMARK  status: ('A' for Active; 'I' for Inactive)
REMARK    1  A    between atoms: C_1  and  C_2
REMARK    2  A    between atoms: C_2  and  C_3
REMARK    3  A    between atoms: C_2  and  N_9
REMARK    4  A    between atoms: N_9  and  C_10
REMARK    5  A    between atoms: N_9  and  C_11
REMARK                            x       y       z     vdW  Elec       q    Type
REMARK                         _______ _______ _______ _____ _____    ______ ____
ROOT
ATOM      1  N   UNL     1       4.494   4.825  18.154  0.00  0.00    +0.000 N 
ATOM      2  C   UNL     1       4.837   3.801  19.143  0.00  0.00    +0.000 C 
ENDROOT
BRANCH   1   3
ATOM      3  C   UNL     1       5.567   5.329  17.415  0.00  0.00    +0.000 A 
ATOM      4  N   UNL     1       6.393   6.200  18.057  0.00  0.00    +0.000 NA
ATOM      5  C   UNL     1       7.437   6.747  17.417  0.00  0.00    +0.000 A 
ATOM      6  N   UNL     1       7.819   6.524  16.164  0.00  0.00    +0.000 NA
ATOM      7  C   UNL     1       7.023   5.646  15.537  0.00  0.00    +0.000 A 
ATOM      8  S   UNL     1       7.371   5.206  13.923  0.00  0.00    +0.000 S 
ATOM      9  C   UNL     1       6.047   4.162  13.880  0.00  0.00    +0.000 A 
ATOM     10 BR   UNL     1       5.583   3.130  12.388  0.00  0.00    +0.000 Br
ATOM     11  C   UNL     1       5.347   4.136  15.058  0.00  0.00    +0.000 A 
ATOM     12  C   UNL     1       5.896   5.015  16.062  0.00  0.00    +0.000 A 
ENDBRANCH   1   3
BRANCH   1  14
ATOM     13  C   UNL     1       2.933   6.771  18.169  0.00  0.00    +0.000 C 
ATOM     14  C   UNL     1       3.108   5.256  17.953  0.00  0.00    +0.000 C 
BRANCH  14  15
ATOM     15  C   UNL     1       2.081   4.420  18.721  0.00  0.00    +0.000 A 
ATOM     16  C   UNL     1       1.782   4.626  20.078  0.00  0.00    +0.000 A 
ATOM     17  C   UNL     1       0.962   3.736  20.780  0.00  0.00    +0.000 A 
ATOM     18  C   UNL     1       0.420   2.628  20.137  0.00  0.00    +0.000 A 
ATOM     19  C   UNL     1       0.690   2.409  18.791  0.00  0.00    +0.000 A 
ATOM     20  C   UNL     1       1.512   3.295  18.091  0.00  0.00    +0.000 A 
ENDBRANCH  14  15
ENDBRANCH   1  14
TORSDOF 3
ENDMDL
MODEL 5
REMARK VINA RESULT:      -6.9      0.813      1.189
REMARK  Name = 
REMARK  5 active torsions:
REMARK  status: ('A' for Active; 'I' for Inactive)
REMARK    1  A    between atoms: C_1  and  C_2
REMARK    2  A    between atoms: C_2  and  C_3
REMARK    3  A    between atoms: C_2  and  N_9
REMARK    4  A    between atoms: N_9  and  C_10
REMARK    5  A    between atoms: N_9  and  C_11
REMARK                            x       y       z     vdW  Elec       q    Type
REMARK                         _______ _______ _______ _____ _____    ______ ____
ROOT
ATOM      1  N   UNL     1       3.503   4.488  19.059  0.00  0.00    +0.000 N 
ATOM      2  C   UNL     1       2.889   3.341  18.387  0.00  0.00    +0.000 C 
ENDROOT
BRANCH   1   3
ATOM      3  C   UNL     1       4.819   4.768  18.684  0.00  0.00    +0.000 A 
ATOM      4  N   UNL     1       5.664   5.165  19.675  0.00  0.00    +0.000 NA
ATOM      5  C   UNL     1       6.940   5.473  19.401  0.00  0.00    +0.000 A 
ATOM      6  N   UNL     1       7.544   5.418  18.218  0.00  0.00    +0.000 NA
ATOM      7  C   UNL     1       6.723   5.002  17.244  0.00  0.00    +0.000 A 
ATOM      8  S   UNL     1       7.326   4.837  15.655  0.00  0.00    +0.000 S 
ATOM      9  C   UNL     1       5.824   4.310  15.096  0.00  0.00    +0.000 A 
ATOM     10 BR   UNL     1       5.484   3.833  13.318  0.00  0.00    +0.000 Br
ATOM     11  C   UNL     1       4.876   4.254  16.084  0.00  0.00    +0.000 A 
ATOM     12  C   UNL     1       5.374   4.668  17.373  0.00  0.00    +0.000 A 
ENDBRANCH   1   3
BRANCH   1  14
ATOM     13  C   UNL     1       1.535   4.536  20.590  0.00  0.00    +0.000 C 
ATOM     14  C   UNL     1       2.758   5.289  20.034  0.00  0.00    +0.000 C 
BRANCH  14  15
ATOM     15  C   UNL     1       2.422   6.701  19.549  0.00  0.00    +0.000 A 
ATOM     16  C   UNL     1       1.840   7.678  20.373  0.00  0.00    +0.000 A 
ATOM     17  C   UNL     1       1.399   8.898  19.847  0.00  0.00    +0.000 A 
ATOM     18  C   UNL     1       1.538   9.165  18.488  0.00  0.00    +0.000 A 
ATOM     19  C   UNL     1       2.124   8.219  17.654  0.00  0.00    +0.000 A 
ATOM     20  C   UNL     1       2.560   7.000  18.179  0.00  0.00    +0.000 A 
ENDBRANCH  14  15
ENDBRANCH   1  14
TORSDOF 3
ENDMDL
MODEL 6
REMARK VINA RESULT:      -6.9      3.043      5.186
REMARK  Name = 
REMARK  5 active torsions:
REMARK  status: ('A' for Active; 'I' for Inactive)
REMARK    1  A    between atoms: C_1  and  C_2
REMARK    2  A    between atoms: C_2  and  C_3
REMARK    3  A    between atoms: C_2  and  N_9
REMARK    4  A    between atoms: N_9  and  C_10
REMARK    5  A    between atoms: N_9  and  C_11
REMARK                            x       y       z     vdW  Elec       q    Type
REMARK                         _______ _______ _______ _____ _____    ______ ____
ROOT
ATOM      1  N   UNL     1       4.013   4.141  17.664  0.00  0.00    +0.000 N 
ATOM      2  C   UNL     1       3.938   2.694  17.454  0.00  0.00    +0.000 C 
ENDROOT
BRANCH   1   3
ATOM      3  C   UNL     1       3.317   4.623  18.775  0.00  0.00    +0.000 A 
ATOM      4  N   UNL     1       3.153   3.757  19.813  0.00  0.00    +0.000 NA
ATOM      5  C   UNL     1       2.481   4.129  20.912  0.00  0.00    +0.000 A 
ATOM      6  N   UNL     1       1.933   5.315  21.156  0.00  0.00    +0.000 NA
ATOM      7  C   UNL     1       2.115   6.179  20.147  0.00  0.00    +0.000 A 
ATOM      8  S   UNL     1       1.508   7.769  20.288  0.00  0.00    +0.000 S 
ATOM      9  C   UNL     1       2.105   8.175  18.764  0.00  0.00    +0.000 A 
ATOM     10 BR   UNL     1       1.919   9.870  17.990  0.00  0.00    +0.000 Br
ATOM     11  C   UNL     1       2.755   7.136  18.150  0.00  0.00    +0.000 A 
ATOM     12  C   UNL     1       2.771   5.931  18.942  0.00  0.00    +0.000 A 
ENDBRANCH   1   3
BRANCH   1  14
ATOM     13  C   UNL     1       5.283   4.248  15.520  0.00  0.00    +0.000 C 
ATOM     14  C   UNL     1       4.795   5.001  16.772  0.00  0.00    +0.000 C 
BRANCH  14  15
ATOM     15  C   UNL     1       5.911   5.776  17.477  0.00  0.00    +0.000 A 
ATOM     16  C   UNL     1       6.358   7.037  17.052  0.00  0.00    +0.000 A 
ATOM     17  C   UNL     1       7.488   7.634  17.624  0.00  0.00    +0.000 A 
ATOM     18  C   UNL     1       8.186   6.983  18.636  0.00  0.00    +0.000 A 
ATOM     19  C   UNL     1       7.755   5.739  19.084  0.00  0.00    +0.000 A 
ATOM     20  C   UNL     1       6.630   5.142  18.510  0.00  0.00    +0.000 A 
ENDBRANCH  14  15
ENDBRANCH   1  14
TORSDOF 3
ENDMDL
MODEL 7
REMARK VINA RESULT:      -6.9      3.039      5.110
REMARK  Name = 
REMARK  5 active torsions:
REMARK  status: ('A' for Active; 'I' for Inactive)
REMARK    1  A    between atoms: C_1  and  C_2
REMARK    2  A    between atoms: C_2  and  C_3
REMARK    3  A    between atoms: C_2  and  N_9
REMARK    4  A    between atoms: N_9  and  C_10
REMARK    5  A    between atoms: N_9  and  C_11
REMARK                            x       y       z     vdW  Elec       q    Type
REMARK                         _______ _______ _______ _____ _____    ______ ____
ROOT
ATOM      1  N   UNL     1       4.061   4.161  17.611  0.00  0.00    +0.000 N 
ATOM      2  C   UNL     1       4.001   2.713  17.399  0.00  0.00    +0.000 C 
ENDROOT
BRANCH   1   3
ATOM      3  C   UNL     1       3.375   4.632  18.733  0.00  0.00    +0.000 A 
ATOM      4  N   UNL     1       3.233   3.761  19.771  0.00  0.00    +0.000 NA
ATOM      5  C   UNL     1       2.571   4.123  20.879  0.00  0.00    +0.000 A 
ATOM      6  N   UNL     1       2.015   5.303  21.134  0.00  0.00    +0.000 NA
ATOM      7  C   UNL     1       2.176   6.172  20.126  0.00  0.00    +0.000 A 
ATOM      8  S   UNL     1       1.556   7.756  20.280  0.00  0.00    +0.000 S 
ATOM      9  C   UNL     1       2.130   8.173  18.750  0.00  0.00    +0.000 A 
ATOM     10 BR   UNL     1       1.918   9.868  17.984  0.00  0.00    +0.000 Br
ATOM     11  C   UNL     1       2.782   7.142  18.124  0.00  0.00    +0.000 A 
ATOM     12  C   UNL     1       2.819   5.934  18.911  0.00  0.00    +0.000 A 
ENDBRANCH   1   3
BRANCH   1  14
ATOM     13  C   UNL     1       5.114   4.354  15.359  0.00  0.00    +0.000 C 
ATOM     14  C   UNL     1       4.821   5.031  16.710  0.00  0.00    +0.000 C 
BRANCH  14  15
ATOM     15  C   UNL     1       6.065   5.652  17.351  0.00  0.00    +0.000 A 
ATOM     16  C   UNL     1       6.751   5.064  18.426  0.00  0.00    +0.000 A 
ATOM     17  C   UNL     1       7.781   5.745  19.085  0.00  0.00    +0.000 A 
ATOM     18  C   UNL     1       8.148   7.023  18.677  0.00  0.00    +0.000 A 
ATOM     19  C   UNL     1       7.494   7.621  17.606  0.00  0.00    +0.000 A 
ATOM     20  C   UNL     1       6.463   6.944  16.951  0.00  0.00    +0.000 A 
ENDBRANCH  14  15
ENDBRANCH   1  14
TORSDOF 3
ENDMDL
MODEL 8
REMARK VINA RESULT:      -6.9      1.641      3.080
REMARK  Name = 
REMARK  5 active torsions:
REMARK  status: ('A' for Active; 'I' for Inactive)
REMARK    1  A    between atoms: C_1  and  C_2
REMARK    2  A    between atoms: C_2  and  C_3
REMARK    3  A    between atoms: C_2  and  N_9
REMARK    4  A    between atoms: N_9  and  C_10
REMARK    5  A    between atoms: N_9  and  C_11
REMARK                            x       y       z     vdW  Elec       q    Type
REMARK                         _______ _______ _______ _____ _____    ______ ____
ROOT
ATOM      1  N   UNL     1       3.473   5.602  17.699  0.00  0.00    +0.000 N 
ATOM      2  C   UNL     1       2.833   6.860  18.085  0.00  0.00    +0.000 C 
ENDROOT
BRANCH   1   3
ATOM      3  C   UNL     1       4.791   5.713  17.248  0.00  0.00    +0.000 A 
ATOM      4  N   UNL     1       5.665   6.350  18.075  0.00  0.00    +0.000 NA
ATOM      5  C   UNL     1       6.946   6.518  17.714  0.00  0.00    +0.000 A 
ATOM      6  N   UNL     1       7.527   6.101  16.594  0.00  0.00    +0.000 NA
ATOM      7  C   UNL     1       6.675   5.450  15.789  0.00  0.00    +0.000 A 
ATOM      8  S   UNL     1       7.245   4.808  14.312  0.00  0.00    +0.000 S 
ATOM      9  C   UNL     1       5.717   4.197  13.942  0.00  0.00    +0.000 A 
ATOM     10 BR   UNL     1       5.330   3.237  12.382  0.00  0.00    +0.000 Br
ATOM     11  C   UNL     1       4.785   4.464  14.910  0.00  0.00    +0.000 A 
ATOM     12  C   UNL     1       5.319   5.216  16.019  0.00  0.00    +0.000 A 
ENDBRANCH   1   3
BRANCH   1  14
ATOM     13  C   UNL     1       1.398   4.351  17.110  0.00  0.00    +0.000 C 
ATOM     14  C   UNL     1       2.768   4.322  17.812  0.00  0.00    +0.000 C 
BRANCH  14  15
ATOM     15  C   UNL     1       2.697   3.778  19.241  0.00  0.00    +0.000 A 
ATOM     16  C   UNL     1       3.725   3.020  19.826  0.00  0.00    +0.000 A 
ATOM     17  C   UNL     1       3.549   2.405  21.071  0.00  0.00    +0.000 A 
ATOM     18  C   UNL     1       2.346   2.542  21.756  0.00  0.00    +0.000 A 
ATOM     19  C   UNL     1       1.319   3.299  21.204  0.00  0.00    +0.000 A 
ATOM     20  C   UNL     1       1.493   3.910  19.960  0.00  0.00    +0.000 A 
ENDBRANCH  14  15
ENDBRANCH   1  14
TORSDOF 3
ENDMDL
MODEL 9
REMARK VINA RESULT:      -6.9      3.261      6.330
REMARK  Name = 
REMARK  5 active torsions:
REMARK  status: ('A' for Active; 'I' for Inactive)
REMARK    1  A    between atoms: C_1  and  C_2
REMARK    2  A    between atoms: C_2  and  C_3
REMARK    3  A    between atoms: C_2  and  N_9
REMARK    4  A    between atoms: N_9  and  C_10
REMARK    5  A    between atoms: N_9  and  C_11
REMARK                            x       y       z     vdW  Elec       q    Type
REMARK                         _______ _______ _______ _____ _____    ______ ____
ROOT
ATOM      1  N   UNL     1       5.038   4.846  16.815  0.00  0.00    +0.000 N 
ATOM      2  C   UNL     1       4.713   6.233  16.476  0.00  0.00    +0.000 C 
ENDROOT
BRANCH   1   3
ATOM      3  C   UNL     1       4.096   4.187  17.609  0.00  0.00    +0.000 A 
ATOM      4  N   UNL     1       4.007   2.837  17.455  0.00  0.00    +0.000 NA
ATOM      5  C   UNL     1       3.117   2.127  18.163  0.00  0.00    +0.000 A 
ATOM      6  N   UNL     1       2.266   2.585  19.075  0.00  0.00    +0.000 NA
ATOM      7  C   UNL     1       2.369   3.911  19.249  0.00  0.00    +0.000 A 
ATOM      8  S   UNL     1       1.377   4.682  20.406  0.00  0.00    +0.000 S 
ATOM      9  C   UNL     1       2.062   6.182  20.053  0.00  0.00    +0.000 A 
ATOM     10 BR   UNL     1       1.576   7.776  20.907  0.00  0.00    +0.000 Br
ATOM     11  C   UNL     1       3.027   6.114  19.082  0.00  0.00    +0.000 A 
ATOM     12  C   UNL     1       3.228   4.779  18.575  0.00  0.00    +0.000 A 
ENDBRANCH   1   3
BRANCH   1  14
ATOM     13  C   UNL     1       7.506   4.647  17.109  0.00  0.00    +0.000 C 
ATOM     14  C   UNL     1       6.259   4.207  16.320  0.00  0.00    +0.000 C 
BRANCH  14  15
ATOM     15  C   UNL     1       6.443   4.312  14.804  0.00  0.00    +0.000 A 
ATOM     16  C   UNL     1       5.721   3.531  13.886  0.00  0.00    +0.000 A 
ATOM     17  C   UNL     1       6.037   3.541  12.523  0.00  0.00    +0.000 A 
ATOM     18  C   UNL     1       7.076   4.338  12.051  0.00  0.00    +0.000 A 
ATOM     19  C   UNL     1       7.796   5.131  12.938  0.00  0.00    +0.000 A 
ATOM     20  C   UNL     1       7.483   5.117  14.299  0.00  0.00    +0.000 A 
ENDBRANCH  14  15
ENDBRANCH   1  14
TORSDOF 3
ENDMDL
