MODEL 1
REMARK VINA RESULT:      -6.4      0.000      0.000
REMARK  Name = 
REMARK  12 active torsions:
REMARK  status: ('A' for Active; 'I' for Inactive)
REMARK    1  A    between atoms: C_1  and  C_2
REMARK    2  A    between atoms: C_2  and  O_3
REMARK    3  A    between atoms: O_3  and  C_4
REMARK    4  A    between atoms: C_4  and  C_5
REMARK    5  A    between atoms: C_5  and  O_6
REMARK    6  A    between atoms: C_5  and  C_7
REMARK    7  A    between atoms: C_7  and  N_8
REMARK    8  A    between atoms: C_12  and  C_14
REMARK    9  A    between atoms: C_14  and  C_15
REMARK   10  A    between atoms: C_15  and  C_16
REMARK   11  A    between atoms: C_15  and  C_17
REMARK   12  A    between atoms: C_15  and  C_18
REMARK                            x       y       z     vdW  Elec       q    Type
REMARK                         _______ _______ _______ _____ _____    ______ ____
ROOT
ATOM      1  N   UNL     1       6.381   6.111  16.753  0.00  0.00    +0.000 NA
ATOM      2  C   UNL     1       7.051   4.953  17.392  0.00  0.00    +0.000 C 
ATOM      3  C   UNL     1       6.375   4.374  18.650  0.00  0.00    +0.000 C 
ATOM      4  N   UNL     1       4.924   4.205  18.498  0.00  0.00    +0.000 N 
ATOM      5  C   UNL     1       4.301   3.219  19.252  0.00  0.00    +0.000 C 
ATOM      6  O   UNL     1       4.960   2.478  19.973  0.00  0.00    +0.000 OA
ATOM      7  C   UNL     1       4.235   5.344  17.893  0.00  0.00    +0.000 C 
ATOM      8  C   UNL     1       4.938   5.801  16.605  0.00  0.00    +0.000 C 
ENDROOT
BRANCH   1   9
ATOM      9  C   UNL     1       6.568   7.373  17.484  0.00  0.00    +0.000 C 
BRANCH   9  10
ATOM     10  C   UNL     1       8.020   7.790  17.800  0.00  0.00    +0.000 C 
BRANCH  10  11
ATOM     11  O   UNL     1       8.402   7.087  18.998  0.00  0.00    +0.000 OA
ATOM     12  H   UNL     1       8.400   6.136  18.796  0.00  0.00    +0.000 HD
ENDBRANCH  10  11
BRANCH  10  13
ATOM     13  C   UNL     1       8.191   9.310  17.986  0.00  0.00    +0.000 C 
BRANCH  13  14
ATOM     14  O   UNL     1       9.143   9.537  19.031  0.00  0.00    +0.000 OA
BRANCH  14  16
ATOM     15  C   UNL     1       9.687  11.586  17.939  0.00  0.00    +0.000 C 
ATOM     16  C   UNL     1       9.373  10.924  19.269  0.00  0.00    +0.000 C 
ENDBRANCH  14  16
ENDBRANCH  13  14
ENDBRANCH  10  13
ENDBRANCH   9  10
ENDBRANCH   1   9
BRANCH   5  17
ATOM     17  C   UNL     1       2.784   3.088  19.119  0.00  0.00    +0.000 C 
BRANCH  17  18
ATOM     18  C   UNL     1       1.934   3.543  20.337  0.00  0.00    +0.000 C 
ATOM     19  C   UNL     1       2.255   4.997  20.729  0.00  0.00    +0.000 C 
ATOM     20  C   UNL     1       0.442   3.486  19.943  0.00  0.00    +0.000 C 
ATOM     21  C   UNL     1       2.129   2.604  21.541  0.00  0.00    +0.000 C 
ENDBRANCH  17  18
ENDBRANCH   5  17
TORSDOF 8
ENDMDL
MODEL 2
REMARK VINA RESULT:      -6.4      3.473      5.420
REMARK  Name = 
REMARK  12 active torsions:
REMARK  status: ('A' for Active; 'I' for Inactive)
REMARK    1  A    between atoms: C_1  and  C_2
REMARK    2  A    between atoms: C_2  and  O_3
REMARK    3  A    between atoms: O_3  and  C_4
REMARK    4  A    between atoms: C_4  and  C_5
REMARK    5  A    between atoms: C_5  and  O_6
REMARK    6  A    between atoms: C_5  and  C_7
REMARK    7  A    between atoms: C_7  and  N_8
REMARK    8  A    between atoms: C_12  and  C_14
REMARK    9  A    between atoms: C_14  and  C_15
REMARK   10  A    between atoms: C_15  and  C_16
REMARK   11  A    between atoms: C_15  and  C_17
REMARK   12  A    between atoms: C_15  and  C_18
REMARK                            x       y       z     vdW  Elec       q    Type
REMARK                         _______ _______ _______ _____ _____    ______ ____
ROOT
ATOM      1  N   UNL     1       6.954   5.593  16.135  0.00  0.00    +0.000 NA
ATOM      2  C   UNL     1       6.421   6.813  16.787  0.00  0.00    +0.000 C 
ATOM      3  C   UNL     1       4.960   6.751  17.274  0.00  0.00    +0.000 C 
ATOM      4  N   UNL     1       4.646   5.512  17.996  0.00  0.00    +0.000 N 
ATOM      5  C   UNL     1       3.631   5.550  18.944  0.00  0.00    +0.000 C 
ATOM      6  O   UNL     1       3.065   6.605  19.206  0.00  0.00    +0.000 OA
ATOM      7  C   UNL     1       5.139   4.291  17.360  0.00  0.00    +0.000 C 
ATOM      8  C   UNL     1       6.622   4.419  16.980  0.00  0.00    +0.000 C 
ENDROOT
BRANCH   1   9
ATOM      9  C   UNL     1       6.462   5.399  14.763  0.00  0.00    +0.000 C 
BRANCH   9  10
ATOM     10  C   UNL     1       7.423   4.721  13.764  0.00  0.00    +0.000 C 
BRANCH  10  11
ATOM     11  O   UNL     1       8.047   5.776  13.008  0.00  0.00    +0.000 OA
ATOM     12  H   UNL     1       7.867   5.612  12.067  0.00  0.00    +0.000 HD
ENDBRANCH  10  11
BRANCH  10  13
ATOM     13  C   UNL     1       6.720   3.723  12.823  0.00  0.00    +0.000 C 
BRANCH  13  14
ATOM     14  O   UNL     1       5.308   3.952  12.888  0.00  0.00    +0.000 OA
BRANCH  14  16
ATOM     15  C   UNL     1       5.488   2.098  11.399  0.00  0.00    +0.000 C 
ATOM     16  C   UNL     1       4.590   3.214  11.902  0.00  0.00    +0.000 C 
ENDBRANCH  14  16
ENDBRANCH  13  14
ENDBRANCH  10  13
ENDBRANCH   9  10
ENDBRANCH   1   9
BRANCH   5  17
ATOM     17  C   UNL     1       3.283   4.241  19.652  0.00  0.00    +0.000 C 
BRANCH  17  18
ATOM     18  C   UNL     1       1.950   3.557  19.239  0.00  0.00    +0.000 C 
ATOM     19  C   UNL     1       2.085   2.024  19.244  0.00  0.00    +0.000 C 
ATOM     20  C   UNL     1       0.865   3.933  20.272  0.00  0.00    +0.000 C 
ATOM     21  C   UNL     1       1.467   4.052  17.864  0.00  0.00    +0.000 C 
ENDBRANCH  17  18
ENDBRANCH   5  17
TORSDOF 8
ENDMDL
MODEL 3
REMARK VINA RESULT:      -6.4      3.719      5.643
REMARK  Name = 
REMARK  12 active torsions:
REMARK  status: ('A' for Active; 'I' for Inactive)
REMARK    1  A    between atoms: C_1  and  C_2
REMARK    2  A    between atoms: C_2  and  O_3
REMARK    3  A    between atoms: O_3  and  C_4
REMARK    4  A    between atoms: C_4  and  C_5
REMARK    5  A    between atoms: C_5  and  O_6
REMARK    6  A    between atoms: C_5  and  C_7
REMARK    7  A    between atoms: C_7  and  N_8
REMARK    8  A    between atoms: C_12  and  C_14
REMARK    9  A    between atoms: C_14  and  C_15
REMARK   10  A    between atoms: C_15  and  C_16
REMARK   11  A    between atoms: C_15  and  C_17
REMARK   12  A    between atoms: C_15  and  C_18
REMARK                            x       y       z     vdW  Elec       q    Type
REMARK                         _______ _______ _______ _____ _____    ______ ____
ROOT
ATOM      1  N   UNL     1       6.517   4.805  15.824  0.00  0.00    +0.000 NA
ATOM      2  C   UNL     1       6.365   6.026  16.651  0.00  0.00    +0.000 C 
ATOM      3  C   UNL     1       4.925   6.522  16.888  0.00  0.00    +0.000 C 
ATOM      4  N   UNL     1       3.997   5.445  17.251  0.00  0.00    +0.000 N 
ATOM      5  C   UNL     1       2.889   5.773  18.021  0.00  0.00    +0.000 C 
ATOM      6  O   UNL     1       2.732   6.918  18.430  0.00  0.00    +0.000 OA
ATOM      7  C   UNL     1       4.109   4.238  16.433  0.00  0.00    +0.000 C 
ATOM      8  C   UNL     1       5.570   3.776  16.319  0.00  0.00    +0.000 C 
ENDROOT
BRANCH   1   9
ATOM      9  C   UNL     1       6.321   5.043  14.387  0.00  0.00    +0.000 C 
BRANCH   9  10
ATOM     10  C   UNL     1       7.422   4.532  13.435  0.00  0.00    +0.000 C 
BRANCH  10  11
ATOM     11  O   UNL     1       8.085   5.696  12.905  0.00  0.00    +0.000 OA
ATOM     12  H   UNL     1       7.420   6.225  12.433  0.00  0.00    +0.000 HD
ENDBRANCH  10  11
BRANCH  10  13
ATOM     13  C   UNL     1       6.882   3.649  12.293  0.00  0.00    +0.000 C 
BRANCH  13  14
ATOM     14  O   UNL     1       5.459   3.554  12.425  0.00  0.00    +0.000 OA
BRANCH  14  16
ATOM     15  C   UNL     1       3.651   3.320  10.887  0.00  0.00    +0.000 C 
ATOM     16  C   UNL     1       4.882   2.658  11.479  0.00  0.00    +0.000 C 
ENDBRANCH  14  16
ENDBRANCH  13  14
ENDBRANCH  10  13
ENDBRANCH   9  10
ENDBRANCH   1   9
BRANCH   5  17
ATOM     17  C   UNL     1       1.905   4.650  18.350  0.00  0.00    +0.000 C 
BRANCH  17  18
ATOM     18  C   UNL     1       2.023   4.011  19.761  0.00  0.00    +0.000 C 
ATOM     19  C   UNL     1       0.928   2.952  19.987  0.00  0.00    +0.000 C 
ATOM     20  C   UNL     1       3.389   3.298  19.865  0.00  0.00    +0.000 C 
ATOM     21  C   UNL     1       1.976   5.080  20.868  0.00  0.00    +0.000 C 
ENDBRANCH  17  18
ENDBRANCH   5  17
TORSDOF 8
ENDMDL
MODEL 4
REMARK VINA RESULT:      -6.2      3.517      5.383
REMARK  Name = 
REMARK  12 active torsions:
REMARK  status: ('A' for Active; 'I' for Inactive)
REMARK    1  A    between atoms: C_1  and  C_2
REMARK    2  A    between atoms: C_2  and  O_3
REMARK    3  A    between atoms: O_3  and  C_4
REMARK    4  A    between atoms: C_4  and  C_5
REMARK    5  A    between atoms: C_5  and  O_6
REMARK    6  A    between atoms: C_5  and  C_7
REMARK    7  A    between atoms: C_7  and  N_8
REMARK    8  A    between atoms: C_12  and  C_14
REMARK    9  A    between atoms: C_14  and  C_15
REMARK   10  A    between atoms: C_15  and  C_16
REMARK   11  A    between atoms: C_15  and  C_17
REMARK   12  A    between atoms: C_15  and  C_18
REMARK                            x       y       z     vdW  Elec       q    Type
REMARK                         _______ _______ _______ _____ _____    ______ ____
ROOT
ATOM      1  N   UNL     1       6.301   4.733  16.672  0.00  0.00    +0.000 NA
ATOM      2  C   UNL     1       6.242   5.703  17.791  0.00  0.00    +0.000 C 
ATOM      3  C   UNL     1       4.847   6.251  18.154  0.00  0.00    +0.000 C 
ATOM      4  N   UNL     1       3.819   5.205  18.226  0.00  0.00    +0.000 N 
ATOM      5  C   UNL     1       2.729   5.421  19.059  0.00  0.00    +0.000 C 
ATOM      6  O   UNL     1       2.667   6.428  19.755  0.00  0.00    +0.000 OA
ATOM      7  C   UNL     1       3.840   4.249  17.120  0.00  0.00    +0.000 C 
ATOM      8  C   UNL     1       5.256   3.701  16.883  0.00  0.00    +0.000 C 
ENDROOT
BRANCH   1   9
ATOM      9  C   UNL     1       6.156   5.355  15.348  0.00  0.00    +0.000 C 
BRANCH   9  10
ATOM     10  C   UNL     1       6.761   4.598  14.148  0.00  0.00    +0.000 C 
BRANCH  10  11
ATOM     11  O   UNL     1       7.623   5.527  13.464  0.00  0.00    +0.000 OA
ATOM     12  H   UNL     1       8.181   5.960  14.131  0.00  0.00    +0.000 HD
ENDBRANCH  10  11
BRANCH  10  13
ATOM     13  C   UNL     1       5.700   4.033  13.184  0.00  0.00    +0.000 C 
BRANCH  13  14
ATOM     14  O   UNL     1       6.356   3.200  12.221  0.00  0.00    +0.000 OA
BRANCH  14  16
ATOM     15  C   UNL     1       4.208   3.087  11.191  0.00  0.00    +0.000 C 
ATOM     16  C   UNL     1       5.456   2.308  11.568  0.00  0.00    +0.000 C 
ENDBRANCH  14  16
ENDBRANCH  13  14
ENDBRANCH  10  13
ENDBRANCH   9  10
ENDBRANCH   1   9
BRANCH   5  17
ATOM     17  C   UNL     1       1.643   4.345  19.086  0.00  0.00    +0.000 C 
BRANCH  17  18
ATOM     18  C   UNL     1       1.956   3.057  19.895  0.00  0.00    +0.000 C 
ATOM     19  C   UNL     1       3.402   3.067  20.423  0.00  0.00    +0.000 C 
ATOM     20  C   UNL     1       1.014   3.005  21.119  0.00  0.00    +0.000 C 
ATOM     21  C   UNL     1       1.695   1.791  19.059  0.00  0.00    +0.000 C 
ENDBRANCH  17  18
ENDBRANCH   5  17
TORSDOF 8
ENDMDL
MODEL 5
REMARK VINA RESULT:      -6.2      3.257      5.045
REMARK  Name = 
REMARK  12 active torsions:
REMARK  status: ('A' for Active; 'I' for Inactive)
REMARK    1  A    between atoms: C_1  and  C_2
REMARK    2  A    between atoms: C_2  and  O_3
REMARK    3  A    between atoms: O_3  and  C_4
REMARK    4  A    between atoms: C_4  and  C_5
REMARK    5  A    between atoms: C_5  and  O_6
REMARK    6  A    between atoms: C_5  and  C_7
REMARK    7  A    between atoms: C_7  and  N_8
REMARK    8  A    between atoms: C_12  and  C_14
REMARK    9  A    between atoms: C_14  and  C_15
REMARK   10  A    between atoms: C_15  and  C_16
REMARK   11  A    between atoms: C_15  and  C_17
REMARK   12  A    between atoms: C_15  and  C_18
REMARK                            x       y       z     vdW  Elec       q    Type
REMARK                         _______ _______ _______ _____ _____    ______ ____
ROOT
ATOM      1  N   UNL     1       6.960   6.072  17.668  0.00  0.00    +0.000 NA
ATOM      2  C   UNL     1       5.794   6.861  17.206  0.00  0.00    +0.000 C 
ATOM      3  C   UNL     1       4.410   6.198  17.354  0.00  0.00    +0.000 C 
ATOM      4  N   UNL     1       4.212   5.567  18.665  0.00  0.00    +0.000 N 
ATOM      5  C   UNL     1       2.914   5.456  19.145  0.00  0.00    +0.000 C 
ATOM      6  O   UNL     1       1.975   5.929  18.514  0.00  0.00    +0.000 OA
ATOM      7  C   UNL     1       5.339   4.761  19.133  0.00  0.00    +0.000 C 
ATOM      8  C   UNL     1       6.663   5.532  19.018  0.00  0.00    +0.000 C 
ENDROOT
BRANCH   1   9
ATOM      9  C   UNL     1       7.336   4.988  16.748  0.00  0.00    +0.000 C 
BRANCH   9  10
ATOM     10  C   UNL     1       6.268   4.529  15.734  0.00  0.00    +0.000 C 
BRANCH  10  11
ATOM     11  O   UNL     1       5.870   3.201  16.124  0.00  0.00    +0.000 OA
ATOM     12  H   UNL     1       6.209   3.042  17.021  0.00  0.00    +0.000 HD
ENDBRANCH  10  11
BRANCH  10  13
ATOM     13  C   UNL     1       6.767   4.539  14.276  0.00  0.00    +0.000 C 
BRANCH  13  14
ATOM     14  O   UNL     1       6.022   3.567  13.533  0.00  0.00    +0.000 OA
BRANCH  14  16
ATOM     15  C   UNL     1       5.770   2.277  11.543  0.00  0.00    +0.000 C 
ATOM     16  C   UNL     1       6.433   3.490  12.170  0.00  0.00    +0.000 C 
ENDBRANCH  14  16
ENDBRANCH  13  14
ENDBRANCH  10  13
ENDBRANCH   9  10
ENDBRANCH   1   9
BRANCH   5  17
ATOM     17  C   UNL     1       2.719   4.753  20.488  0.00  0.00    +0.000 C 
BRANCH  17  18
ATOM     18  C   UNL     1       2.321   3.252  20.439  0.00  0.00    +0.000 C 
ATOM     19  C   UNL     1       3.549   2.343  20.630  0.00  0.00    +0.000 C 
ATOM     20  C   UNL     1       1.345   2.965  21.601  0.00  0.00    +0.000 C 
ATOM     21  C   UNL     1       1.592   2.906  19.129  0.00  0.00    +0.000 C 
ENDBRANCH  17  18
ENDBRANCH   5  17
TORSDOF 8
ENDMDL
MODEL 6
REMARK VINA RESULT:      -6.2      3.185      5.276
REMARK  Name = 
REMARK  12 active torsions:
REMARK  status: ('A' for Active; 'I' for Inactive)
REMARK    1  A    between atoms: C_1  and  C_2
REMARK    2  A    between atoms: C_2  and  O_3
REMARK    3  A    between atoms: O_3  and  C_4
REMARK    4  A    between atoms: C_4  and  C_5
REMARK    5  A    between atoms: C_5  and  O_6
REMARK    6  A    between atoms: C_5  and  C_7
REMARK    7  A    between atoms: C_7  and  N_8
REMARK    8  A    between atoms: C_12  and  C_14
REMARK    9  A    between atoms: C_14  and  C_15
REMARK   10  A    between atoms: C_15  and  C_16
REMARK   11  A    between atoms: C_15  and  C_17
REMARK   12  A    between atoms: C_15  and  C_18
REMARK                            x       y       z     vdW  Elec       q    Type
REMARK                         _______ _______ _______ _____ _____    ______ ____
ROOT
ATOM      1  N   UNL     1       6.359   5.537  16.764  0.00  0.00    +0.000 NA
ATOM      2  C   UNL     1       5.540   6.739  17.047  0.00  0.00    +0.000 C 
ATOM      3  C   UNL     1       4.110   6.492  17.568  0.00  0.00    +0.000 C 
ATOM      4  N   UNL     1       4.051   5.476  18.626  0.00  0.00    +0.000 N 
ATOM      5  C   UNL     1       3.015   5.555  19.548  0.00  0.00    +0.000 C 
ATOM      6  O   UNL     1       2.216   6.484  19.507  0.00  0.00    +0.000 OA
ATOM      7  C   UNL     1       4.831   4.268  18.360  0.00  0.00    +0.000 C 
ATOM      8  C   UNL     1       6.262   4.614  17.922  0.00  0.00    +0.000 C 
ENDROOT
BRANCH   1   9
ATOM      9  C   UNL     1       5.981   4.850  15.520  0.00  0.00    +0.000 C 
BRANCH   9  10
ATOM     10  C   UNL     1       7.108   4.575  14.503  0.00  0.00    +0.000 C 
BRANCH  10  11
ATOM     11  O   UNL     1       7.958   5.738  14.500  0.00  0.00    +0.000 OA
ATOM     12  H   UNL     1       8.539   5.681  15.277  0.00  0.00    +0.000 HD
ENDBRANCH  10  11
BRANCH  10  13
ATOM     13  C   UNL     1       6.589   4.280  13.082  0.00  0.00    +0.000 C 
BRANCH  13  14
ATOM     14  O   UNL     1       5.918   3.015  13.095  0.00  0.00    +0.000 OA
BRANCH  14  16
ATOM     15  C   UNL     1       4.265   3.387  11.417  0.00  0.00    +0.000 C 
ATOM     16  C   UNL     1       5.508   2.601  11.794  0.00  0.00    +0.000 C 
ENDBRANCH  14  16
ENDBRANCH  13  14
ENDBRANCH  10  13
ENDBRANCH   9  10
ENDBRANCH   1   9
BRANCH   5  17
ATOM     17  C   UNL     1       2.939   4.463  20.614  0.00  0.00    +0.000 C 
BRANCH  17  18
ATOM     18  C   UNL     1       1.969   3.282  20.335  0.00  0.00    +0.000 C 
ATOM     19  C   UNL     1       2.625   2.222  19.432  0.00  0.00    +0.000 C 
ATOM     20  C   UNL     1       1.626   2.600  21.679  0.00  0.00    +0.000 C 
ATOM     21  C   UNL     1       0.647   3.774  19.719  0.00  0.00    +0.000 C 
ENDBRANCH  17  18
ENDBRANCH   5  17
TORSDOF 8
ENDMDL
MODEL 7
REMARK VINA RESULT:      -6.1      1.024      1.563
REMARK  Name = 
REMARK  12 active torsions:
REMARK  status: ('A' for Active; 'I' for Inactive)
REMARK    1  A    between atoms: C_1  and  C_2
REMARK    2  A    between atoms: C_2  and  O_3
REMARK    3  A    between atoms: O_3  and  C_4
REMARK    4  A    between atoms: C_4  and  C_5
REMARK    5  A    between atoms: C_5  and  O_6
REMARK    6  A    between atoms: C_5  and  C_7
REMARK    7  A    between atoms: C_7  and  N_8
REMARK    8  A    between atoms: C_12  and  C_14
REMARK    9  A    between atoms: C_14  and  C_15
REMARK   10  A    between atoms: C_15  and  C_16
REMARK   11  A    between atoms: C_15  and  C_17
REMARK   12  A    between atoms: C_15  and  C_18
REMARK                            x       y       z     vdW  Elec       q    Type
REMARK                         _______ _______ _______ _____ _____    ______ ____
ROOT
ATOM      1  N   UNL     1       6.112   6.845  16.852  0.00  0.00    +0.000 NA
ATOM      2  C   UNL     1       6.779   5.559  17.165  0.00  0.00    +0.000 C 
ATOM      3  C   UNL     1       6.327   4.843  18.453  0.00  0.00    +0.000 C 
ATOM      4  N   UNL     1       4.868   4.802  18.607  0.00  0.00    +0.000 N 
ATOM      5  C   UNL     1       4.320   3.759  19.342  0.00  0.00    +0.000 C 
ATOM      6  O   UNL     1       5.036   2.872  19.792  0.00  0.00    +0.000 OA
ATOM      7  C   UNL     1       4.187   6.066  18.329  0.00  0.00    +0.000 C 
ATOM      8  C   UNL     1       4.646   6.664  16.990  0.00  0.00    +0.000 C 
ENDROOT
BRANCH   1   9
ATOM      9  C   UNL     1       6.577   7.964  17.685  0.00  0.00    +0.000 C 
BRANCH   9  10
ATOM     10  C   UNL     1       8.101   8.184  17.774  0.00  0.00    +0.000 C 
BRANCH  10  11
ATOM     11  O   UNL     1       8.557   7.460  18.933  0.00  0.00    +0.000 OA
ATOM     12  H   UNL     1       8.199   7.905  19.719  0.00  0.00    +0.000 HD
ENDBRANCH  10  11
BRANCH  10  13
ATOM     13  C   UNL     1       8.499   9.670  17.872  0.00  0.00    +0.000 C 
BRANCH  13  14
ATOM     14  O   UNL     1       9.063   9.906  19.167  0.00  0.00    +0.000 OA
BRANCH  14  16
ATOM     15  C   UNL     1       9.327  12.275  19.242  0.00  0.00    +0.000 C 
ATOM     16  C   UNL     1      10.045  10.940  19.153  0.00  0.00    +0.000 C 
ENDBRANCH  14  16
ENDBRANCH  13  14
ENDBRANCH  10  13
ENDBRANCH   9  10
ENDBRANCH   1   9
BRANCH   5  17
ATOM     17  C   UNL     1       2.803   3.757  19.534  0.00  0.00    +0.000 C 
BRANCH  17  18
ATOM     18  C   UNL     1       1.957   3.101  18.408  0.00  0.00    +0.000 C 
ATOM     19  C   UNL     1       0.748   2.345  18.988  0.00  0.00    +0.000 C 
ATOM     20  C   UNL     1       1.412   4.218  17.491  0.00  0.00    +0.000 C 
ATOM     21  C   UNL     1       2.813   2.165  17.536  0.00  0.00    +0.000 C 
ENDBRANCH  17  18
ENDBRANCH   5  17
TORSDOF 8
ENDMDL
MODEL 8
REMARK VINA RESULT:      -6.1      3.394      5.392
REMARK  Name = 
REMARK  12 active torsions:
REMARK  status: ('A' for Active; 'I' for Inactive)
REMARK    1  A    between atoms: C_1  and  C_2
REMARK    2  A    between atoms: C_2  and  O_3
REMARK    3  A    between atoms: O_3  and  C_4
REMARK    4  A    between atoms: C_4  and  C_5
REMARK    5  A    between atoms: C_5  and  O_6
REMARK    6  A    between atoms: C_5  and  C_7
REMARK    7  A    between atoms: C_7  and  N_8
REMARK    8  A    between atoms: C_12  and  C_14
REMARK    9  A    between atoms: C_14  and  C_15
REMARK   10  A    between atoms: C_15  and  C_16
REMARK   11  A    between atoms: C_15  and  C_17
REMARK   12  A    between atoms: C_15  and  C_18
REMARK                            x       y       z     vdW  Elec       q    Type
REMARK                         _______ _______ _______ _____ _____    ______ ____
ROOT
ATOM      1  N   UNL     1       6.226   5.806  16.596  0.00  0.00    +0.000 NA
ATOM      2  C   UNL     1       5.424   6.955  17.080  0.00  0.00    +0.000 C 
ATOM      3  C   UNL     1       4.043   6.625  17.682  0.00  0.00    +0.000 C 
ATOM      4  N   UNL     1       4.078   5.494  18.617  0.00  0.00    +0.000 N 
ATOM      5  C   UNL     1       3.120   5.450  19.622  0.00  0.00    +0.000 C 
ATOM      6  O   UNL     1       2.314   6.364  19.752  0.00  0.00    +0.000 OA
ATOM      7  C   UNL     1       4.843   4.338  18.152  0.00  0.00    +0.000 C 
ATOM      8  C   UNL     1       6.231   4.755  17.643  0.00  0.00    +0.000 C 
ENDROOT
BRANCH   1   9
ATOM      9  C   UNL     1       5.754   5.260  15.315  0.00  0.00    +0.000 C 
BRANCH   9  10
ATOM     10  C   UNL     1       6.812   4.618  14.395  0.00  0.00    +0.000 C 
BRANCH  10  11
ATOM     11  O   UNL     1       7.895   5.562  14.287  0.00  0.00    +0.000 OA
ATOM     12  H   UNL     1       8.727   5.072  14.401  0.00  0.00    +0.000 HD
ENDBRANCH  10  11
BRANCH  10  13
ATOM     13  C   UNL     1       6.269   4.257  12.998  0.00  0.00    +0.000 C 
BRANCH  13  14
ATOM     14  O   UNL     1       6.179   2.831  12.899  0.00  0.00    +0.000 OA
BRANCH  14  16
ATOM     15  C   UNL     1       6.514   1.336  11.072  0.00  0.00    +0.000 C 
ATOM     16  C   UNL     1       5.612   2.405  11.663  0.00  0.00    +0.000 C 
ENDBRANCH  14  16
ENDBRANCH  13  14
ENDBRANCH  10  13
ENDBRANCH   9  10
ENDBRANCH   1   9
BRANCH   5  17
ATOM     17  C   UNL     1       3.139   4.242  20.558  0.00  0.00    +0.000 C 
BRANCH  17  18
ATOM     18  C   UNL     1       1.980   3.220  20.402  0.00  0.00    +0.000 C 
ATOM     19  C   UNL     1       1.671   2.518  21.737  0.00  0.00    +0.000 C 
ATOM     20  C   UNL     1       0.707   3.983  19.973  0.00  0.00    +0.000 C 
ATOM     21  C   UNL     1       2.287   2.184  19.306  0.00  0.00    +0.000 C 
ENDBRANCH  17  18
ENDBRANCH   5  17
TORSDOF 8
ENDMDL
MODEL 9
REMARK VINA RESULT:      -6.1      2.853      4.264
REMARK  Name = 
REMARK  12 active torsions:
REMARK  status: ('A' for Active; 'I' for Inactive)
REMARK    1  A    between atoms: C_1  and  C_2
REMARK    2  A    between atoms: C_2  and  O_3
REMARK    3  A    between atoms: O_3  and  C_4
REMARK    4  A    between atoms: C_4  and  C_5
REMARK    5  A    between atoms: C_5  and  O_6
REMARK    6  A    between atoms: C_5  and  C_7
REMARK    7  A    between atoms: C_7  and  N_8
REMARK    8  A    between atoms: C_12  and  C_14
REMARK    9  A    between atoms: C_14  and  C_15
REMARK   10  A    between atoms: C_15  and  C_16
REMARK   11  A    between atoms: C_15  and  C_17
REMARK   12  A    between atoms: C_15  and  C_18
REMARK                            x       y       z     vdW  Elec       q    Type
REMARK                         _______ _______ _______ _____ _____    ______ ____
ROOT
ATOM      1  N   UNL     1       5.348   6.340  17.359  0.00  0.00    +0.000 NA
ATOM      2  C   UNL     1       4.474   5.533  16.475  0.00  0.00    +0.000 C 
ATOM      3  C   UNL     1       4.296   4.049  16.850  0.00  0.00    +0.000 C 
ATOM      4  N   UNL     1       4.038   3.843  18.281  0.00  0.00    +0.000 N 
ATOM      5  C   UNL     1       3.319   2.717  18.657  0.00  0.00    +0.000 C 
ATOM      6  O   UNL     1       2.865   1.957  17.809  0.00  0.00    +0.000 OA
ATOM      7  C   UNL     1       4.905   4.609  19.175  0.00  0.00    +0.000 C 
ATOM      8  C   UNL     1       4.958   6.090  18.769  0.00  0.00    +0.000 C 
ENDROOT
BRANCH   1   9
ATOM      9  C   UNL     1       6.781   6.078  17.163  0.00  0.00    +0.000 C 
BRANCH   9  10
ATOM     10  C   UNL     1       7.158   4.836  16.328  0.00  0.00    +0.000 C 
BRANCH  10  11
ATOM     11  O   UNL     1       8.085   4.070  17.119  0.00  0.00    +0.000 OA
ATOM     12  H   UNL     1       8.980   4.391  16.920  0.00  0.00    +0.000 HD
ENDBRANCH  10  11
BRANCH  10  13
ATOM     13  C   UNL     1       7.774   5.186  14.959  0.00  0.00    +0.000 C 
BRANCH  13  14
ATOM     14  O   UNL     1       6.754   5.082  13.959  0.00  0.00    +0.000 OA
BRANCH  14  16
ATOM     15  C   UNL     1       6.027   3.508  12.322  0.00  0.00    +0.000 C 
ATOM     16  C   UNL     1       6.281   3.746  13.799  0.00  0.00    +0.000 C 
ENDBRANCH  14  16
ENDBRANCH  13  14
ENDBRANCH  10  13
ENDBRANCH   9  10
ENDBRANCH   1   9
BRANCH   5  17
ATOM     17  C   UNL     1       3.100   2.491  20.153  0.00  0.00    +0.000 C 
BRANCH  17  18
ATOM     18  C   UNL     1       1.820   3.115  20.774  0.00  0.00    +0.000 C 
ATOM     19  C   UNL     1       1.409   2.379  22.062  0.00  0.00    +0.000 C 
ATOM     20  C   UNL     1       2.123   4.581  21.152  0.00  0.00    +0.000 C 
ATOM     21  C   UNL     1       0.656   3.129  19.766  0.00  0.00    +0.000 C 
ENDBRANCH  17  18
ENDBRANCH   5  17
TORSDOF 8
ENDMDL
