MODEL 1
REMARK VINA RESULT:      -8.1      0.000      0.000
REMARK  Name = 
REMARK  8 active torsions:
REMARK  status: ('A' for Active; 'I' for Inactive)
REMARK    1  A    between atoms: C_1  and  C_2
REMARK    2  A    between atoms: C_6  and  C_7
REMARK    3  A    between atoms: C_7  and  C_8
REMARK    4  A    between atoms: C_8  and  N_9
REMARK    5  A    between atoms: C_8  and  C_20
REMARK    6  A    between atoms: C_10  and  C_12
REMARK    7  A    between atoms: N_22  and  C_23
REMARK    8  A    between atoms: C_23  and  C_24
REMARK                            x       y       z     vdW  Elec       q    Type
REMARK                         _______ _______ _______ _____ _____    ______ ____
ROOT
ATOM      1  C   UNL     1       4.783   4.684  17.047  0.00  0.00    +0.000 C 
ENDROOT
BRANCH   1   2
ATOM      2  N   UNL     1       3.858   5.800  17.354  0.00  0.00    +0.000 N 
ATOM      3  C   UNL     1       3.710   6.314  18.627  0.00  0.00    +0.000 C 
ATOM      4  O   UNL     1       4.296   5.886  19.609  0.00  0.00    +0.000 OA
ATOM      5  H   UNL     1       3.640   6.414  16.578  0.00  0.00    +0.000 HD
BRANCH   3   6
ATOM      6  C   UNL     1       2.754   7.472  18.776  0.00  0.00    +0.000 A 
ATOM      7  C   UNL     1       2.482   8.350  17.713  0.00  0.00    +0.000 A 
ATOM      8  C   UNL     1       1.553   9.384  17.871  0.00  0.00    +0.000 A 
ATOM      9  C   UNL     1       0.877   9.553  19.082  0.00  0.00    +0.000 A 
ATOM     10 CL   UNL     1      -0.261  10.849  19.189  0.00  0.00    +0.000 Cl
ATOM     11  C   UNL     1       1.131   8.677  20.142  0.00  0.00    +0.000 A 
ATOM     12 CL   UNL     1       0.321   8.818  21.661  0.00  0.00    +0.000 Cl
ATOM     13  C   UNL     1       2.065   7.640  19.988  0.00  0.00    +0.000 A 
ENDBRANCH   3   6
ENDBRANCH   1   2
BRANCH   1  14
ATOM     14  C   UNL     1       5.457   5.024  15.679  0.00  0.00    +0.000 C 
ATOM     15  O   UNL     1       5.431   6.173  15.233  0.00  0.00    +0.000 OA
ATOM     16  N   UNL     1       5.890   3.979  14.886  0.00  0.00    +0.000 N 
ATOM     17  H   UNL     1       6.022   3.069  15.308  0.00  0.00    +0.000 HD
BRANCH  16  18
ATOM     18  C   UNL     1       6.552   4.241  13.598  0.00  0.00    +0.000 C 
BRANCH  18  19
ATOM     19  C   UNL     1       6.063   3.297  12.511  0.00  0.00    +0.000 C 
ATOM     20  N   UNL     1       5.657   2.515  11.610  0.00  0.00    +0.000 NA
ENDBRANCH  18  19
ENDBRANCH  16  18
ENDBRANCH   1  14
BRANCH   1  21
ATOM     21  C   UNL     1       4.086   3.311  17.110  0.00  0.00    +0.000 C 
BRANCH  21  27
ATOM     22  C   UNL     1       2.402   2.537  21.863  0.00  0.00    +0.000 C 
ATOM     23  C   UNL     1       2.151   2.703  20.389  0.00  0.00    +0.000 A 
ATOM     24  C   UNL     1       0.838   2.821  19.924  0.00  0.00    +0.000 A 
ATOM     25  C   UNL     1       0.592   3.164  18.599  0.00  0.00    +0.000 A 
ATOM     26  C   UNL     1       1.656   3.349  17.718  0.00  0.00    +0.000 A 
ATOM     27  C   UNL     1       2.980   3.133  18.131  0.00  0.00    +0.000 A 
ATOM     28  C   UNL     1       3.220   2.847  19.485  0.00  0.00    +0.000 A 
ENDBRANCH  21  27
ENDBRANCH   1  21
TORSDOF 7
ENDMDL
MODEL 2
REMARK VINA RESULT:      -7.9      2.741      5.539
REMARK  Name = 
REMARK  8 active torsions:
REMARK  status: ('A' for Active; 'I' for Inactive)
REMARK    1  A    between atoms: C_1  and  C_2
REMARK    2  A    between atoms: C_6  and  C_7
REMARK    3  A    between atoms: C_7  and  C_8
REMARK    4  A    between atoms: C_8  and  N_9
REMARK    5  A    between atoms: C_8  and  C_20
REMARK    6  A    between atoms: C_10  and  C_12
REMARK    7  A    between atoms: N_22  and  C_23
REMARK    8  A    between atoms: C_23  and  C_24
REMARK                            x       y       z     vdW  Elec       q    Type
REMARK                         _______ _______ _______ _____ _____    ______ ____
ROOT
ATOM      1  C   UNL     1       2.937   6.560  17.862  0.00  0.00    +0.000 C 
ENDROOT
BRANCH   1   2
ATOM      2  N   UNL     1       2.201   7.344  18.881  0.00  0.00    +0.000 N 
ATOM      3  C   UNL     1       1.722   8.616  18.637  0.00  0.00    +0.000 C 
ATOM      4  O   UNL     1       1.884   9.217  17.586  0.00  0.00    +0.000 OA
ATOM      5  H   UNL     1       1.730   6.801  19.595  0.00  0.00    +0.000 HD
BRANCH   3   6
ATOM      6  C   UNL     1       0.964   9.275  19.763  0.00  0.00    +0.000 A 
ATOM      7  C   UNL     1       1.084   8.836  21.093  0.00  0.00    +0.000 A 
ATOM      8  C   UNL     1       0.404   9.500  22.120  0.00  0.00    +0.000 A 
ATOM      9  C   UNL     1      -0.396  10.611  21.840  0.00  0.00    +0.000 A 
ATOM     10 CL   UNL     1      -1.192  11.378  23.167  0.00  0.00    +0.000 Cl
ATOM     11  C   UNL     1      -0.512  11.063  20.522  0.00  0.00    +0.000 A 
ATOM     12 CL   UNL     1      -1.471  12.439  20.106  0.00  0.00    +0.000 Cl
ATOM     13  C   UNL     1       0.167  10.397  19.488  0.00  0.00    +0.000 A 
ENDBRANCH   3   6
ENDBRANCH   1   2
BRANCH   1  14
ATOM     14  C   UNL     1       2.799   5.058  18.267  0.00  0.00    +0.000 C 
ATOM     15  O   UNL     1       1.998   4.321  17.688  0.00  0.00    +0.000 OA
ATOM     16  N   UNL     1       3.432   4.630  19.418  0.00  0.00    +0.000 N 
ATOM     17  H   UNL     1       4.175   5.197  19.805  0.00  0.00    +0.000 HD
BRANCH  16  18
ATOM     18  C   UNL     1       3.355   3.220  19.836  0.00  0.00    +0.000 C 
BRANCH  18  19
ATOM     19  C   UNL     1       2.525   3.051  21.097  0.00  0.00    +0.000 C 
ATOM     20  N   UNL     1       1.836   2.910  22.143  0.00  0.00    +0.000 NA
ENDBRANCH  18  19
ENDBRANCH  16  18
ENDBRANCH   1  14
BRANCH   1  21
ATOM     21  C   UNL     1       4.384   7.057  17.673  0.00  0.00    +0.000 C 
BRANCH  21  27
ATOM     22  C   UNL     1       6.249   4.179  13.896  0.00  0.00    +0.000 C 
ATOM     23  C   UNL     1       6.268   4.648  15.325  0.00  0.00    +0.000 A 
ATOM     24  C   UNL     1       7.325   4.271  16.159  0.00  0.00    +0.000 A 
ATOM     25  C   UNL     1       7.463   4.843  17.419  0.00  0.00    +0.000 A 
ATOM     26  C   UNL     1       6.520   5.763  17.872  0.00  0.00    +0.000 A 
ATOM     27  C   UNL     1       5.391   6.080  17.100  0.00  0.00    +0.000 A 
ATOM     28  C   UNL     1       5.294   5.543  15.806  0.00  0.00    +0.000 A 
ENDBRANCH  21  27
ENDBRANCH   1  21
TORSDOF 7
ENDMDL
MODEL 3
REMARK VINA RESULT:      -7.9      2.741      5.413
REMARK  Name = 
REMARK  8 active torsions:
REMARK  status: ('A' for Active; 'I' for Inactive)
REMARK    1  A    between atoms: C_1  and  C_2
REMARK    2  A    between atoms: C_6  and  C_7
REMARK    3  A    between atoms: C_7  and  C_8
REMARK    4  A    between atoms: C_8  and  N_9
REMARK    5  A    between atoms: C_8  and  C_20
REMARK    6  A    between atoms: C_10  and  C_12
REMARK    7  A    between atoms: N_22  and  C_23
REMARK    8  A    between atoms: C_23  and  C_24
REMARK                            x       y       z     vdW  Elec       q    Type
REMARK                         _______ _______ _______ _____ _____    ______ ____
ROOT
ATOM      1  C   UNL     1       2.936   6.750  17.846  0.00  0.00    +0.000 C 
ENDROOT
BRANCH   1   2
ATOM      2  N   UNL     1       2.150   7.619  18.753  0.00  0.00    +0.000 N 
ATOM      3  C   UNL     1       1.739   8.888  18.394  0.00  0.00    +0.000 C 
ATOM      4  O   UNL     1       2.005   9.416  17.326  0.00  0.00    +0.000 OA
ATOM      5  H   UNL     1       1.605   7.137  19.457  0.00  0.00    +0.000 HD
BRANCH   3   6
ATOM      6  C   UNL     1       0.918   9.639  19.413  0.00  0.00    +0.000 A 
ATOM      7  C   UNL     1       0.055  10.684  19.043  0.00  0.00    +0.000 A 
ATOM      8  C   UNL     1      -0.728  11.328  20.008  0.00  0.00    +0.000 A 
ATOM      9  C   UNL     1      -0.671  10.936  21.347  0.00  0.00    +0.000 A 
ATOM     10 CL   UNL     1      -1.678  11.776  22.471  0.00  0.00    +0.000 Cl
ATOM     11  C   UNL     1       0.175   9.888  21.724  0.00  0.00    +0.000 A 
ATOM     12 CL   UNL     1       0.285   9.342  23.359  0.00  0.00    +0.000 Cl
ATOM     13  C   UNL     1       0.966   9.243  20.759  0.00  0.00    +0.000 A 
ENDBRANCH   3   6
ENDBRANCH   1   2
BRANCH   1  14
ATOM     14  C   UNL     1       2.548   5.277  18.190  0.00  0.00    +0.000 C 
ATOM     15  O   UNL     1       1.566   4.746  17.667  0.00  0.00    +0.000 OA
ATOM     16  N   UNL     1       3.196   4.659  19.243  0.00  0.00    +0.000 N 
ATOM     17  H   UNL     1       4.069   5.047  19.574  0.00  0.00    +0.000 HD
BRANCH  16  18
ATOM     18  C   UNL     1       2.886   3.264  19.598  0.00  0.00    +0.000 C 
BRANCH  18  19
ATOM     19  C   UNL     1       2.422   3.139  21.040  0.00  0.00    +0.000 C 
ATOM     20  N   UNL     1       2.037   3.035  22.235  0.00  0.00    +0.000 NA
ENDBRANCH  18  19
ENDBRANCH  16  18
ENDBRANCH   1  14
BRANCH   1  21
ATOM     21  C   UNL     1       4.446   7.059  17.900  0.00  0.00    +0.000 C 
BRANCH  21  27
ATOM     22  C   UNL     1       5.992   4.223  13.952  0.00  0.00    +0.000 C 
ATOM     23  C   UNL     1       6.112   4.657  15.387  0.00  0.00    +0.000 A 
ATOM     24  C   UNL     1       7.207   4.232  16.145  0.00  0.00    +0.000 A 
ATOM     25  C   UNL     1       7.439   4.770  17.406  0.00  0.00    +0.000 A 
ATOM     26  C   UNL     1       6.552   5.704  17.938  0.00  0.00    +0.000 A 
ATOM     27  C   UNL     1       5.388   6.069  17.244  0.00  0.00    +0.000 A 
ATOM     28  C   UNL     1       5.196   5.567  15.947  0.00  0.00    +0.000 A 
ENDBRANCH  21  27
ENDBRANCH   1  21
TORSDOF 7
ENDMDL
MODEL 4
REMARK VINA RESULT:      -7.7      2.498      4.986
REMARK  Name = 
REMARK  8 active torsions:
REMARK  status: ('A' for Active; 'I' for Inactive)
REMARK    1  A    between atoms: C_1  and  C_2
REMARK    2  A    between atoms: C_6  and  C_7
REMARK    3  A    between atoms: C_7  and  C_8
REMARK    4  A    between atoms: C_8  and  N_9
REMARK    5  A    between atoms: C_8  and  C_20
REMARK    6  A    between atoms: C_10  and  C_12
REMARK    7  A    between atoms: N_22  and  C_23
REMARK    8  A    between atoms: C_23  and  C_24
REMARK                            x       y       z     vdW  Elec       q    Type
REMARK                         _______ _______ _______ _____ _____    ______ ____
ROOT
ATOM      1  C   UNL     1       2.897   6.766  18.099  0.00  0.00    +0.000 C 
ENDROOT
BRANCH   1   2
ATOM      2  N   UNL     1       2.179   7.735  18.959  0.00  0.00    +0.000 N 
ATOM      3  C   UNL     1       1.716   8.947  18.486  0.00  0.00    +0.000 C 
ATOM      4  O   UNL     1       1.879   9.341  17.341  0.00  0.00    +0.000 OA
ATOM      5  H   UNL     1       1.705   7.340  19.762  0.00  0.00    +0.000 HD
BRANCH   3   6
ATOM      6  C   UNL     1       0.974   9.814  19.474  0.00  0.00    +0.000 A 
ATOM      7  C   UNL     1       0.391  11.035  19.096  0.00  0.00    +0.000 A 
ATOM      8  C   UNL     1      -0.331  11.791  20.026  0.00  0.00    +0.000 A 
ATOM      9  C   UNL     1      -0.490  11.338  21.339  0.00  0.00    +0.000 A 
ATOM     10 CL   UNL     1      -1.405  12.327  22.420  0.00  0.00    +0.000 Cl
ATOM     11  C   UNL     1       0.074  10.118  21.721  0.00  0.00    +0.000 A 
ATOM     12 CL   UNL     1      -0.095   9.491  23.322  0.00  0.00    +0.000 Cl
ATOM     13  C   UNL     1       0.804   9.359  20.791  0.00  0.00    +0.000 A 
ENDBRANCH   3   6
ENDBRANCH   1   2
BRANCH   1  14
ATOM     14  C   UNL     1       2.689   5.357  18.741  0.00  0.00    +0.000 C 
ATOM     15  O   UNL     1       3.370   4.997  19.704  0.00  0.00    +0.000 OA
ATOM     16  N   UNL     1       1.884   4.449  18.080  0.00  0.00    +0.000 N 
ATOM     17  H   UNL     1       1.242   4.789  17.376  0.00  0.00    +0.000 HD
BRANCH  16  18
ATOM     18  C   UNL     1       1.634   3.115  18.649  0.00  0.00    +0.000 C 
BRANCH  18  19
ATOM     19  C   UNL     1       2.757   2.144  18.324  0.00  0.00    +0.000 C 
ATOM     20  N   UNL     1       3.689   1.339  18.055  0.00  0.00    +0.000 NA
ENDBRANCH  18  19
ENDBRANCH  16  18
ENDBRANCH   1  14
BRANCH   1  21
ATOM     21  C   UNL     1       4.367   7.167  17.865  0.00  0.00    +0.000 C 
BRANCH  21  27
ATOM     22  C   UNL     1       5.783   4.158  13.996  0.00  0.00    +0.000 C 
ATOM     23  C   UNL     1       5.943   4.647  15.410  0.00  0.00    +0.000 A 
ATOM     24  C   UNL     1       7.051   4.237  16.158  0.00  0.00    +0.000 A 
ATOM     25  C   UNL     1       7.320   4.822  17.390  0.00  0.00    +0.000 A 
ATOM     26  C   UNL     1       6.458   5.787  17.906  0.00  0.00    +0.000 A 
ATOM     27  C   UNL     1       5.281   6.140  17.226  0.00  0.00    +0.000 A 
ATOM     28  C   UNL     1       5.052   5.590  15.955  0.00  0.00    +0.000 A 
ENDBRANCH  21  27
ENDBRANCH   1  21
TORSDOF 7
ENDMDL
MODEL 5
REMARK VINA RESULT:      -7.6      1.248      1.372
REMARK  Name = 
REMARK  8 active torsions:
REMARK  status: ('A' for Active; 'I' for Inactive)
REMARK    1  A    between atoms: C_1  and  C_2
REMARK    2  A    between atoms: C_6  and  C_7
REMARK    3  A    between atoms: C_7  and  C_8
REMARK    4  A    between atoms: C_8  and  N_9
REMARK    5  A    between atoms: C_8  and  C_20
REMARK    6  A    between atoms: C_10  and  C_12
REMARK    7  A    between atoms: N_22  and  C_23
REMARK    8  A    between atoms: C_23  and  C_24
REMARK                            x       y       z     vdW  Elec       q    Type
REMARK                         _______ _______ _______ _____ _____    ______ ____
ROOT
ATOM      1  C   UNL     1       5.457   4.421  18.663  0.00  0.00    +0.000 C 
ENDROOT
BRANCH   1   2
ATOM      2  N   UNL     1       4.551   5.557  18.950  0.00  0.00    +0.000 N 
ATOM      3  C   UNL     1       3.854   6.220  17.958  0.00  0.00    +0.000 C 
ATOM      4  O   UNL     1       3.941   5.957  16.769  0.00  0.00    +0.000 OA
ATOM      5  H   UNL     1       4.162   5.581  19.884  0.00  0.00    +0.000 HD
BRANCH   3   6
ATOM      6  C   UNL     1       2.944   7.337  18.411  0.00  0.00    +0.000 A 
ATOM      7  C   UNL     1       2.586   8.392  17.555  0.00  0.00    +0.000 A 
ATOM      8  C   UNL     1       1.702   9.386  17.991  0.00  0.00    +0.000 A 
ATOM      9  C   UNL     1       1.157   9.337  19.277  0.00  0.00    +0.000 A 
ATOM     10 CL   UNL     1       0.066  10.597  19.731  0.00  0.00    +0.000 Cl
ATOM     11  C   UNL     1       1.496   8.283  20.131  0.00  0.00    +0.000 A 
ATOM     12 CL   UNL     1       0.849   8.152  21.727  0.00  0.00    +0.000 Cl
ATOM     13  C   UNL     1       2.387   7.287  19.698  0.00  0.00    +0.000 A 
ENDBRANCH   3   6
ENDBRANCH   1   2
BRANCH   1  14
ATOM     14  C   UNL     1       6.443   4.904  17.551  0.00  0.00    +0.000 C 
ATOM     15  O   UNL     1       7.248   5.811  17.774  0.00  0.00    +0.000 OA
ATOM     16  N   UNL     1       6.248   4.447  16.261  0.00  0.00    +0.000 N 
ATOM     17  H   UNL     1       5.680   3.624  16.116  0.00  0.00    +0.000 HD
BRANCH  16  18
ATOM     18  C   UNL     1       7.159   4.852  15.178  0.00  0.00    +0.000 C 
BRANCH  18  19
ATOM     19  C   UNL     1       6.751   4.250  13.843  0.00  0.00    +0.000 C 
ATOM     20  N   UNL     1       6.412   3.750  12.737  0.00  0.00    +0.000 NA
ENDBRANCH  18  19
ENDBRANCH  16  18
ENDBRANCH   1  14
BRANCH   1  21
ATOM     21  C   UNL     1       4.689   3.125  18.338  0.00  0.00    +0.000 C 
BRANCH  21  27
ATOM     22  C   UNL     1       1.385   2.689  22.200  0.00  0.00    +0.000 C 
ATOM     23  C   UNL     1       1.692   2.712  20.728  0.00  0.00    +0.000 A 
ATOM     24  C   UNL     1       0.641   2.724  19.806  0.00  0.00    +0.000 A 
ATOM     25  C   UNL     1       0.894   2.937  18.456  0.00  0.00    +0.000 A 
ATOM     26  C   UNL     1       2.205   3.096  18.010  0.00  0.00    +0.000 A 
ATOM     27  C   UNL     1       3.287   2.983  18.897  0.00  0.00    +0.000 A 
ATOM     28  C   UNL     1       3.017   2.829  20.266  0.00  0.00    +0.000 A 
ENDBRANCH  21  27
ENDBRANCH   1  21
TORSDOF 7
ENDMDL
MODEL 6
REMARK VINA RESULT:      -7.5      2.408      5.522
REMARK  Name = 
REMARK  8 active torsions:
REMARK  status: ('A' for Active; 'I' for Inactive)
REMARK    1  A    between atoms: C_1  and  C_2
REMARK    2  A    between atoms: C_6  and  C_7
REMARK    3  A    between atoms: C_7  and  C_8
REMARK    4  A    between atoms: C_8  and  N_9
REMARK    5  A    between atoms: C_8  and  C_20
REMARK    6  A    between atoms: C_10  and  C_12
REMARK    7  A    between atoms: N_22  and  C_23
REMARK    8  A    between atoms: C_23  and  C_24
REMARK                            x       y       z     vdW  Elec       q    Type
REMARK                         _______ _______ _______ _____ _____    ______ ____
ROOT
ATOM      1  C   UNL     1       4.879   5.057  17.562  0.00  0.00    +0.000 C 
ENDROOT
BRANCH   1   2
ATOM      2  N   UNL     1       4.156   6.278  17.988  0.00  0.00    +0.000 N 
ATOM      3  C   UNL     1       2.787   6.303  18.175  0.00  0.00    +0.000 C 
ATOM      4  O   UNL     1       2.053   5.347  17.980  0.00  0.00    +0.000 OA
ATOM      5  H   UNL     1       4.706   6.956  18.502  0.00  0.00    +0.000 HD
BRANCH   3   6
ATOM      6  C   UNL     1       2.199   7.612  18.642  0.00  0.00    +0.000 A 
ATOM      7  C   UNL     1       1.960   8.675  17.755  0.00  0.00    +0.000 A 
ATOM      8  C   UNL     1       1.369   9.858  18.213  0.00  0.00    +0.000 A 
ATOM      9  C   UNL     1       0.999   9.995  19.554  0.00  0.00    +0.000 A 
ATOM     10 CL   UNL     1       0.266  11.483  20.034  0.00  0.00    +0.000 Cl
ATOM     11  C   UNL     1       1.220   8.938  20.441  0.00  0.00    +0.000 A 
ATOM     12 CL   UNL     1       0.775   9.032  22.108  0.00  0.00    +0.000 Cl
ATOM     13  C   UNL     1       1.818   7.751  19.986  0.00  0.00    +0.000 A 
ENDBRANCH   3   6
ENDBRANCH   1   2
BRANCH   1  14
ATOM     14  C   UNL     1       4.964   4.126  18.813  0.00  0.00    +0.000 C 
ATOM     15  O   UNL     1       5.954   4.148  19.547  0.00  0.00    +0.000 OA
ATOM     16  N   UNL     1       4.012   3.135  18.957  0.00  0.00    +0.000 N 
ATOM     17  H   UNL     1       3.150   3.207  18.432  0.00  0.00    +0.000 HD
BRANCH  16  18
ATOM     18  C   UNL     1       4.030   2.244  20.128  0.00  0.00    +0.000 C 
BRANCH  18  19
ATOM     19  C   UNL     1       2.986   2.644  21.158  0.00  0.00    +0.000 C 
ATOM     20  N   UNL     1       2.120   2.976  22.011  0.00  0.00    +0.000 NA
ENDBRANCH  18  19
ENDBRANCH  16  18
ENDBRANCH   1  14
BRANCH   1  21
ATOM     21  C   UNL     1       6.230   5.380  16.893  0.00  0.00    +0.000 C 
BRANCH  21  27
ATOM     22  C   UNL     1       8.486   5.781  12.334  0.00  0.00    +0.000 C 
ATOM     23  C   UNL     1       7.431   5.197  13.233  0.00  0.00    +0.000 A 
ATOM     24  C   UNL     1       6.634   4.147  12.767  0.00  0.00    +0.000 A 
ATOM     25  C   UNL     1       5.788   3.468  13.638  0.00  0.00    +0.000 A 
ATOM     26  C   UNL     1       5.699   3.863  14.971  0.00  0.00    +0.000 A 
ATOM     27  C   UNL     1       6.406   4.981  15.441  0.00  0.00    +0.000 A 
ATOM     28  C   UNL     1       7.303   5.620  14.570  0.00  0.00    +0.000 A 
ENDBRANCH  21  27
ENDBRANCH   1  21
TORSDOF 7
ENDMDL
MODEL 7
REMARK VINA RESULT:      -7.5      4.637      8.613
REMARK  Name = 
REMARK  8 active torsions:
REMARK  status: ('A' for Active; 'I' for Inactive)
REMARK    1  A    between atoms: C_1  and  C_2
REMARK    2  A    between atoms: C_6  and  C_7
REMARK    3  A    between atoms: C_7  and  C_8
REMARK    4  A    between atoms: C_8  and  N_9
REMARK    5  A    between atoms: C_8  and  C_20
REMARK    6  A    between atoms: C_10  and  C_12
REMARK    7  A    between atoms: N_22  and  C_23
REMARK    8  A    between atoms: C_23  and  C_24
REMARK                            x       y       z     vdW  Elec       q    Type
REMARK                         _______ _______ _______ _____ _____    ______ ____
ROOT
ATOM      1  C   UNL     1       0.300  10.567  19.191  0.00  0.00    +0.000 C 
ENDROOT
BRANCH   1   2
ATOM      2  N   UNL     1       1.051   9.291  19.256  0.00  0.00    +0.000 N 
ATOM      3  C   UNL     1       1.879   8.863  18.237  0.00  0.00    +0.000 C 
ATOM      4  O   UNL     1       2.045   9.471  17.191  0.00  0.00    +0.000 OA
ATOM      5  H   UNL     1       1.246   8.945  20.188  0.00  0.00    +0.000 HD
BRANCH   3   6
ATOM      6  C   UNL     1       2.601   7.557  18.463  0.00  0.00    +0.000 A 
ATOM      7  C   UNL     1       3.697   7.171  17.673  0.00  0.00    +0.000 A 
ATOM      8  C   UNL     1       4.373   5.976  17.941  0.00  0.00    +0.000 A 
ATOM      9  C   UNL     1       3.976   5.156  19.001  0.00  0.00    +0.000 A 
ATOM     10 CL   UNL     1       4.872   3.704  19.268  0.00  0.00    +0.000 Cl
ATOM     11  C   UNL     1       2.895   5.538  19.801  0.00  0.00    +0.000 A 
ATOM     12 CL   UNL     1       2.359   4.582  21.135  0.00  0.00    +0.000 Cl
ATOM     13  C   UNL     1       2.211   6.735  19.532  0.00  0.00    +0.000 A 
ENDBRANCH   3   6
ENDBRANCH   1   2
BRANCH   1  14
ATOM     14  C   UNL     1       1.004  11.551  20.179  0.00  0.00    +0.000 C 
ATOM     15  O   UNL     1       1.237  11.216  21.342  0.00  0.00    +0.000 OA
ATOM     16  N   UNL     1       1.164  12.867  19.788  0.00  0.00    +0.000 N 
ATOM     17  H   UNL     1       1.089  13.097  18.806  0.00  0.00    +0.000 HD
BRANCH  16  18
ATOM     18  C   UNL     1       1.840  13.834  20.669  0.00  0.00    +0.000 C 
BRANCH  18  19
ATOM     19  C   UNL     1       3.169  14.289  20.091  0.00  0.00    +0.000 C 
ATOM     20  N   UNL     1       4.272  14.667  19.612  0.00  0.00    +0.000 NA
ENDBRANCH  18  19
ENDBRANCH  16  18
ENDBRANCH   1  14
BRANCH   1  21
ATOM     21  C   UNL     1      -1.210  10.371  19.427  0.00  0.00    +0.000 C 
BRANCH  21  27
ATOM     22  C   UNL     1      -5.364  12.160  17.066  0.00  0.00    +0.000 C 
ATOM     23  C   UNL     1      -4.142  11.284  17.095  0.00  0.00    +0.000 A 
ATOM     24  C   UNL     1      -3.742  10.622  15.930  0.00  0.00    +0.000 A 
ATOM     25  C   UNL     1      -2.518   9.965  15.881  0.00  0.00    +0.000 A 
ATOM     26  C   UNL     1      -1.705   9.924  17.012  0.00  0.00    +0.000 A 
ATOM     27  C   UNL     1      -2.128  10.488  18.226  0.00  0.00    +0.000 A 
ATOM     28  C   UNL     1      -3.337  11.202  18.247  0.00  0.00    +0.000 A 
ENDBRANCH  21  27
ENDBRANCH   1  21
TORSDOF 7
ENDMDL
MODEL 8
REMARK VINA RESULT:      -7.5      4.844      8.981
REMARK  Name = 
REMARK  8 active torsions:
REMARK  status: ('A' for Active; 'I' for Inactive)
REMARK    1  A    between atoms: C_1  and  C_2
REMARK    2  A    between atoms: C_6  and  C_7
REMARK    3  A    between atoms: C_7  and  C_8
REMARK    4  A    between atoms: C_8  and  N_9
REMARK    5  A    between atoms: C_8  and  C_20
REMARK    6  A    between atoms: C_10  and  C_12
REMARK    7  A    between atoms: N_22  and  C_23
REMARK    8  A    between atoms: C_23  and  C_24
REMARK                            x       y       z     vdW  Elec       q    Type
REMARK                         _______ _______ _______ _____ _____    ______ ____
ROOT
ATOM      1  C   UNL     1       0.221  10.585  19.213  0.00  0.00    +0.000 C 
ENDROOT
BRANCH   1   2
ATOM      2  N   UNL     1       0.946   9.293  19.244  0.00  0.00    +0.000 N 
ATOM      3  C   UNL     1       1.887   8.947  18.294  0.00  0.00    +0.000 C 
ATOM      4  O   UNL     1       2.184   9.647  17.339  0.00  0.00    +0.000 OA
ATOM      5  H   UNL     1       1.025   8.857  20.155  0.00  0.00    +0.000 HD
BRANCH   3   6
ATOM      6  C   UNL     1       2.565   7.611  18.478  0.00  0.00    +0.000 A 
ATOM      7  C   UNL     1       3.602   7.185  17.632  0.00  0.00    +0.000 A 
ATOM      8  C   UNL     1       4.241   5.961  17.860  0.00  0.00    +0.000 A 
ATOM      9  C   UNL     1       3.864   5.151  18.935  0.00  0.00    +0.000 A 
ATOM     10 CL   UNL     1       4.711   3.662  19.150  0.00  0.00    +0.000 Cl
ATOM     11  C   UNL     1       2.842   5.573  19.790  0.00  0.00    +0.000 A 
ATOM     12 CL   UNL     1       2.334   4.630  21.146  0.00  0.00    +0.000 Cl
ATOM     13  C   UNL     1       2.195   6.799  19.562  0.00  0.00    +0.000 A 
ENDBRANCH   3   6
ENDBRANCH   1   2
BRANCH   1  14
ATOM     14  C   UNL     1       0.942  11.528  20.229  0.00  0.00    +0.000 C 
ATOM     15  O   UNL     1       1.317  11.104  21.324  0.00  0.00    +0.000 OA
ATOM     16  N   UNL     1       0.959  12.884  19.963  0.00  0.00    +0.000 N 
ATOM     17  H   UNL     1       0.768  13.199  19.021  0.00  0.00    +0.000 HD
BRANCH  16  18
ATOM     18  C   UNL     1       1.643  13.817  20.873  0.00  0.00    +0.000 C 
BRANCH  18  19
ATOM     19  C   UNL     1       0.702  14.359  21.936  0.00  0.00    +0.000 C 
ATOM     20  N   UNL     1      -0.078  14.810  22.818  0.00  0.00    +0.000 NA
ENDBRANCH  18  19
ENDBRANCH  16  18
ENDBRANCH   1  14
BRANCH   1  21
ATOM     21  C   UNL     1      -1.294  10.412  19.442  0.00  0.00    +0.000 C 
BRANCH  21  27
ATOM     22  C   UNL     1      -5.432  12.223  17.071  0.00  0.00    +0.000 C 
ATOM     23  C   UNL     1      -4.211  11.346  17.100  0.00  0.00    +0.000 A 
ATOM     24  C   UNL     1      -3.804  10.694  15.932  0.00  0.00    +0.000 A 
ATOM     25  C   UNL     1      -2.580  10.036  15.885  0.00  0.00    +0.000 A 
ATOM     26  C   UNL     1      -1.773   9.986  17.020  0.00  0.00    +0.000 A 
ATOM     27  C   UNL     1      -2.204  10.539  18.236  0.00  0.00    +0.000 A 
ATOM     28  C   UNL     1      -3.412  11.254  18.256  0.00  0.00    +0.000 A 
ENDBRANCH  21  27
ENDBRANCH   1  21
TORSDOF 7
ENDMDL
MODEL 9
REMARK VINA RESULT:      -7.5      4.825      8.630
REMARK  Name = 
REMARK  8 active torsions:
REMARK  status: ('A' for Active; 'I' for Inactive)
REMARK    1  A    between atoms: C_1  and  C_2
REMARK    2  A    between atoms: C_6  and  C_7
REMARK    3  A    between atoms: C_7  and  C_8
REMARK    4  A    between atoms: C_8  and  N_9
REMARK    5  A    between atoms: C_8  and  C_20
REMARK    6  A    between atoms: C_10  and  C_12
REMARK    7  A    between atoms: N_22  and  C_23
REMARK    8  A    between atoms: C_23  and  C_24
REMARK                            x       y       z     vdW  Elec       q    Type
REMARK                         _______ _______ _______ _____ _____    ______ ____
ROOT
ATOM      1  C   UNL     1       0.357  10.380  18.528  0.00  0.00    +0.000 C 
ENDROOT
BRANCH   1   2
ATOM      2  N   UNL     1       1.026   9.090  18.817  0.00  0.00    +0.000 N 
ATOM      3  C   UNL     1       2.081   8.615  18.062  0.00  0.00    +0.000 C 
ATOM      4  O   UNL     1       2.534   9.189  17.084  0.00  0.00    +0.000 OA
ATOM      5  H   UNL     1       0.960   8.767  19.774  0.00  0.00    +0.000 HD
BRANCH   3   6
ATOM      6  C   UNL     1       2.680   7.301  18.499  0.00  0.00    +0.000 A 
ATOM      7  C   UNL     1       2.291   6.671  19.694  0.00  0.00    +0.000 A 
ATOM      8  C   UNL     1       2.831   5.429  20.045  0.00  0.00    +0.000 A 
ATOM      9  C   UNL     1       3.756   4.794  19.212  0.00  0.00    +0.000 A 
ATOM     10 CL   UNL     1       4.366   3.259  19.715  0.00  0.00    +0.000 Cl
ATOM     11  C   UNL     1       4.140   5.407  18.015  0.00  0.00    +0.000 A 
ATOM     12 CL   UNL     1       5.267   4.674  16.930  0.00  0.00    +0.000 Cl
ATOM     13  C   UNL     1       3.602   6.655  17.661  0.00  0.00    +0.000 A 
ENDBRANCH   3   6
ENDBRANCH   1   2
BRANCH   1  14
ATOM     14  C   UNL     1       1.296  11.503  19.072  0.00  0.00    +0.000 C 
ATOM     15  O   UNL     1       1.300  11.794  20.271  0.00  0.00    +0.000 OA
ATOM     16  N   UNL     1       1.957  12.303  18.159  0.00  0.00    +0.000 N 
ATOM     17  H   UNL     1       2.047  11.981  17.205  0.00  0.00    +0.000 HD
BRANCH  16  18
ATOM     18  C   UNL     1       2.871  13.362  18.615  0.00  0.00    +0.000 C 
BRANCH  18  19
ATOM     19  C   UNL     1       2.203  14.727  18.603  0.00  0.00    +0.000 C 
ATOM     20  N   UNL     1       1.648  15.859  18.594  0.00  0.00    +0.000 NA
ENDBRANCH  18  19
ENDBRANCH  16  18
ENDBRANCH   1  14
BRANCH   1  21
ATOM     21  C   UNL     1      -1.090  10.421  19.059  0.00  0.00    +0.000 C 
BRANCH  21  27
ATOM     22  C   UNL     1      -3.207  10.016  14.435  0.00  0.00    +0.000 C 
ATOM     23  C   UNL     1      -3.200  10.565  15.835  0.00  0.00    +0.000 A 
ATOM     24  C   UNL     1      -4.313  11.270  16.303  0.00  0.00    +0.000 A 
ATOM     25  C   UNL     1      -4.409  11.620  17.646  0.00  0.00    +0.000 A 
ATOM     26  C   UNL     1      -3.371  11.307  18.521  0.00  0.00    +0.000 A 
ATOM     27  C   UNL     1      -2.196  10.695  18.058  0.00  0.00    +0.000 A 
ATOM     28  C   UNL     1      -2.136  10.291  16.715  0.00  0.00    +0.000 A 
ENDBRANCH  21  27
ENDBRANCH   1  21
TORSDOF 7
ENDMDL
