MODEL 1
REMARK VINA RESULT:      -8.7      0.000      0.000
REMARK  Name = 
REMARK  12 active torsions:
REMARK  status: ('A' for Active; 'I' for Inactive)
REMARK    1  A    between atoms: C_1  and  C_2
REMARK    2  A    between atoms: C_2  and  C_3
REMARK    3  A    between atoms: C_2  and  C_4
REMARK    4  A    between atoms: C_2  and  O_5
REMARK    5  A    between atoms: O_5  and  C_6
REMARK    6  A    between atoms: N_8  and  C_9
REMARK    7  A    between atoms: C_9  and  C_10
REMARK    8  A    between atoms: C_9  and  C_18
REMARK    9  A    between atoms: C_10  and  C_11
REMARK   10  A    between atoms: C_14  and  O_15
REMARK   11  A    between atoms: C_18  and  O_20
REMARK   12  A    between atoms: O_20  and  C_21
REMARK                            x       y       z     vdW  Elec       q    Type
REMARK                         _______ _______ _______ _____ _____    ______ ____
ROOT
ATOM      1  C   UNL     1      -0.167  10.420  21.105  0.00  0.00    +0.000 C 
ENDROOT
BRANCH   1   4
ATOM      2  C   UNL     1      -1.060  11.883  22.875  0.00  0.00    +0.000 C 
ATOM      3  O   UNL     1      -1.778  10.982  23.317  0.00  0.00    +0.000 OA
ATOM      4  N   UNL     1      -0.195  11.690  21.822  0.00  0.00    +0.000 N 
ATOM      5  H   UNL     1       0.385  12.471  21.544  0.00  0.00    +0.000 HD
BRANCH   2   6
ATOM      6  O   UNL     1      -0.991  13.143  23.352  0.00  0.00    +0.000 OA
BRANCH   6   8
ATOM      7  C   UNL     1      -1.714  15.496  23.304  0.00  0.00    +0.000 C 
ATOM      8  C   UNL     1      -2.150  14.027  23.211  0.00  0.00    +0.000 C 
ATOM      9  C   UNL     1      -3.251  13.688  24.228  0.00  0.00    +0.000 C 
ATOM     10  C   UNL     1      -2.726  13.787  21.798  0.00  0.00    +0.000 C 
ENDBRANCH   6   8
ENDBRANCH   2   6
ENDBRANCH   1   4
BRANCH   1  11
ATOM     11  C   UNL     1       0.858   9.400  21.648  0.00  0.00    +0.000 C 
ATOM     12  O   UNL     1       1.702   9.634  22.500  0.00  0.00    +0.000 OA
BRANCH  11  13
ATOM     13  O   UNL     1       0.628   8.152  21.052  0.00  0.00    +0.000 OA
BRANCH  13  14
ATOM     14  C   UNL     1       1.513   7.257  20.401  0.00  0.00    +0.000 A 
ATOM     15  C   UNL     1       1.538   5.975  20.958  0.00  0.00    +0.000 A 
ATOM     16  C   UNL     1       2.424   5.022  20.471  0.00  0.00    +0.000 A 
ATOM     17  C   UNL     1       3.242   5.347  19.400  0.00  0.00    +0.000 A 
ATOM     18  C   UNL     1       4.331   4.456  19.028  0.00  0.00    +0.000 A 
ATOM     19  O   UNL     1       4.543   3.402  19.596  0.00  0.00    +0.000 OA
ATOM     20  C   UNL     1       5.175   4.921  17.922  0.00  0.00    +0.000 A 
ATOM     21  C   UNL     1       6.464   4.422  17.740  0.00  0.00    +0.000 A 
ATOM     22  C   UNL     1       7.151   4.866  16.609  0.00  0.00    +0.000 A 
ATOM     23  C   UNL     1       6.451   5.454  15.562  0.00  0.00    +0.000 A 
ATOM     24  C   UNL     1       5.236   6.077  15.847  0.00  0.00    +0.000 A 
ATOM     25  C   UNL     1       4.678   5.916  17.103  0.00  0.00    +0.000 A 
ATOM     26  O   UNL     1       3.703   6.803  17.513  0.00  0.00    +0.000 OA
ATOM     27  C   UNL     1       3.106   6.569  18.738  0.00  0.00    +0.000 A 
ATOM     28  C   UNL     1       2.283   7.568  19.273  0.00  0.00    +0.000 A 
ENDBRANCH  13  14
ENDBRANCH  11  13
ENDBRANCH   1  11
BRANCH   1  29
ATOM     29  C   UNL     1      -0.066  10.659  19.579  0.00  0.00    +0.000 C 
BRANCH  29  30
ATOM     30  C   UNL     1      -1.318  10.715  18.725  0.00  0.00    +0.000 A 
ATOM     31  C   UNL     1      -2.427  11.530  18.990  0.00  0.00    +0.000 A 
ATOM     32  C   UNL     1      -3.493  11.599  18.087  0.00  0.00    +0.000 A 
ATOM     33  C   UNL     1      -3.467  10.837  16.926  0.00  0.00    +0.000 A 
ATOM     34  C   UNL     1      -2.412   9.977  16.671  0.00  0.00    +0.000 A 
ATOM     35  C   UNL     1      -1.341   9.918  17.564  0.00  0.00    +0.000 A 
BRANCH  33  36
ATOM     36  O   UNL     1      -4.464  10.917  16.001  0.00  0.00    +0.000 OA
ATOM     37  H   UNL     1      -5.042  11.662  16.235  0.00  0.00    +0.000 HD
ENDBRANCH  33  36
ENDBRANCH  29  30
ENDBRANCH   1  29
TORSDOF 9
ENDMDL
MODEL 2
REMARK VINA RESULT:      -8.6      2.437      4.129
REMARK  Name = 
REMARK  12 active torsions:
REMARK  status: ('A' for Active; 'I' for Inactive)
REMARK    1  A    between atoms: C_1  and  C_2
REMARK    2  A    between atoms: C_2  and  C_3
REMARK    3  A    between atoms: C_2  and  C_4
REMARK    4  A    between atoms: C_2  and  O_5
REMARK    5  A    between atoms: O_5  and  C_6
REMARK    6  A    between atoms: N_8  and  C_9
REMARK    7  A    between atoms: C_9  and  C_10
REMARK    8  A    between atoms: C_9  and  C_18
REMARK    9  A    between atoms: C_10  and  C_11
REMARK   10  A    between atoms: C_14  and  O_15
REMARK   11  A    between atoms: C_18  and  O_20
REMARK   12  A    between atoms: O_20  and  C_21
REMARK                            x       y       z     vdW  Elec       q    Type
REMARK                         _______ _______ _______ _____ _____    ______ ____
ROOT
ATOM      1  C   UNL     1       0.810  10.311  20.549  0.00  0.00    +0.000 C 
ENDROOT
BRANCH   1   4
ATOM      2  C   UNL     1      -0.718   9.893  18.661  0.00  0.00    +0.000 C 
ATOM      3  O   UNL     1       0.220   9.620  17.906  0.00  0.00    +0.000 OA
ATOM      4  N   UNL     1      -0.532  10.195  19.991  0.00  0.00    +0.000 N 
ATOM      5  H   UNL     1      -1.358  10.372  20.550  0.00  0.00    +0.000 HD
BRANCH   2   6
ATOM      6  O   UNL     1      -2.023   9.911  18.323  0.00  0.00    +0.000 OA
BRANCH   6   8
ATOM      7  C   UNL     1      -1.641  12.302  17.875  0.00  0.00    +0.000 C 
ATOM      8  C   UNL     1      -2.582  11.104  17.683  0.00  0.00    +0.000 C 
ATOM      9  C   UNL     1      -4.005  11.404  18.182  0.00  0.00    +0.000 C 
ATOM     10  C   UNL     1      -2.669  10.800  16.171  0.00  0.00    +0.000 C 
ENDBRANCH   6   8
ENDBRANCH   2   6
ENDBRANCH   1   4
BRANCH   1  11
ATOM     11  C   UNL     1       1.163   9.234  21.600  0.00  0.00    +0.000 C 
ATOM     12  O   UNL     1       1.549   9.459  22.737  0.00  0.00    +0.000 OA
BRANCH  11  13
ATOM     13  O   UNL     1       0.914   7.964  21.061  0.00  0.00    +0.000 OA
BRANCH  13  14
ATOM     14  C   UNL     1       1.763   7.069  20.363  0.00  0.00    +0.000 A 
ATOM     15  C   UNL     1       1.814   5.786  20.916  0.00  0.00    +0.000 A 
ATOM     16  C   UNL     1       2.672   4.833  20.382  0.00  0.00    +0.000 A 
ATOM     17  C   UNL     1       3.435   5.159  19.271  0.00  0.00    +0.000 A 
ATOM     18  C   UNL     1       4.502   4.267  18.842  0.00  0.00    +0.000 A 
ATOM     19  O   UNL     1       4.741   3.211  19.396  0.00  0.00    +0.000 OA
ATOM     20  C   UNL     1       5.289   4.733  17.695  0.00  0.00    +0.000 A 
ATOM     21  C   UNL     1       6.567   4.232  17.446  0.00  0.00    +0.000 A 
ATOM     22  C   UNL     1       7.195   4.678  16.282  0.00  0.00    +0.000 A 
ATOM     23  C   UNL     1       6.443   5.269  15.274  0.00  0.00    +0.000 A 
ATOM     24  C   UNL     1       5.246   5.894  15.622  0.00  0.00    +0.000 A 
ATOM     25  C   UNL     1       4.752   5.731  16.905  0.00  0.00    +0.000 A 
ATOM     26  O   UNL     1       3.801   6.618  17.366  0.00  0.00    +0.000 OA
ATOM     27  C   UNL     1       3.268   6.382  18.620  0.00  0.00    +0.000 A 
ATOM     28  C   UNL     1       2.475   7.382  19.198  0.00  0.00    +0.000 A 
ENDBRANCH  13  14
ENDBRANCH  11  13
ENDBRANCH   1  11
BRANCH   1  29
ATOM     29  C   UNL     1       1.082  11.759  21.019  0.00  0.00    +0.000 C 
BRANCH  29  30
ATOM     30  C   UNL     1       1.913  12.701  20.169  0.00  0.00    +0.000 A 
ATOM     31  C   UNL     1       2.722  13.727  20.676  0.00  0.00    +0.000 A 
ATOM     32  C   UNL     1       3.541  14.477  19.825  0.00  0.00    +0.000 A 
ATOM     33  C   UNL     1       3.539  14.220  18.460  0.00  0.00    +0.000 A 
ATOM     34  C   UNL     1       2.703  13.253  17.925  0.00  0.00    +0.000 A 
ATOM     35  C   UNL     1       1.896  12.495  18.776  0.00  0.00    +0.000 A 
BRANCH  33  36
ATOM     36  O   UNL     1       4.359  14.896  17.608  0.00  0.00    +0.000 OA
ATOM     37  H   UNL     1       5.221  14.447  17.590  0.00  0.00    +0.000 HD
ENDBRANCH  33  36
ENDBRANCH  29  30
ENDBRANCH   1  29
TORSDOF 9
ENDMDL
MODEL 3
REMARK VINA RESULT:      -8.5      2.490      9.870
REMARK  Name = 
REMARK  12 active torsions:
REMARK  status: ('A' for Active; 'I' for Inactive)
REMARK    1  A    between atoms: C_1  and  C_2
REMARK    2  A    between atoms: C_2  and  C_3
REMARK    3  A    between atoms: C_2  and  C_4
REMARK    4  A    between atoms: C_2  and  O_5
REMARK    5  A    between atoms: O_5  and  C_6
REMARK    6  A    between atoms: N_8  and  C_9
REMARK    7  A    between atoms: C_9  and  C_10
REMARK    8  A    between atoms: C_9  and  C_18
REMARK    9  A    between atoms: C_10  and  C_11
REMARK   10  A    between atoms: C_14  and  O_15
REMARK   11  A    between atoms: C_18  and  O_20
REMARK   12  A    between atoms: O_20  and  C_21
REMARK                            x       y       z     vdW  Elec       q    Type
REMARK                         _______ _______ _______ _____ _____    ______ ____
ROOT
ATOM      1  C   UNL     1       2.795   7.433  18.307  0.00  0.00    +0.000 C 
ENDROOT
BRANCH   1   4
ATOM      2  C   UNL     1       4.923   6.733  17.280  0.00  0.00    +0.000 C 
ATOM      3  O   UNL     1       4.350   6.334  16.262  0.00  0.00    +0.000 OA
ATOM      4  N   UNL     1       4.250   7.334  18.320  0.00  0.00    +0.000 N 
ATOM      5  H   UNL     1       4.799   7.665  19.103  0.00  0.00    +0.000 HD
BRANCH   2   6
ATOM      6  O   UNL     1       6.250   6.669  17.516  0.00  0.00    +0.000 OA
BRANCH   6   8
ATOM      7  C   UNL     1       5.683   4.696  18.875  0.00  0.00    +0.000 C 
ATOM      8  C   UNL     1       6.803   5.494  18.191  0.00  0.00    +0.000 C 
ATOM      9  C   UNL     1       7.920   5.877  19.176  0.00  0.00    +0.000 C 
ATOM     10  C   UNL     1       7.428   4.601  17.096  0.00  0.00    +0.000 C 
ENDBRANCH   6   8
ENDBRANCH   2   6
ENDBRANCH   1   4
BRANCH   1  11
ATOM     11  C   UNL     1       2.252   8.867  18.116  0.00  0.00    +0.000 C 
ATOM     12  O   UNL     1       2.482   9.586  17.156  0.00  0.00    +0.000 OA
BRANCH  11  13
ATOM     13  O   UNL     1       1.409   9.188  19.190  0.00  0.00    +0.000 OA
BRANCH  13  14
ATOM     14  C   UNL     1       0.277  10.038  19.259  0.00  0.00    +0.000 A 
ATOM     15  C   UNL     1       0.379  11.042  20.227  0.00  0.00    +0.000 A 
ATOM     16  C   UNL     1      -0.693  11.893  20.461  0.00  0.00    +0.000 A 
ATOM     17  C   UNL     1      -1.839  11.762  19.692  0.00  0.00    +0.000 A 
ATOM     18  C   UNL     1      -3.048  12.477  20.071  0.00  0.00    +0.000 A 
ATOM     19  O   UNL     1      -3.098  13.228  21.026  0.00  0.00    +0.000 OA
ATOM     20  C   UNL     1      -4.222  12.221  19.228  0.00  0.00    +0.000 A 
ATOM     21  C   UNL     1      -5.512  12.472  19.693  0.00  0.00    +0.000 A 
ATOM     22  C   UNL     1      -6.553  12.276  18.783  0.00  0.00    +0.000 A 
ATOM     23  C   UNL     1      -6.276  12.210  17.423  0.00  0.00    +0.000 A 
ATOM     24  C   UNL     1      -5.005  11.796  17.026  0.00  0.00    +0.000 A 
ATOM     25  C   UNL     1      -4.014  11.663  17.981  0.00  0.00    +0.000 A 
ATOM     26  O   UNL     1      -2.894  10.917  17.676  0.00  0.00    +0.000 OA
ATOM     27  C   UNL     1      -1.884  10.869  18.619  0.00  0.00    +0.000 A 
ATOM     28  C   UNL     1      -0.847   9.947  18.430  0.00  0.00    +0.000 A 
ENDBRANCH  13  14
ENDBRANCH  11  13
ENDBRANCH   1  11
BRANCH   1  29
ATOM     29  C   UNL     1       2.188   6.688  19.520  0.00  0.00    +0.000 C 
BRANCH  29  30
ATOM     30  C   UNL     1       1.815   5.222  19.413  0.00  0.00    +0.000 A 
ATOM     31  C   UNL     1       1.325   4.446  20.472  0.00  0.00    +0.000 A 
ATOM     32  C   UNL     1       0.901   3.130  20.258  0.00  0.00    +0.000 A 
ATOM     33  C   UNL     1       0.988   2.575  18.988  0.00  0.00    +0.000 A 
ATOM     34  C   UNL     1       1.527   3.299  17.936  0.00  0.00    +0.000 A 
ATOM     35  C   UNL     1       1.936   4.617  18.148  0.00  0.00    +0.000 A 
BRANCH  33  36
ATOM     36  O   UNL     1       0.540   1.314  18.731  0.00  0.00    +0.000 OA
ATOM     37  H   UNL     1       0.514   1.188  17.767  0.00  0.00    +0.000 HD
ENDBRANCH  33  36
ENDBRANCH  29  30
ENDBRANCH   1  29
TORSDOF 9
ENDMDL
MODEL 4
REMARK VINA RESULT:      -8.5      3.382     10.235
REMARK  Name = 
REMARK  12 active torsions:
REMARK  status: ('A' for Active; 'I' for Inactive)
REMARK    1  A    between atoms: C_1  and  C_2
REMARK    2  A    between atoms: C_2  and  C_3
REMARK    3  A    between atoms: C_2  and  C_4
REMARK    4  A    between atoms: C_2  and  O_5
REMARK    5  A    between atoms: O_5  and  C_6
REMARK    6  A    between atoms: N_8  and  C_9
REMARK    7  A    between atoms: C_9  and  C_10
REMARK    8  A    between atoms: C_9  and  C_18
REMARK    9  A    between atoms: C_10  and  C_11
REMARK   10  A    between atoms: C_14  and  O_15
REMARK   11  A    between atoms: C_18  and  O_20
REMARK   12  A    between atoms: O_20  and  C_21
REMARK                            x       y       z     vdW  Elec       q    Type
REMARK                         _______ _______ _______ _____ _____    ______ ____
ROOT
ATOM      1  C   UNL     1       4.398   3.737  16.627  0.00  0.00    +0.000 C 
ENDROOT
BRANCH   1   4
ATOM      2  C   UNL     1       5.779   4.168  14.632  0.00  0.00    +0.000 C 
ATOM      3  O   UNL     1       5.336   5.315  14.521  0.00  0.00    +0.000 OA
ATOM      4  N   UNL     1       5.416   3.333  15.664  0.00  0.00    +0.000 N 
ATOM      5  H   UNL     1       5.852   2.420  15.702  0.00  0.00    +0.000 HD
BRANCH   2   6
ATOM      6  O   UNL     1       6.672   3.584  13.808  0.00  0.00    +0.000 OA
BRANCH   6   8
ATOM      7  C   UNL     1       7.175   4.748  11.697  0.00  0.00    +0.000 C 
ATOM      8  C   UNL     1       6.424   3.587  12.364  0.00  0.00    +0.000 C 
ATOM      9  C   UNL     1       4.921   3.615  12.045  0.00  0.00    +0.000 C 
ATOM     10  C   UNL     1       6.997   2.263  11.810  0.00  0.00    +0.000 C 
ENDBRANCH   6   8
ENDBRANCH   2   6
ENDBRANCH   1   4
BRANCH   1  11
ATOM     11  C   UNL     1       4.806   4.922  17.532  0.00  0.00    +0.000 C 
ATOM     12  O   UNL     1       5.683   4.890  18.382  0.00  0.00    +0.000 OA
BRANCH  11  13
ATOM     13  O   UNL     1       4.052   6.050  17.183  0.00  0.00    +0.000 OA
BRANCH  13  14
ATOM     14  C   UNL     1       3.274   6.929  17.978  0.00  0.00    +0.000 A 
ATOM     15  C   UNL     1       2.942   6.414  19.235  0.00  0.00    +0.000 A 
ATOM     16  C   UNL     1       2.111   7.136  20.084  0.00  0.00    +0.000 A 
ATOM     17  C   UNL     1       1.662   8.386  19.686  0.00  0.00    +0.000 A 
ATOM     18  C   UNL     1       0.615   9.051  20.446  0.00  0.00    +0.000 A 
ATOM     19  O   UNL     1       0.128   8.575  21.453  0.00  0.00    +0.000 OA
ATOM     20  C   UNL     1       0.167  10.340  19.906  0.00  0.00    +0.000 A 
ATOM     21  C   UNL     1      -1.075  10.873  20.249  0.00  0.00    +0.000 A 
ATOM     22  C   UNL     1      -1.368  12.144  19.750  0.00  0.00    +0.000 A 
ATOM     23  C   UNL     1      -0.342  12.952  19.275  0.00  0.00    +0.000 A 
ATOM     24  C   UNL     1       0.816  12.339  18.799  0.00  0.00    +0.000 A 
ATOM     25  C   UNL     1       0.987  10.981  18.998  0.00  0.00    +0.000 A 
ATOM     26  O   UNL     1       1.915  10.310  18.227  0.00  0.00    +0.000 OA
ATOM     27  C   UNL     1       2.122   8.971  18.505  0.00  0.00    +0.000 A 
ATOM     28  C   UNL     1       2.885   8.220  17.601  0.00  0.00    +0.000 A 
ENDBRANCH  13  14
ENDBRANCH  11  13
ENDBRANCH   1  11
BRANCH   1  29
ATOM     29  C   UNL     1       3.866   2.509  17.404  0.00  0.00    +0.000 C 
BRANCH  29  30
ATOM     30  C   UNL     1       3.025   2.694  18.652  0.00  0.00    +0.000 A 
ATOM     31  C   UNL     1       1.653   2.982  18.653  0.00  0.00    +0.000 A 
ATOM     32  C   UNL     1       0.934   3.027  19.852  0.00  0.00    +0.000 A 
ATOM     33  C   UNL     1       1.586   2.805  21.058  0.00  0.00    +0.000 A 
ATOM     34  C   UNL     1       2.953   2.580  21.090  0.00  0.00    +0.000 A 
ATOM     35  C   UNL     1       3.668   2.521  19.892  0.00  0.00    +0.000 A 
BRANCH  33  36
ATOM     36  O   UNL     1       0.910   2.792  22.240  0.00  0.00    +0.000 OA
ATOM     37  H   UNL     1       1.206   2.023  22.755  0.00  0.00    +0.000 HD
ENDBRANCH  33  36
ENDBRANCH  29  30
ENDBRANCH   1  29
TORSDOF 9
ENDMDL
MODEL 5
REMARK VINA RESULT:      -8.3      2.538     10.012
REMARK  Name = 
REMARK  12 active torsions:
REMARK  status: ('A' for Active; 'I' for Inactive)
REMARK    1  A    between atoms: C_1  and  C_2
REMARK    2  A    between atoms: C_2  and  C_3
REMARK    3  A    between atoms: C_2  and  C_4
REMARK    4  A    between atoms: C_2  and  O_5
REMARK    5  A    between atoms: O_5  and  C_6
REMARK    6  A    between atoms: N_8  and  C_9
REMARK    7  A    between atoms: C_9  and  C_10
REMARK    8  A    between atoms: C_9  and  C_18
REMARK    9  A    between atoms: C_10  and  C_11
REMARK   10  A    between atoms: C_14  and  O_15
REMARK   11  A    between atoms: C_18  and  O_20
REMARK   12  A    between atoms: O_20  and  C_21
REMARK                            x       y       z     vdW  Elec       q    Type
REMARK                         _______ _______ _______ _____ _____    ______ ____
ROOT
ATOM      1  C   UNL     1       2.680   7.227  17.918  0.00  0.00    +0.000 C 
ENDROOT
BRANCH   1   4
ATOM      2  C   UNL     1       5.007   6.814  17.222  0.00  0.00    +0.000 C 
ATOM      3  O   UNL     1       4.678   6.699  16.037  0.00  0.00    +0.000 OA
ATOM      4  N   UNL     1       4.104   7.123  18.213  0.00  0.00    +0.000 N 
ATOM      5  H   UNL     1       4.462   7.234  19.154  0.00  0.00    +0.000 HD
BRANCH   2   6
ATOM      6  O   UNL     1       6.259   6.686  17.709  0.00  0.00    +0.000 OA
BRANCH   6   8
ATOM      7  C   UNL     1       7.278   4.607  16.871  0.00  0.00    +0.000 C 
ATOM      8  C   UNL     1       6.745   5.361  18.098  0.00  0.00    +0.000 C 
ATOM      9  C   UNL     1       5.667   4.556  18.843  0.00  0.00    +0.000 C 
ATOM     10  C   UNL     1       7.922   5.585  19.073  0.00  0.00    +0.000 C 
ENDBRANCH   6   8
ENDBRANCH   2   6
ENDBRANCH   1   4
BRANCH   1  11
ATOM     11  C   UNL     1       1.904   8.197  18.837  0.00  0.00    +0.000 C 
ATOM     12  O   UNL     1       1.908   8.166  20.058  0.00  0.00    +0.000 OA
BRANCH  11  13
ATOM     13  O   UNL     1       1.243   9.149  18.049  0.00  0.00    +0.000 OA
BRANCH  13  14
ATOM     14  C   UNL     1       0.138   9.988  18.338  0.00  0.00    +0.000 A 
ATOM     15  C   UNL     1       0.406  10.970  19.298  0.00  0.00    +0.000 A 
ATOM     16  C   UNL     1      -0.611  11.807  19.739  0.00  0.00    +0.000 A 
ATOM     17  C   UNL     1      -1.875  11.685  19.181  0.00  0.00    +0.000 A 
ATOM     18  C   UNL     1      -3.000  12.382  19.785  0.00  0.00    +0.000 A 
ATOM     19  O   UNL     1      -2.883  13.109  20.753  0.00  0.00    +0.000 OA
ATOM     20  C   UNL     1      -4.304  12.136  19.157  0.00  0.00    +0.000 A 
ATOM     21  C   UNL     1      -5.492  12.366  19.849  0.00  0.00    +0.000 A 
ATOM     22  C   UNL     1      -6.676  12.184  19.132  0.00  0.00    +0.000 A 
ATOM     23  C   UNL     1      -6.645  12.153  17.743  0.00  0.00    +0.000 A 
ATOM     24  C   UNL     1      -5.462  11.759  17.117  0.00  0.00    +0.000 A 
ATOM     25  C   UNL     1      -4.317  11.611  17.879  0.00  0.00    +0.000 A 
ATOM     26  O   UNL     1      -3.267  10.880  17.362  0.00  0.00    +0.000 OA
ATOM     27  C   UNL     1      -2.106  10.818  18.111  0.00  0.00    +0.000 A 
ATOM     28  C   UNL     1      -1.115   9.908  17.719  0.00  0.00    +0.000 A 
ENDBRANCH  13  14
ENDBRANCH  11  13
ENDBRANCH   1  11
BRANCH   1  29
ATOM     29  C   UNL     1       2.043   5.821  17.808  0.00  0.00    +0.000 C 
BRANCH  29  30
ATOM     30  C   UNL     1       1.995   4.902  19.013  0.00  0.00    +0.000 A 
ATOM     31  C   UNL     1       2.453   5.243  20.293  0.00  0.00    +0.000 A 
ATOM     32  C   UNL     1       2.269   4.372  21.373  0.00  0.00    +0.000 A 
ATOM     33  C   UNL     1       1.647   3.146  21.173  0.00  0.00    +0.000 A 
ATOM     34  C   UNL     1       1.242   2.758  19.907  0.00  0.00    +0.000 A 
ATOM     35  C   UNL     1       1.412   3.633  18.832  0.00  0.00    +0.000 A 
BRANCH  33  36
ATOM     36  O   UNL     1       1.406   2.294  22.209  0.00  0.00    +0.000 OA
ATOM     37  H   UNL     1       2.255   1.925  22.507  0.00  0.00    +0.000 HD
ENDBRANCH  33  36
ENDBRANCH  29  30
ENDBRANCH   1  29
TORSDOF 9
ENDMDL
MODEL 6
REMARK VINA RESULT:      -8.2      2.495      9.525
REMARK  Name = 
REMARK  12 active torsions:
REMARK  status: ('A' for Active; 'I' for Inactive)
REMARK    1  A    between atoms: C_1  and  C_2
REMARK    2  A    between atoms: C_2  and  C_3
REMARK    3  A    between atoms: C_2  and  C_4
REMARK    4  A    between atoms: C_2  and  O_5
REMARK    5  A    between atoms: O_5  and  C_6
REMARK    6  A    between atoms: N_8  and  C_9
REMARK    7  A    between atoms: C_9  and  C_10
REMARK    8  A    between atoms: C_9  and  C_18
REMARK    9  A    between atoms: C_10  and  C_11
REMARK   10  A    between atoms: C_14  and  O_15
REMARK   11  A    between atoms: C_18  and  O_20
REMARK   12  A    between atoms: O_20  and  C_21
REMARK                            x       y       z     vdW  Elec       q    Type
REMARK                         _______ _______ _______ _____ _____    ______ ____
ROOT
ATOM      1  C   UNL     1       0.718  10.981  18.908  0.00  0.00    +0.000 C 
ENDROOT
BRANCH   1   4
ATOM      2  C   UNL     1      -1.602  11.558  18.314  0.00  0.00    +0.000 C 
ATOM      3  O   UNL     1      -1.988  11.380  19.473  0.00  0.00    +0.000 OA
ATOM      4  N   UNL     1      -0.282  11.435  17.948  0.00  0.00    +0.000 N 
ATOM      5  H   UNL     1      -0.043  11.633  16.984  0.00  0.00    +0.000 HD
BRANCH   2   6
ATOM      6  O   UNL     1      -2.379  11.912  17.270  0.00  0.00    +0.000 OA
BRANCH   6   8
ATOM      7  C   UNL     1      -4.784  11.525  16.908  0.00  0.00    +0.000 C 
ATOM      8  C   UNL     1      -3.365  10.960  16.753  0.00  0.00    +0.000 C 
ATOM      9  C   UNL     1      -3.220   9.579  17.413  0.00  0.00    +0.000 C 
ATOM     10  C   UNL     1      -3.077  10.793  15.245  0.00  0.00    +0.000 C 
ENDBRANCH   6   8
ENDBRANCH   2   6
ENDBRANCH   1   4
BRANCH   1  11
ATOM     11  C   UNL     1       1.433  12.117  19.675  0.00  0.00    +0.000 C 
ATOM     12  O   UNL     1       2.082  13.015  19.160  0.00  0.00    +0.000 OA
BRANCH  11  13
ATOM     13  O   UNL     1       1.171  11.985  21.045  0.00  0.00    +0.000 OA
BRANCH  13  14
ATOM     14  C   UNL     1       0.016  12.301  21.804  0.00  0.00    +0.000 A 
ATOM     15  C   UNL     1      -0.530  11.210  22.489  0.00  0.00    +0.000 A 
ATOM     16  C   UNL     1      -1.712  11.359  23.203  0.00  0.00    +0.000 A 
ATOM     17  C   UNL     1      -2.309  12.609  23.265  0.00  0.00    +0.000 A 
ATOM     18  C   UNL     1      -3.655  12.739  23.804  0.00  0.00    +0.000 A 
ATOM     19  O   UNL     1      -4.283  11.795  24.244  0.00  0.00    +0.000 OA
ATOM     20  C   UNL     1      -4.220  14.092  23.767  0.00  0.00    +0.000 A 
ATOM     21  C   UNL     1      -5.597  14.301  23.834  0.00  0.00    +0.000 A 
ATOM     22  C   UNL     1      -6.025  15.629  23.879  0.00  0.00    +0.000 A 
ATOM     23  C   UNL     1      -5.126  16.633  24.217  0.00  0.00    +0.000 A 
ATOM     24  C   UNL     1      -3.770  16.416  23.975  0.00  0.00    +0.000 A 
ATOM     25  C   UNL     1      -3.350  15.152  23.601  0.00  0.00    +0.000 A 
ATOM     26  O   UNL     1      -2.111  15.014  23.008  0.00  0.00    +0.000 OA
ATOM     27  C   UNL     1      -1.683  13.731  22.721  0.00  0.00    +0.000 A 
ATOM     28  C   UNL     1      -0.541  13.579  21.923  0.00  0.00    +0.000 A 
ENDBRANCH  13  14
ENDBRANCH  11  13
ENDBRANCH   1  11
BRANCH   1  29
ATOM     29  C   UNL     1       1.682   9.965  18.250  0.00  0.00    +0.000 C 
BRANCH  29  30
ATOM     30  C   UNL     1       1.872   8.586  18.850  0.00  0.00    +0.000 A 
ATOM     31  C   UNL     1       2.504   7.516  18.203  0.00  0.00    +0.000 A 
ATOM     32  C   UNL     1       2.733   6.310  18.874  0.00  0.00    +0.000 A 
ATOM     33  C   UNL     1       2.311   6.159  20.189  0.00  0.00    +0.000 A 
ATOM     34  C   UNL     1       1.629   7.179  20.832  0.00  0.00    +0.000 A 
ATOM     35  C   UNL     1       1.413   8.387  20.166  0.00  0.00    +0.000 A 
BRANCH  33  36
ATOM     36  O   UNL     1       2.561   5.018  20.890  0.00  0.00    +0.000 OA
ATOM     37  H   UNL     1       2.926   5.263  21.757  0.00  0.00    +0.000 HD
ENDBRANCH  33  36
ENDBRANCH  29  30
ENDBRANCH   1  29
TORSDOF 9
ENDMDL
MODEL 7
REMARK VINA RESULT:      -8.2      2.161      2.715
REMARK  Name = 
REMARK  12 active torsions:
REMARK  status: ('A' for Active; 'I' for Inactive)
REMARK    1  A    between atoms: C_1  and  C_2
REMARK    2  A    between atoms: C_2  and  C_3
REMARK    3  A    between atoms: C_2  and  C_4
REMARK    4  A    between atoms: C_2  and  O_5
REMARK    5  A    between atoms: O_5  and  C_6
REMARK    6  A    between atoms: N_8  and  C_9
REMARK    7  A    between atoms: C_9  and  C_10
REMARK    8  A    between atoms: C_9  and  C_18
REMARK    9  A    between atoms: C_10  and  C_11
REMARK   10  A    between atoms: C_14  and  O_15
REMARK   11  A    between atoms: C_18  and  O_20
REMARK   12  A    between atoms: O_20  and  C_21
REMARK                            x       y       z     vdW  Elec       q    Type
REMARK                         _______ _______ _______ _____ _____    ______ ____
ROOT
ATOM      1  C   UNL     1       0.581  11.067  20.482  0.00  0.00    +0.000 C 
ENDROOT
BRANCH   1   4
ATOM      2  C   UNL     1       1.131  13.466  20.596  0.00  0.00    +0.000 C 
ATOM      3  O   UNL     1      -0.062  13.783  20.603  0.00  0.00    +0.000 OA
ATOM      4  N   UNL     1       1.547  12.154  20.588  0.00  0.00    +0.000 N 
ATOM      5  H   UNL     1       2.544  11.980  20.618  0.00  0.00    +0.000 HD
BRANCH   2   6
ATOM      6  O   UNL     1       2.175  14.320  20.618  0.00  0.00    +0.000 OA
BRANCH   6   8
ATOM      7  C   UNL     1       2.424  13.929  18.200  0.00  0.00    +0.000 C 
ATOM      8  C   UNL     1       2.650  14.905  19.363  0.00  0.00    +0.000 C 
ATOM      9  C   UNL     1       4.119  15.349  19.463  0.00  0.00    +0.000 C 
ATOM     10  C   UNL     1       1.795  16.166  19.105  0.00  0.00    +0.000 C 
ENDBRANCH   6   8
ENDBRANCH   2   6
ENDBRANCH   1   4
BRANCH   1  11
ATOM     11  C   UNL     1       0.950   9.801  21.288  0.00  0.00    +0.000 C 
ATOM     12  O   UNL     1       1.360   9.792  22.439  0.00  0.00    +0.000 OA
BRANCH  11  13
ATOM     13  O   UNL     1       0.686   8.665  20.510  0.00  0.00    +0.000 OA
BRANCH  13  14
ATOM     14  C   UNL     1       1.556   7.677  19.985  0.00  0.00    +0.000 A 
ATOM     15  C   UNL     1       1.512   6.459  20.672  0.00  0.00    +0.000 A 
ATOM     16  C   UNL     1       2.375   5.430  20.318  0.00  0.00    +0.000 A 
ATOM     17  C   UNL     1       3.239   5.612  19.248  0.00  0.00    +0.000 A 
ATOM     18  C   UNL     1       4.303   4.649  19.008  0.00  0.00    +0.000 A 
ATOM     19  O   UNL     1       4.456   3.653  19.689  0.00  0.00    +0.000 OA
ATOM     20  C   UNL     1       5.200   4.966  17.891  0.00  0.00    +0.000 A 
ATOM     21  C   UNL     1       6.474   4.405  17.807  0.00  0.00    +0.000 A 
ATOM     22  C   UNL     1       7.213   4.704  16.661  0.00  0.00    +0.000 A 
ATOM     23  C   UNL     1       6.569   5.205  15.536  0.00  0.00    +0.000 A 
ATOM     24  C   UNL     1       5.371   5.897  15.712  0.00  0.00    +0.000 A 
ATOM     25  C   UNL     1       4.768   5.888  16.957  0.00  0.00    +0.000 A 
ATOM     26  O   UNL     1       3.816   6.846  17.239  0.00  0.00    +0.000 OA
ATOM     27  C   UNL     1       3.172   6.762  18.460  0.00  0.00    +0.000 A 
ATOM     28  C   UNL     1       2.372   7.841  18.860  0.00  0.00    +0.000 A 
ENDBRANCH  13  14
ENDBRANCH  11  13
ENDBRANCH   1  11
BRANCH   1  29
ATOM     29  C   UNL     1       0.234  10.789  19.000  0.00  0.00    +0.000 C 
BRANCH  29  30
ATOM     30  C   UNL     1      -1.206  10.828  18.527  0.00  0.00    +0.000 A 
ATOM     31  C   UNL     1      -2.197  11.663  19.061  0.00  0.00    +0.000 A 
ATOM     32  C   UNL     1      -3.473  11.712  18.489  0.00  0.00    +0.000 A 
ATOM     33  C   UNL     1      -3.772  10.909  17.395  0.00  0.00    +0.000 A 
ATOM     34  C   UNL     1      -2.830  10.030  16.887  0.00  0.00    +0.000 A 
ATOM     35  C   UNL     1      -1.552   9.992  17.449  0.00  0.00    +0.000 A 
BRANCH  33  36
ATOM     36  O   UNL     1      -4.987  10.967  16.782  0.00  0.00    +0.000 OA
ATOM     37  H   UNL     1      -5.654  10.602  17.387  0.00  0.00    +0.000 HD
ENDBRANCH  33  36
ENDBRANCH  29  30
ENDBRANCH   1  29
TORSDOF 9
ENDMDL
MODEL 8
REMARK VINA RESULT:      -8.2      2.339     10.041
REMARK  Name = 
REMARK  12 active torsions:
REMARK  status: ('A' for Active; 'I' for Inactive)
REMARK    1  A    between atoms: C_1  and  C_2
REMARK    2  A    between atoms: C_2  and  C_3
REMARK    3  A    between atoms: C_2  and  C_4
REMARK    4  A    between atoms: C_2  and  O_5
REMARK    5  A    between atoms: O_5  and  C_6
REMARK    6  A    between atoms: N_8  and  C_9
REMARK    7  A    between atoms: C_9  and  C_10
REMARK    8  A    between atoms: C_9  and  C_18
REMARK    9  A    between atoms: C_10  and  C_11
REMARK   10  A    between atoms: C_14  and  O_15
REMARK   11  A    between atoms: C_18  and  O_20
REMARK   12  A    between atoms: O_20  and  C_21
REMARK                            x       y       z     vdW  Elec       q    Type
REMARK                         _______ _______ _______ _____ _____    ______ ____
ROOT
ATOM      1  C   UNL     1       2.978   7.473  18.056  0.00  0.00    +0.000 C 
ENDROOT
BRANCH   1   4
ATOM      2  C   UNL     1       2.183   5.567  19.400  0.00  0.00    +0.000 C 
ATOM      3  O   UNL     1       2.904   5.882  20.351  0.00  0.00    +0.000 OA
ATOM      4  N   UNL     1       2.112   6.315  18.247  0.00  0.00    +0.000 N 
ATOM      5  H   UNL     1       1.469   6.006  17.529  0.00  0.00    +0.000 HD
BRANCH   2   6
ATOM      6  O   UNL     1       1.363   4.497  19.352  0.00  0.00    +0.000 OA
BRANCH   6   8
ATOM      7  C   UNL     1       1.743   2.759  21.054  0.00  0.00    +0.000 C 
ATOM      8  C   UNL     1       1.915   3.160  19.582  0.00  0.00    +0.000 C 
ATOM      9  C   UNL     1       3.380   3.063  19.126  0.00  0.00    +0.000 C 
ATOM     10  C   UNL     1       1.088   2.181  18.719  0.00  0.00    +0.000 C 
ENDBRANCH   6   8
ENDBRANCH   2   6
ENDBRANCH   1   4
BRANCH   1  11
ATOM     11  C   UNL     1       2.232   8.824  17.974  0.00  0.00    +0.000 C 
ATOM     12  O   UNL     1       2.617   9.805  17.355  0.00  0.00    +0.000 OA
BRANCH  11  13
ATOM     13  O   UNL     1       1.021   8.726  18.673  0.00  0.00    +0.000 OA
BRANCH  13  14
ATOM     14  C   UNL     1       0.336   9.669  19.478  0.00  0.00    +0.000 A 
ATOM     15  C   UNL     1       1.007  10.002  20.659  0.00  0.00    +0.000 A 
ATOM     16  C   UNL     1       0.410  10.850  21.583  0.00  0.00    +0.000 A 
ATOM     17  C   UNL     1      -0.832  11.395  21.294  0.00  0.00    +0.000 A 
ATOM     18  C   UNL     1      -1.575  12.090  22.335  0.00  0.00    +0.000 A 
ATOM     19  O   UNL     1      -1.139  12.253  23.458  0.00  0.00    +0.000 OA
ATOM     20  C   UNL     1      -2.904  12.574  21.944  0.00  0.00    +0.000 A 
ATOM     21  C   UNL     1      -3.878  12.858  22.900  0.00  0.00    +0.000 A 
ATOM     22  C   UNL     1      -5.077  13.395  22.429  0.00  0.00    +0.000 A 
ATOM     23  C   UNL     1      -5.132  13.950  21.156  0.00  0.00    +0.000 A 
ATOM     24  C   UNL     1      -4.223  13.501  20.199  0.00  0.00    +0.000 A 
ATOM     25  C   UNL     1      -3.183  12.680  20.595  0.00  0.00    +0.000 A 
ATOM     26  O   UNL     1      -2.518  11.943  19.636  0.00  0.00    +0.000 OA
ATOM     27  C   UNL     1      -1.431  11.195  20.049  0.00  0.00    +0.000 A 
ATOM     28  C   UNL     1      -0.884  10.272  19.148  0.00  0.00    +0.000 A 
ENDBRANCH  13  14
ENDBRANCH  11  13
ENDBRANCH   1  11
BRANCH   1  29
ATOM     29  C   UNL     1       3.964   7.228  16.888  0.00  0.00    +0.000 C 
BRANCH  29  30
ATOM     30  C   UNL     1       5.117   6.257  17.047  0.00  0.00    +0.000 A 
ATOM     31  C   UNL     1       5.680   5.512  16.001  0.00  0.00    +0.000 A 
ATOM     32  C   UNL     1       6.815   4.722  16.218  0.00  0.00    +0.000 A 
ATOM     33  C   UNL     1       7.379   4.655  17.485  0.00  0.00    +0.000 A 
ATOM     34  C   UNL     1       6.805   5.332  18.549  0.00  0.00    +0.000 A 
ATOM     35  C   UNL     1       5.682   6.131  18.330  0.00  0.00    +0.000 A 
BRANCH  33  36
ATOM     36  O   UNL     1       8.511   3.936  17.722  0.00  0.00    +0.000 OA
ATOM     37  H   UNL     1       8.607   3.272  17.019  0.00  0.00    +0.000 HD
ENDBRANCH  33  36
ENDBRANCH  29  30
ENDBRANCH   1  29
TORSDOF 9
ENDMDL
MODEL 9
REMARK VINA RESULT:      -8.1      2.817     10.058
REMARK  Name = 
REMARK  12 active torsions:
REMARK  status: ('A' for Active; 'I' for Inactive)
REMARK    1  A    between atoms: C_1  and  C_2
REMARK    2  A    between atoms: C_2  and  C_3
REMARK    3  A    between atoms: C_2  and  C_4
REMARK    4  A    between atoms: C_2  and  O_5
REMARK    5  A    between atoms: O_5  and  C_6
REMARK    6  A    between atoms: N_8  and  C_9
REMARK    7  A    between atoms: C_9  and  C_10
REMARK    8  A    between atoms: C_9  and  C_18
REMARK    9  A    between atoms: C_10  and  C_11
REMARK   10  A    between atoms: C_14  and  O_15
REMARK   11  A    between atoms: C_18  and  O_20
REMARK   12  A    between atoms: O_20  and  C_21
REMARK                            x       y       z     vdW  Elec       q    Type
REMARK                         _______ _______ _______ _____ _____    ______ ____
ROOT
ATOM      1  C   UNL     1       2.717   7.233  18.807  0.00  0.00    +0.000 C 
ENDROOT
BRANCH   1   4
ATOM      2  C   UNL     1       1.932   5.087  19.730  0.00  0.00    +0.000 C 
ATOM      3  O   UNL     1       2.248   5.416  20.877  0.00  0.00    +0.000 OA
ATOM      4  N   UNL     1       2.077   5.932  18.653  0.00  0.00    +0.000 N 
ATOM      5  H   UNL     1       1.760   5.598  17.751  0.00  0.00    +0.000 HD
BRANCH   2   6
ATOM      6  O   UNL     1       1.391   3.906  19.368  0.00  0.00    +0.000 OA
BRANCH   6   8
ATOM      7  C   UNL     1       3.538   2.713  19.536  0.00  0.00    +0.000 C 
ATOM      8  C   UNL     1       2.239   2.892  18.738  0.00  0.00    +0.000 C 
ATOM      9  C   UNL     1       2.512   3.217  17.260  0.00  0.00    +0.000 C 
ATOM     10  C   UNL     1       1.457   1.560  18.789  0.00  0.00    +0.000 C 
ENDBRANCH   6   8
ENDBRANCH   2   6
ENDBRANCH   1   4
BRANCH   1  11
ATOM     11  C   UNL     1       1.738   8.407  19.032  0.00  0.00    +0.000 C 
ATOM     12  O   UNL     1       1.151   9.013  18.148  0.00  0.00    +0.000 OA
BRANCH  11  13
ATOM     13  O   UNL     1       1.588   8.626  20.408  0.00  0.00    +0.000 OA
BRANCH  13  14
ATOM     14  C   UNL     1       0.817   9.581  21.117  0.00  0.00    +0.000 A 
ATOM     15  C   UNL     1      -0.104   9.020  22.008  0.00  0.00    +0.000 A 
ATOM     16  C   UNL     1      -0.983   9.838  22.706  0.00  0.00    +0.000 A 
ATOM     17  C   UNL     1      -0.900  11.212  22.542  0.00  0.00    +0.000 A 
ATOM     18  C   UNL     1      -1.951  12.067  23.074  0.00  0.00    +0.000 A 
ATOM     19  O   UNL     1      -2.899  11.634  23.699  0.00  0.00    +0.000 OA
ATOM     20  C   UNL     1      -1.800  13.499  22.793  0.00  0.00    +0.000 A 
ATOM     21  C   UNL     1      -2.893  14.363  22.848  0.00  0.00    +0.000 A 
ATOM     22  C   UNL     1      -2.627  15.719  22.648  0.00  0.00    +0.000 A 
ATOM     23  C   UNL     1      -1.326  16.192  22.771  0.00  0.00    +0.000 A 
ATOM     24  C   UNL     1      -0.275  15.304  22.545  0.00  0.00    +0.000 A 
ATOM     25  C   UNL     1      -0.554  13.956  22.409  0.00  0.00    +0.000 A 
ATOM     26  O   UNL     1       0.394  13.138  21.828  0.00  0.00    +0.000 OA
ATOM     27  C   UNL     1       0.121  11.783  21.780  0.00  0.00    +0.000 A 
ATOM     28  C   UNL     1       0.955  10.969  21.003  0.00  0.00    +0.000 A 
ENDBRANCH  13  14
ENDBRANCH  11  13
ENDBRANCH   1  11
BRANCH   1  29
ATOM     29  C   UNL     1       3.738   7.476  17.670  0.00  0.00    +0.000 C 
BRANCH  29  30
ATOM     30  C   UNL     1       4.864   6.490  17.423  0.00  0.00    +0.000 A 
ATOM     31  C   UNL     1       5.354   6.142  16.157  0.00  0.00    +0.000 A 
ATOM     32  C   UNL     1       6.470   5.307  16.029  0.00  0.00    +0.000 A 
ATOM     33  C   UNL     1       7.087   4.798  17.164  0.00  0.00    +0.000 A 
ATOM     34  C   UNL     1       6.585   5.077  18.425  0.00  0.00    +0.000 A 
ATOM     35  C   UNL     1       5.480   5.921  18.554  0.00  0.00    +0.000 A 
BRANCH  33  36
ATOM     36  O   UNL     1       8.204   4.024  17.079  0.00  0.00    +0.000 OA
ATOM     37  H   UNL     1       8.145   3.324  17.751  0.00  0.00    +0.000 HD
ENDBRANCH  33  36
ENDBRANCH  29  30
ENDBRANCH   1  29
TORSDOF 9
ENDMDL
