MODEL 1
REMARK VINA RESULT:      -7.2      0.000      0.000
REMARK  Name = 
REMARK  15 active torsions:
REMARK  status: ('A' for Active; 'I' for Inactive)
REMARK    1  A    between atoms: C_1  and  C_2
REMARK    2  A    between atoms: C_2  and  C_3
REMARK    3  A    between atoms: C_4  and  C_5
REMARK    4  A    between atoms: C_5  and  C_6
REMARK    5  A    between atoms: C_6  and  O_7
REMARK    6  A    between atoms: C_10  and  C_11
REMARK    7  A    between atoms: C_11  and  C_13
REMARK    8  A    between atoms: C_13  and  C_14
REMARK    9  A    between atoms: C_14  and  C_15
REMARK   10  A    between atoms: C_14  and  C_16
REMARK   11  A    between atoms: C_17  and  O_18
REMARK   12  A    between atoms: C_22  and  C_23
REMARK   13  A    between atoms: C_23  and  C_24
REMARK   14  A    between atoms: C_23  and  C_25
REMARK   15  A    between atoms: C_23  and  O_26
REMARK                            x       y       z     vdW  Elec       q    Type
REMARK                         _______ _______ _______ _____ _____    ______ ____
ROOT
ATOM      1  C   UNL     1      -0.042  10.567  19.093  0.00  0.00    +0.000 C 
ATOM      2  C   UNL     1      -0.197  11.744  20.108  0.00  0.00    +0.000 C 
ATOM      3  O   UNL     1      -0.216  12.924  19.755  0.00  0.00    +0.000 OA
ATOM      4  C   UNL     1      -0.355  11.414  21.560  0.00  0.00    +0.000 C 
ATOM      5  C   UNL     1       0.179  10.255  21.997  0.00  0.00    +0.000 C 
ATOM      6  C   UNL     1       0.822   9.350  21.095  0.00  0.00    +0.000 C 
ATOM      7  C   UNL     1       0.728   9.472  19.775  0.00  0.00    +0.000 C 
ATOM      8  O   UNL     1       1.381   8.489  19.036  0.00  0.00    +0.000 OA
ATOM      9  C   UNL     1       2.183   7.805  20.037  0.00  0.00    +0.000 C 
ATOM     10  C   UNL     1       1.589   8.126  21.422  0.00  0.00    +0.000 C 
ENDROOT
BRANCH   9  11
ATOM     11  C   UNL     1       2.333   6.298  19.722  0.00  0.00    +0.000 C 
ATOM     12  C   UNL     1       1.352   5.414  20.502  0.00  0.00    +0.000 C 
ATOM     13  C   UNL     1       2.137   6.052  18.220  0.00  0.00    +0.000 C 
BRANCH  11  14
ATOM     14  O   UNL     1       3.668   5.898  20.066  0.00  0.00    +0.000 OA
ATOM     15  H   UNL     1       3.815   6.114  21.003  0.00  0.00    +0.000 HD
ENDBRANCH  11  14
ENDBRANCH   9  11
BRANCH   1  16
ATOM     16  O   UNL     1       0.657  11.003  17.926  0.00  0.00    +0.000 OA
ATOM     17  H   UNL     1       0.172  10.667  17.155  0.00  0.00    +0.000 HD
ENDBRANCH   1  16
BRANCH   4  18
ATOM     18  C   UNL     1      -1.090  12.290  22.516  0.00  0.00    +0.000 C 
ATOM     19  O   UNL     1      -0.449  12.988  23.309  0.00  0.00    +0.000 OA
BRANCH  18  20
ATOM     20  C   UNL     1      -2.608  12.239  22.584  0.00  0.00    +0.000 C 
BRANCH  20  21
ATOM     21  C   UNL     1      -3.216  13.222  23.597  0.00  0.00    +0.000 C 
ATOM     22  C   UNL     1      -3.935  14.383  22.908  0.00  0.00    +0.000 C 
ATOM     23  C   UNL     1      -4.179  12.489  24.532  0.00  0.00    +0.000 C 
ENDBRANCH  20  21
ENDBRANCH  18  20
ENDBRANCH   4  18
BRANCH   5  24
ATOM     24  O   UNL     1       0.161   9.819  23.303  0.00  0.00    +0.000 OA
ATOM     25  H   UNL     1       1.076   9.873  23.665  0.00  0.00    +0.000 HD
ENDBRANCH   5  24
BRANCH   1  26
ATOM     26  C   UNL     1      -1.478  10.156  18.696  0.00  0.00    +0.000 C 
BRANCH  26  30
ATOM     27  C   UNL     1      -2.886  10.174  15.053  0.00  0.00    +0.000 C 
ATOM     28  C   UNL     1      -2.830  10.362  16.543  0.00  0.00    +0.000 C 
ATOM     29  C   UNL     1      -4.044  10.949  17.206  0.00  0.00    +0.000 C 
ATOM     30  C   UNL     1      -1.721   9.999  17.216  0.00  0.00    +0.000 C 
ENDBRANCH  26  30
ENDBRANCH   1  26
TORSDOF 9
ENDMDL
MODEL 2
REMARK VINA RESULT:      -7.2      6.876     10.474
REMARK  Name = 
REMARK  15 active torsions:
REMARK  status: ('A' for Active; 'I' for Inactive)
REMARK    1  A    between atoms: C_1  and  C_2
REMARK    2  A    between atoms: C_2  and  C_3
REMARK    3  A    between atoms: C_4  and  C_5
REMARK    4  A    between atoms: C_5  and  C_6
REMARK    5  A    between atoms: C_6  and  O_7
REMARK    6  A    between atoms: C_10  and  C_11
REMARK    7  A    between atoms: C_11  and  C_13
REMARK    8  A    between atoms: C_13  and  C_14
REMARK    9  A    between atoms: C_14  and  C_15
REMARK   10  A    between atoms: C_14  and  C_16
REMARK   11  A    between atoms: C_17  and  O_18
REMARK   12  A    between atoms: C_22  and  C_23
REMARK   13  A    between atoms: C_23  and  C_24
REMARK   14  A    between atoms: C_23  and  C_25
REMARK   15  A    between atoms: C_23  and  O_26
REMARK                            x       y       z     vdW  Elec       q    Type
REMARK                         _______ _______ _______ _____ _____    ______ ____
ROOT
ATOM      1  C   UNL     1       4.084   6.478  17.222  0.00  0.00    +0.000 C 
ATOM      2  C   UNL     1       4.914   6.275  15.915  0.00  0.00    +0.000 C 
ATOM      3  O   UNL     1       5.070   7.171  15.084  0.00  0.00    +0.000 OA
ATOM      4  C   UNL     1       5.567   4.946  15.687  0.00  0.00    +0.000 C 
ATOM      5  C   UNL     1       4.996   3.866  16.259  0.00  0.00    +0.000 C 
ATOM      6  C   UNL     1       3.846   3.995  17.100  0.00  0.00    +0.000 C 
ATOM      7  C   UNL     1       3.421   5.171  17.552  0.00  0.00    +0.000 C 
ATOM      8  O   UNL     1       2.309   5.123  18.388  0.00  0.00    +0.000 OA
ATOM      9  C   UNL     1       1.846   3.753  18.241  0.00  0.00    +0.000 C 
ATOM     10  C   UNL     1       3.010   2.917  17.676  0.00  0.00    +0.000 C 
ENDROOT
BRANCH   9  11
ATOM     11  C   UNL     1       1.226   3.211  19.550  0.00  0.00    +0.000 C 
ATOM     12  C   UNL     1       2.099   2.162  20.247  0.00  0.00    +0.000 C 
ATOM     13  C   UNL     1       0.963   4.367  20.526  0.00  0.00    +0.000 C 
BRANCH  11  14
ATOM     14  O   UNL     1      -0.035   2.606  19.232  0.00  0.00    +0.000 OA
ATOM     15  H   UNL     1      -0.736   3.130  19.657  0.00  0.00    +0.000 HD
ENDBRANCH  11  14
ENDBRANCH   9  11
BRANCH   1  16
ATOM     16  O   UNL     1       3.097   7.493  17.032  0.00  0.00    +0.000 OA
ATOM     17  H   UNL     1       2.861   7.836  17.910  0.00  0.00    +0.000 HD
ENDBRANCH   1  16
BRANCH   4  18
ATOM     18  C   UNL     1       6.813   4.780  14.886  0.00  0.00    +0.000 C 
ATOM     19  O   UNL     1       7.901   4.730  15.470  0.00  0.00    +0.000 OA
BRANCH  18  20
ATOM     20  C   UNL     1       6.750   4.781  13.368  0.00  0.00    +0.000 C 
BRANCH  20  21
ATOM     21  C   UNL     1       6.231   3.464  12.769  0.00  0.00    +0.000 C 
ATOM     22  C   UNL     1       4.804   3.602  12.233  0.00  0.00    +0.000 C 
ATOM     23  C   UNL     1       7.165   2.985  11.657  0.00  0.00    +0.000 C 
ENDBRANCH  20  21
ENDBRANCH  18  20
ENDBRANCH   4  18
BRANCH   5  24
ATOM     24  O   UNL     1       5.439   2.570  16.119  0.00  0.00    +0.000 OA
ATOM     25  H   UNL     1       5.865   2.291  16.963  0.00  0.00    +0.000 HD
ENDBRANCH   5  24
BRANCH   1  26
ATOM     26  C   UNL     1       5.090   6.948  18.298  0.00  0.00    +0.000 C 
BRANCH  26  30
ATOM     27  C   UNL     1       8.398   5.043  19.125  0.00  0.00    +0.000 C 
ATOM     28  C   UNL     1       7.481   6.146  18.674  0.00  0.00    +0.000 C 
ATOM     29  C   UNL     1       8.122   7.432  18.233  0.00  0.00    +0.000 C 
ATOM     30  C   UNL     1       6.149   5.944  18.674  0.00  0.00    +0.000 C 
ENDBRANCH  26  30
ENDBRANCH   1  26
TORSDOF 9
ENDMDL
MODEL 3
REMARK VINA RESULT:      -7.0      2.891      8.684
REMARK  Name = 
REMARK  15 active torsions:
REMARK  status: ('A' for Active; 'I' for Inactive)
REMARK    1  A    between atoms: C_1  and  C_2
REMARK    2  A    between atoms: C_2  and  C_3
REMARK    3  A    between atoms: C_4  and  C_5
REMARK    4  A    between atoms: C_5  and  C_6
REMARK    5  A    between atoms: C_6  and  O_7
REMARK    6  A    between atoms: C_10  and  C_11
REMARK    7  A    between atoms: C_11  and  C_13
REMARK    8  A    between atoms: C_13  and  C_14
REMARK    9  A    between atoms: C_14  and  C_15
REMARK   10  A    between atoms: C_14  and  C_16
REMARK   11  A    between atoms: C_17  and  O_18
REMARK   12  A    between atoms: C_22  and  C_23
REMARK   13  A    between atoms: C_23  and  C_24
REMARK   14  A    between atoms: C_23  and  C_25
REMARK   15  A    between atoms: C_23  and  O_26
REMARK                            x       y       z     vdW  Elec       q    Type
REMARK                         _______ _______ _______ _____ _____    ______ ____
ROOT
ATOM      1  C   UNL     1       2.454   6.285  19.775  0.00  0.00    +0.000 C 
ATOM      2  C   UNL     1       3.851   5.816  19.258  0.00  0.00    +0.000 C 
ATOM      3  O   UNL     1       4.632   5.168  19.958  0.00  0.00    +0.000 OA
ATOM      4  C   UNL     1       4.237   6.146  17.849  0.00  0.00    +0.000 C 
ATOM      5  C   UNL     1       3.682   7.242  17.293  0.00  0.00    +0.000 C 
ATOM      6  C   UNL     1       2.719   8.025  18.003  0.00  0.00    +0.000 C 
ATOM      7  C   UNL     1       2.146   7.605  19.127  0.00  0.00    +0.000 C 
ATOM      8  O   UNL     1       1.203   8.469  19.677  0.00  0.00    +0.000 OA
ATOM      9  C   UNL     1       1.394   9.691  18.914  0.00  0.00    +0.000 C 
ATOM     10  C   UNL     1       2.133   9.328  17.611  0.00  0.00    +0.000 C 
ENDROOT
BRANCH   9  11
ATOM     11  C   UNL     1       0.066  10.462  18.720  0.00  0.00    +0.000 C 
ATOM     12  C   UNL     1      -0.873   9.807  17.700  0.00  0.00    +0.000 C 
ATOM     13  C   UNL     1      -0.669  10.589  20.061  0.00  0.00    +0.000 C 
BRANCH  11  14
ATOM     14  O   UNL     1       0.378  11.784  18.259  0.00  0.00    +0.000 OA
ATOM     15  H   UNL     1       1.315  11.799  17.997  0.00  0.00    +0.000 HD
ENDBRANCH  11  14
ENDBRANCH   9  11
BRANCH   1  16
ATOM     16  O   UNL     1       2.470   6.428  21.195  0.00  0.00    +0.000 OA
ATOM     17  H   UNL     1       1.573   6.678  21.471  0.00  0.00    +0.000 HD
ENDBRANCH   1  16
BRANCH   4  18
ATOM     18  C   UNL     1       5.172   5.309  17.046  0.00  0.00    +0.000 C 
ATOM     19  O   UNL     1       4.747   4.284  16.501  0.00  0.00    +0.000 OA
BRANCH  18  20
ATOM     20  C   UNL     1       6.651   5.658  16.990  0.00  0.00    +0.000 C 
BRANCH  20  21
ATOM     21  C   UNL     1       7.107   6.603  18.112  0.00  0.00    +0.000 C 
ATOM     22  C   UNL     1       8.046   5.908  19.100  0.00  0.00    +0.000 C 
ATOM     23  C   UNL     1       7.789   7.837  17.519  0.00  0.00    +0.000 C 
ENDBRANCH  20  21
ENDBRANCH  18  20
ENDBRANCH   4  18
BRANCH   5  24
ATOM     24  O   UNL     1       3.955   7.712  16.028  0.00  0.00    +0.000 OA
ATOM     25  H   UNL     1       4.933   7.754  15.913  0.00  0.00    +0.000 HD
ENDBRANCH   5  24
BRANCH   1  26
ATOM     26  C   UNL     1       1.460   5.164  19.392  0.00  0.00    +0.000 C 
BRANCH  26  30
ATOM     27  C   UNL     1       1.221   2.183  21.904  0.00  0.00    +0.000 C 
ATOM     28  C   UNL     1       1.660   2.995  20.717  0.00  0.00    +0.000 C 
ATOM     29  C   UNL     1       2.705   2.390  19.822  0.00  0.00    +0.000 C 
ATOM     30  C   UNL     1       1.109   4.205  20.500  0.00  0.00    +0.000 C 
ENDBRANCH  26  30
ENDBRANCH   1  26
TORSDOF 9
ENDMDL
MODEL 4
REMARK VINA RESULT:      -6.9      4.621     10.355
REMARK  Name = 
REMARK  15 active torsions:
REMARK  status: ('A' for Active; 'I' for Inactive)
REMARK    1  A    between atoms: C_1  and  C_2
REMARK    2  A    between atoms: C_2  and  C_3
REMARK    3  A    between atoms: C_4  and  C_5
REMARK    4  A    between atoms: C_5  and  C_6
REMARK    5  A    between atoms: C_6  and  O_7
REMARK    6  A    between atoms: C_10  and  C_11
REMARK    7  A    between atoms: C_11  and  C_13
REMARK    8  A    between atoms: C_13  and  C_14
REMARK    9  A    between atoms: C_14  and  C_15
REMARK   10  A    between atoms: C_14  and  C_16
REMARK   11  A    between atoms: C_17  and  O_18
REMARK   12  A    between atoms: C_22  and  C_23
REMARK   13  A    between atoms: C_23  and  C_24
REMARK   14  A    between atoms: C_23  and  C_25
REMARK   15  A    between atoms: C_23  and  O_26
REMARK                            x       y       z     vdW  Elec       q    Type
REMARK                         _______ _______ _______ _____ _____    ______ ____
ROOT
ATOM      1  C   UNL     1       5.630   4.518  18.479  0.00  0.00    +0.000 C 
ATOM      2  C   UNL     1       6.685   4.621  17.332  0.00  0.00    +0.000 C 
ATOM      3  O   UNL     1       7.840   4.209  17.456  0.00  0.00    +0.000 OA
ATOM      4  C   UNL     1       6.260   5.218  16.026  0.00  0.00    +0.000 C 
ATOM      5  C   UNL     1       5.248   6.110  16.050  0.00  0.00    +0.000 C 
ATOM      6  C   UNL     1       4.571   6.428  17.268  0.00  0.00    +0.000 C 
ATOM      7  C   UNL     1       4.726   5.714  18.379  0.00  0.00    +0.000 C 
ATOM      8  O   UNL     1       3.969   6.132  19.469  0.00  0.00    +0.000 OA
ATOM      9  C   UNL     1       3.456   7.422  19.037  0.00  0.00    +0.000 C 
ATOM     10  C   UNL     1       3.558   7.484  17.501  0.00  0.00    +0.000 C 
ENDROOT
BRANCH   9  11
ATOM     11  C   UNL     1       2.048   7.703  19.612  0.00  0.00    +0.000 C 
ATOM     12  C   UNL     1       1.202   8.624  18.725  0.00  0.00    +0.000 C 
ATOM     13  C   UNL     1       1.292   6.384  19.821  0.00  0.00    +0.000 C 
BRANCH  11  14
ATOM     14  O   UNL     1       2.203   8.332  20.892  0.00  0.00    +0.000 OA
ATOM     15  H   UNL     1       2.368   9.279  20.744  0.00  0.00    +0.000 HD
ENDBRANCH  11  14
ENDBRANCH   9  11
BRANCH   1  16
ATOM     16  O   UNL     1       6.278   4.500  19.752  0.00  0.00    +0.000 OA
ATOM     17  H   UNL     1       5.963   5.273  20.249  0.00  0.00    +0.000 HD
ENDBRANCH   1  16
BRANCH   4  18
ATOM     18  C   UNL     1       6.884   4.851  14.723  0.00  0.00    +0.000 C 
ATOM     19  O   UNL     1       7.738   5.597  14.233  0.00  0.00    +0.000 OA
BRANCH  18  20
ATOM     20  C   UNL     1       6.395   3.630  13.961  0.00  0.00    +0.000 C 
BRANCH  20  21
ATOM     21  C   UNL     1       6.232   3.867  12.451  0.00  0.00    +0.000 C 
ATOM     22  C   UNL     1       7.265   3.089  11.635  0.00  0.00    +0.000 C 
ATOM     23  C   UNL     1       4.818   3.488  12.007  0.00  0.00    +0.000 C 
ENDBRANCH  20  21
ENDBRANCH  18  20
ENDBRANCH   4  18
BRANCH   5  24
ATOM     24  O   UNL     1       4.761   6.782  14.951  0.00  0.00    +0.000 OA
ATOM     25  H   UNL     1       3.778   6.720  14.956  0.00  0.00    +0.000 HD
ENDBRANCH   5  24
BRANCH   1  26
ATOM     26  C   UNL     1       4.899   3.173  18.266  0.00  0.00    +0.000 C 
BRANCH  26  30
ATOM     27  C   UNL     1       1.539   2.547  20.156  0.00  0.00    +0.000 C 
ATOM     28  C   UNL     1       2.486   2.943  19.058  0.00  0.00    +0.000 C 
ATOM     29  C   UNL     1       1.879   3.423  17.769  0.00  0.00    +0.000 C 
ATOM     30  C   UNL     1       3.814   2.861  19.265  0.00  0.00    +0.000 C 
ENDBRANCH  26  30
ENDBRANCH   1  26
TORSDOF 9
ENDMDL
MODEL 5
REMARK VINA RESULT:      -6.8      3.302      8.691
REMARK  Name = 
REMARK  15 active torsions:
REMARK  status: ('A' for Active; 'I' for Inactive)
REMARK    1  A    between atoms: C_1  and  C_2
REMARK    2  A    between atoms: C_2  and  C_3
REMARK    3  A    between atoms: C_4  and  C_5
REMARK    4  A    between atoms: C_5  and  C_6
REMARK    5  A    between atoms: C_6  and  O_7
REMARK    6  A    between atoms: C_10  and  C_11
REMARK    7  A    between atoms: C_11  and  C_13
REMARK    8  A    between atoms: C_13  and  C_14
REMARK    9  A    between atoms: C_14  and  C_15
REMARK   10  A    between atoms: C_14  and  C_16
REMARK   11  A    between atoms: C_17  and  O_18
REMARK   12  A    between atoms: C_22  and  C_23
REMARK   13  A    between atoms: C_23  and  C_24
REMARK   14  A    between atoms: C_23  and  C_25
REMARK   15  A    between atoms: C_23  and  O_26
REMARK                            x       y       z     vdW  Elec       q    Type
REMARK                         _______ _______ _______ _____ _____    ______ ____
ROOT
ATOM      1  C   UNL     1       2.401   6.086  19.665  0.00  0.00    +0.000 C 
ATOM      2  C   UNL     1       3.808   5.611  19.180  0.00  0.00    +0.000 C 
ATOM      3  O   UNL     1       4.534   4.887  19.863  0.00  0.00    +0.000 OA
ATOM      4  C   UNL     1       4.272   6.034  17.820  0.00  0.00    +0.000 C 
ATOM      5  C   UNL     1       3.777   7.187  17.325  0.00  0.00    +0.000 C 
ATOM      6  C   UNL     1       2.804   7.945  18.047  0.00  0.00    +0.000 C 
ATOM      7  C   UNL     1       2.164   7.461  19.107  0.00  0.00    +0.000 C 
ATOM      8  O   UNL     1       1.221   8.311  19.676  0.00  0.00    +0.000 OA
ATOM      9  C   UNL     1       1.485   9.581  19.020  0.00  0.00    +0.000 C 
ATOM     10  C   UNL     1       2.276   9.293  17.730  0.00  0.00    +0.000 C 
ENDROOT
BRANCH   9  11
ATOM     11  C   UNL     1       0.192  10.407  18.824  0.00  0.00    +0.000 C 
ATOM     12  C   UNL     1      -0.856  10.164  19.916  0.00  0.00    +0.000 C 
ATOM     13  C   UNL     1       0.526  11.905  18.781  0.00  0.00    +0.000 C 
BRANCH  11  14
ATOM     14  O   UNL     1      -0.384  10.046  17.561  0.00  0.00    +0.000 OA
ATOM     15  H   UNL     1       0.010   9.202  17.280  0.00  0.00    +0.000 HD
ENDBRANCH  11  14
ENDBRANCH   9  11
BRANCH   1  16
ATOM     16  O   UNL     1       2.351   6.121  21.091  0.00  0.00    +0.000 OA
ATOM     17  H   UNL     1       2.756   6.957  21.375  0.00  0.00    +0.000 HD
ENDBRANCH   1  16
BRANCH   4  18
ATOM     18  C   UNL     1       5.221   5.230  16.999  0.00  0.00    +0.000 C 
ATOM     19  O   UNL     1       4.806   4.228  16.407  0.00  0.00    +0.000 OA
BRANCH  18  20
ATOM     20  C   UNL     1       6.700   5.581  16.982  0.00  0.00    +0.000 C 
BRANCH  20  21
ATOM     21  C   UNL     1       7.131   6.506  18.131  0.00  0.00    +0.000 C 
ATOM     22  C   UNL     1       8.051   5.794  19.124  0.00  0.00    +0.000 C 
ATOM     23  C   UNL     1       7.822   7.752  17.575  0.00  0.00    +0.000 C 
ENDBRANCH  20  21
ENDBRANCH  18  20
ENDBRANCH   4  18
BRANCH   5  24
ATOM     24  O   UNL     1       4.127   7.742  16.113  0.00  0.00    +0.000 OA
ATOM     25  H   UNL     1       4.355   8.689  16.256  0.00  0.00    +0.000 HD
ENDBRANCH   5  24
BRANCH   1  26
ATOM     26  C   UNL     1       1.395   5.030  19.150  0.00  0.00    +0.000 C 
BRANCH  26  30
ATOM     27  C   UNL     1       2.754   1.417  18.556  0.00  0.00    +0.000 C 
ATOM     28  C   UNL     1       2.163   2.602  19.268  0.00  0.00    +0.000 C 
ATOM     29  C   UNL     1       1.780   2.413  20.710  0.00  0.00    +0.000 C 
ATOM     30  C   UNL     1       2.007   3.765  18.607  0.00  0.00    +0.000 C 
ENDBRANCH  26  30
ENDBRANCH   1  26
TORSDOF 9
ENDMDL
MODEL 6
REMARK VINA RESULT:      -6.7      5.666      8.953
REMARK  Name = 
REMARK  15 active torsions:
REMARK  status: ('A' for Active; 'I' for Inactive)
REMARK    1  A    between atoms: C_1  and  C_2
REMARK    2  A    between atoms: C_2  and  C_3
REMARK    3  A    between atoms: C_4  and  C_5
REMARK    4  A    between atoms: C_5  and  C_6
REMARK    5  A    between atoms: C_6  and  O_7
REMARK    6  A    between atoms: C_10  and  C_11
REMARK    7  A    between atoms: C_11  and  C_13
REMARK    8  A    between atoms: C_13  and  C_14
REMARK    9  A    between atoms: C_14  and  C_15
REMARK   10  A    between atoms: C_14  and  C_16
REMARK   11  A    between atoms: C_17  and  O_18
REMARK   12  A    between atoms: C_22  and  C_23
REMARK   13  A    between atoms: C_23  and  C_24
REMARK   14  A    between atoms: C_23  and  C_25
REMARK   15  A    between atoms: C_23  and  O_26
REMARK                            x       y       z     vdW  Elec       q    Type
REMARK                         _______ _______ _______ _____ _____    ______ ____
ROOT
ATOM      1  C   UNL     1       5.544   5.981  17.254  0.00  0.00    +0.000 C 
ATOM      2  C   UNL     1       5.357   5.283  18.639  0.00  0.00    +0.000 C 
ATOM      3  O   UNL     1       5.780   5.770  19.688  0.00  0.00    +0.000 OA
ATOM      4  C   UNL     1       4.608   3.986  18.686  0.00  0.00    +0.000 C 
ATOM      5  C   UNL     1       4.621   3.219  17.577  0.00  0.00    +0.000 C 
ATOM      6  C   UNL     1       5.277   3.656  16.383  0.00  0.00    +0.000 C 
ATOM      7  C   UNL     1       5.697   4.906  16.216  0.00  0.00    +0.000 C 
ATOM      8  O   UNL     1       6.284   5.180  14.983  0.00  0.00    +0.000 OA
ATOM      9  C   UNL     1       6.461   3.859  14.404  0.00  0.00    +0.000 C 
ATOM     10  C   UNL     1       5.521   2.886  15.141  0.00  0.00    +0.000 C 
ENDROOT
BRANCH   9  11
ATOM     11  C   UNL     1       6.306   3.879  12.865  0.00  0.00    +0.000 C 
ATOM     12  C   UNL     1       4.867   4.140  12.403  0.00  0.00    +0.000 C 
ATOM     13  C   UNL     1       7.223   4.949  12.258  0.00  0.00    +0.000 C 
BRANCH  11  14
ATOM     14  O   UNL     1       6.716   2.603  12.355  0.00  0.00    +0.000 OA
ATOM     15  H   UNL     1       7.035   2.068  13.103  0.00  0.00    +0.000 HD
ENDBRANCH  11  14
ENDBRANCH   9  11
BRANCH   1  16
ATOM     16  O   UNL     1       6.702   6.816  17.269  0.00  0.00    +0.000 OA
ATOM     17  H   UNL     1       6.409   7.722  17.079  0.00  0.00    +0.000 HD
ENDBRANCH   1  16
BRANCH   4  18
ATOM     18  C   UNL     1       3.842   3.534  19.882  0.00  0.00    +0.000 C 
ATOM     19  O   UNL     1       4.088   2.426  20.371  0.00  0.00    +0.000 OA
BRANCH  18  20
ATOM     20  C   UNL     1       2.703   4.382  20.423  0.00  0.00    +0.000 C 
BRANCH  20  21
ATOM     21  C   UNL     1       1.350   3.653  20.454  0.00  0.00    +0.000 C 
ATOM     22  C   UNL     1       1.038   2.968  19.123  0.00  0.00    +0.000 C 
ATOM     23  C   UNL     1       1.328   2.628  21.589  0.00  0.00    +0.000 C 
ENDBRANCH  20  21
ENDBRANCH  18  20
ENDBRANCH   4  18
BRANCH   5  24
ATOM     24  O   UNL     1       4.023   1.985  17.462  0.00  0.00    +0.000 OA
ATOM     25  H   UNL     1       4.500   1.349  18.044  0.00  0.00    +0.000 HD
ENDBRANCH   5  24
BRANCH   1  26
ATOM     26  C   UNL     1       4.290   6.862  17.049  0.00  0.00    +0.000 C 
BRANCH  26  30
ATOM     27  C   UNL     1       1.609   7.882  19.700  0.00  0.00    +0.000 C 
ATOM     28  C   UNL     1       2.479   7.951  18.475  0.00  0.00    +0.000 C 
ATOM     29  C   UNL     1       2.296   9.138  17.571  0.00  0.00    +0.000 C 
ATOM     30  C   UNL     1       3.375   6.973  18.241  0.00  0.00    +0.000 C 
ENDBRANCH  26  30
ENDBRANCH   1  26
TORSDOF 9
ENDMDL
MODEL 7
REMARK VINA RESULT:      -6.7      0.888      1.146
REMARK  Name = 
REMARK  15 active torsions:
REMARK  status: ('A' for Active; 'I' for Inactive)
REMARK    1  A    between atoms: C_1  and  C_2
REMARK    2  A    between atoms: C_2  and  C_3
REMARK    3  A    between atoms: C_4  and  C_5
REMARK    4  A    between atoms: C_5  and  C_6
REMARK    5  A    between atoms: C_6  and  O_7
REMARK    6  A    between atoms: C_10  and  C_11
REMARK    7  A    between atoms: C_11  and  C_13
REMARK    8  A    between atoms: C_13  and  C_14
REMARK    9  A    between atoms: C_14  and  C_15
REMARK   10  A    between atoms: C_14  and  C_16
REMARK   11  A    between atoms: C_17  and  O_18
REMARK   12  A    between atoms: C_22  and  C_23
REMARK   13  A    between atoms: C_23  and  C_24
REMARK   14  A    between atoms: C_23  and  C_25
REMARK   15  A    between atoms: C_23  and  O_26
REMARK                            x       y       z     vdW  Elec       q    Type
REMARK                         _______ _______ _______ _____ _____    ______ ____
ROOT
ATOM      1  C   UNL     1      -0.102  10.534  19.308  0.00  0.00    +0.000 C 
ATOM      2  C   UNL     1      -0.315  11.636  20.394  0.00  0.00    +0.000 C 
ATOM      3  O   UNL     1      -0.342  12.837  20.120  0.00  0.00    +0.000 OA
ATOM      4  C   UNL     1      -0.522  11.205  21.813  0.00  0.00    +0.000 C 
ATOM      5  C   UNL     1       0.017  10.027  22.191  0.00  0.00    +0.000 C 
ATOM      6  C   UNL     1       0.708   9.196  21.255  0.00  0.00    +0.000 C 
ATOM      7  C   UNL     1       0.661   9.406  19.943  0.00  0.00    +0.000 C 
ATOM      8  O   UNL     1       1.358   8.486  19.165  0.00  0.00    +0.000 OA
ATOM      9  C   UNL     1       2.134   7.747  20.148  0.00  0.00    +0.000 C 
ATOM     10  C   UNL     1       1.484   7.964  21.528  0.00  0.00    +0.000 C 
ENDROOT
BRANCH   9  11
ATOM     11  C   UNL     1       2.322   6.267  19.738  0.00  0.00    +0.000 C 
ATOM     12  C   UNL     1       1.352   5.313  20.445  0.00  0.00    +0.000 C 
ATOM     13  C   UNL     1       2.149   6.115  18.220  0.00  0.00    +0.000 C 
BRANCH  11  14
ATOM     14  O   UNL     1       3.661   5.875  20.072  0.00  0.00    +0.000 OA
ATOM     15  H   UNL     1       3.629   4.971  20.430  0.00  0.00    +0.000 HD
ENDBRANCH  11  14
ENDBRANCH   9  11
BRANCH   1  16
ATOM     16  O   UNL     1       0.632  11.058  18.201  0.00  0.00    +0.000 OA
ATOM     17  H   UNL     1       0.191  10.755  17.391  0.00  0.00    +0.000 HD
ENDBRANCH   1  16
BRANCH   4  18
ATOM     18  C   UNL     1      -1.307  12.003  22.798  0.00  0.00    +0.000 C 
ATOM     19  O   UNL     1      -2.302  11.495  23.327  0.00  0.00    +0.000 OA
BRANCH  18  20
ATOM     20  C   UNL     1      -0.947  13.456  23.061  0.00  0.00    +0.000 C 
BRANCH  20  21
ATOM     21  C   UNL     1      -2.025  14.229  23.838  0.00  0.00    +0.000 C 
ATOM     22  C   UNL     1      -1.415  15.180  24.870  0.00  0.00    +0.000 C 
ATOM     23  C   UNL     1      -2.918  15.007  22.870  0.00  0.00    +0.000 C 
ENDBRANCH  20  21
ENDBRANCH  18  20
ENDBRANCH   4  18
BRANCH   5  24
ATOM     24  O   UNL     1      -0.042   9.503  23.463  0.00  0.00    +0.000 OA
ATOM     25  H   UNL     1      -0.570  10.112  24.029  0.00  0.00    +0.000 HD
ENDBRANCH   5  24
BRANCH   1  26
ATOM     26  C   UNL     1      -1.516  10.129  18.829  0.00  0.00    +0.000 C 
BRANCH  26  30
ATOM     27  C   UNL     1      -2.806  10.293  15.147  0.00  0.00    +0.000 C 
ATOM     28  C   UNL     1      -2.812  10.375  16.648  0.00  0.00    +0.000 C 
ATOM     29  C   UNL     1      -4.093  10.807  17.305  0.00  0.00    +0.000 C 
ATOM     30  C   UNL     1      -1.697  10.060  17.335  0.00  0.00    +0.000 C 
ENDBRANCH  26  30
ENDBRANCH   1  26
TORSDOF 9
ENDMDL
MODEL 8
REMARK VINA RESULT:      -6.7      7.232      9.667
REMARK  Name = 
REMARK  15 active torsions:
REMARK  status: ('A' for Active; 'I' for Inactive)
REMARK    1  A    between atoms: C_1  and  C_2
REMARK    2  A    between atoms: C_2  and  C_3
REMARK    3  A    between atoms: C_4  and  C_5
REMARK    4  A    between atoms: C_5  and  C_6
REMARK    5  A    between atoms: C_6  and  O_7
REMARK    6  A    between atoms: C_10  and  C_11
REMARK    7  A    between atoms: C_11  and  C_13
REMARK    8  A    between atoms: C_13  and  C_14
REMARK    9  A    between atoms: C_14  and  C_15
REMARK   10  A    between atoms: C_14  and  C_16
REMARK   11  A    between atoms: C_17  and  O_18
REMARK   12  A    between atoms: C_22  and  C_23
REMARK   13  A    between atoms: C_23  and  C_24
REMARK   14  A    between atoms: C_23  and  C_25
REMARK   15  A    between atoms: C_23  and  O_26
REMARK                            x       y       z     vdW  Elec       q    Type
REMARK                         _______ _______ _______ _____ _____    ______ ____
ROOT
ATOM      1  C   UNL     1       6.926   5.310  17.423  0.00  0.00    +0.000 C 
ATOM      2  C   UNL     1       6.049   4.952  18.665  0.00  0.00    +0.000 C 
ATOM      3  O   UNL     1       6.523   4.832  19.796  0.00  0.00    +0.000 OA
ATOM      4  C   UNL     1       4.575   4.777  18.468  0.00  0.00    +0.000 C 
ATOM      5  C   UNL     1       4.152   4.385  17.249  0.00  0.00    +0.000 C 
ATOM      6  C   UNL     1       5.072   4.200  16.171  0.00  0.00    +0.000 C 
ATOM      7  C   UNL     1       6.333   4.618  16.229  0.00  0.00    +0.000 C 
ATOM      8  O   UNL     1       7.090   4.394  15.082  0.00  0.00    +0.000 OA
ATOM      9  C   UNL     1       6.247   3.505  14.301  0.00  0.00    +0.000 C 
ATOM     10  C   UNL     1       4.805   3.630  14.829  0.00  0.00    +0.000 C 
ENDROOT
BRANCH   9  11
ATOM     11  C   UNL     1       6.410   3.746  12.781  0.00  0.00    +0.000 C 
ATOM     12  C   UNL     1       5.078   3.961  12.054  0.00  0.00    +0.000 C 
ATOM     13  C   UNL     1       7.313   4.962  12.535  0.00  0.00    +0.000 C 
BRANCH  11  14
ATOM     14  O   UNL     1       7.052   2.596  12.211  0.00  0.00    +0.000 OA
ATOM     15  H   UNL     1       7.262   1.979  12.934  0.00  0.00    +0.000 HD
ENDBRANCH  11  14
ENDBRANCH   9  11
BRANCH   1  16
ATOM     16  O   UNL     1       8.272   4.878  17.621  0.00  0.00    +0.000 OA
ATOM     17  H   UNL     1       8.243   4.089  18.187  0.00  0.00    +0.000 HD
ENDBRANCH   1  16
BRANCH   4  18
ATOM     18  C   UNL     1       3.575   5.041  19.542  0.00  0.00    +0.000 C 
ATOM     19  O   UNL     1       3.152   6.192  19.701  0.00  0.00    +0.000 OA
BRANCH  18  20
ATOM     20  C   UNL     1       3.168   3.929  20.495  0.00  0.00    +0.000 C 
BRANCH  20  21
ATOM     21  C   UNL     1       1.651   3.827  20.716  0.00  0.00    +0.000 C 
ATOM     22  C   UNL     1       0.907   3.477  19.426  0.00  0.00    +0.000 C 
ATOM     23  C   UNL     1       1.343   2.791  21.797  0.00  0.00    +0.000 C 
ENDBRANCH  20  21
ENDBRANCH  18  20
ENDBRANCH   4  18
BRANCH   5  24
ATOM     24  O   UNL     1       2.840   4.139  16.909  0.00  0.00    +0.000 OA
ATOM     25  H   UNL     1       2.645   3.188  17.080  0.00  0.00    +0.000 HD
ENDBRANCH   5  24
BRANCH   1  26
ATOM     26  C   UNL     1       6.902   6.853  17.316  0.00  0.00    +0.000 C 
BRANCH  26  30
ATOM     27  C   UNL     1       9.224   9.461  19.065  0.00  0.00    +0.000 C 
ATOM     28  C   UNL     1       8.165   8.902  18.156  0.00  0.00    +0.000 C 
ATOM     29  C   UNL     1       7.404   9.882  17.307  0.00  0.00    +0.000 C 
ATOM     30  C   UNL     1       7.946   7.573  18.130  0.00  0.00    +0.000 C 
ENDBRANCH  26  30
ENDBRANCH   1  26
TORSDOF 9
ENDMDL
MODEL 9
REMARK VINA RESULT:      -6.7      0.784      1.124
REMARK  Name = 
REMARK  15 active torsions:
REMARK  status: ('A' for Active; 'I' for Inactive)
REMARK    1  A    between atoms: C_1  and  C_2
REMARK    2  A    between atoms: C_2  and  C_3
REMARK    3  A    between atoms: C_4  and  C_5
REMARK    4  A    between atoms: C_5  and  C_6
REMARK    5  A    between atoms: C_6  and  O_7
REMARK    6  A    between atoms: C_10  and  C_11
REMARK    7  A    between atoms: C_11  and  C_13
REMARK    8  A    between atoms: C_13  and  C_14
REMARK    9  A    between atoms: C_14  and  C_15
REMARK   10  A    between atoms: C_14  and  C_16
REMARK   11  A    between atoms: C_17  and  O_18
REMARK   12  A    between atoms: C_22  and  C_23
REMARK   13  A    between atoms: C_23  and  C_24
REMARK   14  A    between atoms: C_23  and  C_25
REMARK   15  A    between atoms: C_23  and  O_26
REMARK                            x       y       z     vdW  Elec       q    Type
REMARK                         _______ _______ _______ _____ _____    ______ ____
ROOT
ATOM      1  C   UNL     1      -0.026  10.577  19.078  0.00  0.00    +0.000 C 
ATOM      2  C   UNL     1      -0.159  11.739  20.112  0.00  0.00    +0.000 C 
ATOM      3  O   UNL     1      -0.162  12.925  19.777  0.00  0.00    +0.000 OA
ATOM      4  C   UNL     1      -0.316  11.390  21.560  0.00  0.00    +0.000 C 
ATOM      5  C   UNL     1       0.203  10.216  21.976  0.00  0.00    +0.000 C 
ATOM      6  C   UNL     1       0.828   9.316  21.058  0.00  0.00    +0.000 C 
ATOM      7  C   UNL     1       0.730   9.460  19.739  0.00  0.00    +0.000 C 
ATOM      8  O   UNL     1       1.365   8.479  18.983  0.00  0.00    +0.000 OA
ATOM      9  C   UNL     1       2.161   7.767  19.969  0.00  0.00    +0.000 C 
ATOM     10  C   UNL     1       1.578   8.075  21.362  0.00  0.00    +0.000 C 
ENDROOT
BRANCH   9  11
ATOM     11  C   UNL     1       2.287   6.263  19.631  0.00  0.00    +0.000 C 
ATOM     12  C   UNL     1       1.756   5.907  18.237  0.00  0.00    +0.000 C 
ATOM     13  C   UNL     1       3.754   5.822  19.731  0.00  0.00    +0.000 C 
BRANCH  11  14
ATOM     14  O   UNL     1       1.534   5.520  20.601  0.00  0.00    +0.000 OA
ATOM     15  H   UNL     1       1.077   4.798  20.137  0.00  0.00    +0.000 HD
ENDBRANCH  11  14
ENDBRANCH   9  11
BRANCH   1  16
ATOM     16  O   UNL     1       0.674  11.020  17.915  0.00  0.00    +0.000 OA
ATOM     17  H   UNL     1       0.053  11.545  17.385  0.00  0.00    +0.000 HD
ENDBRANCH   1  16
BRANCH   4  18
ATOM     18  C   UNL     1      -1.034  12.261  22.533  0.00  0.00    +0.000 C 
ATOM     19  O   UNL     1      -0.380  12.905  23.361  0.00  0.00    +0.000 OA
BRANCH  18  20
ATOM     20  C   UNL     1      -2.553  12.271  22.571  0.00  0.00    +0.000 C 
BRANCH  20  21
ATOM     21  C   UNL     1      -3.187  13.377  21.712  0.00  0.00    +0.000 C 
ATOM     22  C   UNL     1      -4.084  12.805  20.613  0.00  0.00    +0.000 C 
ATOM     23  C   UNL     1      -3.987  14.337  22.594  0.00  0.00    +0.000 C 
ENDBRANCH  20  21
ENDBRANCH  18  20
ENDBRANCH   4  18
BRANCH   5  24
ATOM     24  O   UNL     1       0.184   9.760  23.275  0.00  0.00    +0.000 OA
ATOM     25  H   UNL     1      -0.749   9.754  23.592  0.00  0.00    +0.000 HD
ENDBRANCH   5  24
BRANCH   1  26
ATOM     26  C   UNL     1      -1.470  10.193  18.681  0.00  0.00    +0.000 C 
BRANCH  26  30
ATOM     27  C   UNL     1      -2.876  10.190  15.037  0.00  0.00    +0.000 C 
ATOM     28  C   UNL     1      -2.820  10.388  16.527  0.00  0.00    +0.000 C 
ATOM     29  C   UNL     1      -4.033  10.983  17.185  0.00  0.00    +0.000 C 
ATOM     30  C   UNL     1      -1.712  10.027  17.203  0.00  0.00    +0.000 C 
ENDBRANCH  26  30
ENDBRANCH   1  26
TORSDOF 9
ENDMDL
