MODEL 1
REMARK VINA RESULT:      -4.9      0.000      0.000
REMARK  Name = 
REMARK  2 active torsions:
REMARK  status: ('A' for Active; 'I' for Inactive)
REMARK    1  A    between atoms: C_1  and  N_2
REMARK    2  A    between atoms: C_3  and  C_5
REMARK                            x       y       z     vdW  Elec       q    Type
REMARK                         _______ _______ _______ _____ _____    ______ ____
ROOT
ATOM      1  C   UNL     1       6.176   4.515  15.871  0.00  0.00    +0.000 A 
ATOM      2  C   UNL     1       6.922   4.886  16.980  0.00  0.00    +0.000 A 
ATOM      3  S   UNL     1       6.056   4.759  18.450  0.00  0.00    +0.000 S 
ATOM      4  C   UNL     1       4.683   4.201  17.638  0.00  0.00    +0.000 A 
ATOM      5 BR   UNL     1       3.089   3.742  18.509  0.00  0.00    +0.000 Br
ATOM      6  C   UNL     1       4.853   4.114  16.278  0.00  0.00    +0.000 A 
ENDROOT
BRANCH   1   9
ATOM      7  C   UNL     1       6.681   3.575  12.269  0.00  0.00    +0.000 C 
ATOM      8  N   UNL     1       6.190   3.666  13.620  0.00  0.00    +0.000 N 
ATOM      9  C   UNL     1       6.749   4.547  14.519  0.00  0.00    +0.000 C 
ATOM     10  O   UNL     1       7.663   5.308  14.217  0.00  0.00    +0.000 OA
ATOM     11  H   UNL     1       5.414   3.083  13.888  0.00  0.00    +0.000 HD
ENDBRANCH   1   9
TORSDOF 1
ENDMDL
MODEL 2
REMARK VINA RESULT:      -4.9      1.050      1.050
REMARK  Name = 
REMARK  2 active torsions:
REMARK  status: ('A' for Active; 'I' for Inactive)
REMARK    1  A    between atoms: C_1  and  N_2
REMARK    2  A    between atoms: C_3  and  C_5
REMARK                            x       y       z     vdW  Elec       q    Type
REMARK                         _______ _______ _______ _____ _____    ______ ____
ROOT
ATOM      1  C   UNL     1       6.339   4.963  15.692  0.00  0.00    +0.000 A 
ATOM      2  C   UNL     1       7.073   4.575  16.804  0.00  0.00    +0.000 A 
ATOM      3  S   UNL     1       6.278   4.897  18.284  0.00  0.00    +0.000 S 
ATOM      4  C   UNL     1       4.946   5.548  17.472  0.00  0.00    +0.000 A 
ATOM      5 BR   UNL     1       3.430   6.211  18.350  0.00  0.00    +0.000 Br
ATOM      6  C   UNL     1       5.084   5.539  16.106  0.00  0.00    +0.000 A 
ENDROOT
BRANCH   1   9
ATOM      7  C   UNL     1       6.639   3.457  12.264  0.00  0.00    +0.000 C 
ATOM      8  N   UNL     1       6.216   3.777  13.603  0.00  0.00    +0.000 N 
ATOM      9  C   UNL     1       6.850   4.760  14.331  0.00  0.00    +0.000 C 
ATOM     10  O   UNL     1       7.778   5.422  13.877  0.00  0.00    +0.000 OA
ATOM     11  H   UNL     1       5.431   3.279  13.989  0.00  0.00    +0.000 HD
ENDBRANCH   1   9
TORSDOF 1
ENDMDL
MODEL 3
REMARK VINA RESULT:      -4.9      3.397      4.078
REMARK  Name = 
REMARK  2 active torsions:
REMARK  status: ('A' for Active; 'I' for Inactive)
REMARK    1  A    between atoms: C_1  and  N_2
REMARK    2  A    between atoms: C_3  and  C_5
REMARK                            x       y       z     vdW  Elec       q    Type
REMARK                         _______ _______ _______ _____ _____    ______ ____
ROOT
ATOM      1  C   UNL     1       3.923   3.588  18.122  0.00  0.00    +0.000 A 
ATOM      2  C   UNL     1       2.750   3.320  17.433  0.00  0.00    +0.000 A 
ATOM      3  S   UNL     1       1.453   2.873  18.454  0.00  0.00    +0.000 S 
ATOM      4  C   UNL     1       2.425   3.038  19.826  0.00  0.00    +0.000 A 
ATOM      5 BR   UNL     1       1.804   2.741  21.569  0.00  0.00    +0.000 Br
ATOM      6  C   UNL     1       3.713   3.415  19.538  0.00  0.00    +0.000 A 
ENDROOT
BRANCH   1   9
ATOM      7  C   UNL     1       7.514   4.587  17.656  0.00  0.00    +0.000 C 
ATOM      8  N   UNL     1       6.259   4.159  18.216  0.00  0.00    +0.000 N 
ATOM      9  C   UNL     1       5.146   3.998  17.420  0.00  0.00    +0.000 C 
ATOM     10  O   UNL     1       5.170   4.183  16.207  0.00  0.00    +0.000 OA
ATOM     11  H   UNL     1       6.216   3.960  19.202  0.00  0.00    +0.000 HD
ENDBRANCH   1   9
TORSDOF 1
ENDMDL
MODEL 4
REMARK VINA RESULT:      -4.8      1.736      2.085
REMARK  Name = 
REMARK  2 active torsions:
REMARK  status: ('A' for Active; 'I' for Inactive)
REMARK    1  A    between atoms: C_1  and  N_2
REMARK    2  A    between atoms: C_3  and  C_5
REMARK                            x       y       z     vdW  Elec       q    Type
REMARK                         _______ _______ _______ _____ _____    ______ ____
ROOT
ATOM      1  C   UNL     1       6.502   4.607  15.638  0.00  0.00    +0.000 A 
ATOM      2  C   UNL     1       5.310   4.159  16.189  0.00  0.00    +0.000 A 
ATOM      3  S   UNL     1       5.235   4.353  17.887  0.00  0.00    +0.000 S 
ATOM      4  C   UNL     1       6.778   5.041  17.916  0.00  0.00    +0.000 A 
ATOM      5 BR   UNL     1       7.608   5.637  19.486  0.00  0.00    +0.000 Br
ATOM      6  C   UNL     1       7.360   5.124  16.676  0.00  0.00    +0.000 A 
ENDROOT
BRANCH   1   9
ATOM      7  C   UNL     1       6.340   3.275  12.130  0.00  0.00    +0.000 C 
ATOM      8  N   UNL     1       6.152   3.479  13.543  0.00  0.00    +0.000 N 
ATOM      9  C   UNL     1       6.752   4.535  14.194  0.00  0.00    +0.000 C 
ATOM     10  O   UNL     1       7.447   5.360  13.610  0.00  0.00    +0.000 OA
ATOM     11  H   UNL     1       5.554   2.842  14.043  0.00  0.00    +0.000 HD
ENDBRANCH   1   9
TORSDOF 1
ENDMDL
MODEL 5
REMARK VINA RESULT:      -4.7      1.178      1.230
REMARK  Name = 
REMARK  2 active torsions:
REMARK  status: ('A' for Active; 'I' for Inactive)
REMARK    1  A    between atoms: C_1  and  N_2
REMARK    2  A    between atoms: C_3  and  C_5
REMARK                            x       y       z     vdW  Elec       q    Type
REMARK                         _______ _______ _______ _____ _____    ______ ____
ROOT
ATOM      1  C   UNL     1       5.482   5.080  15.653  0.00  0.00    +0.000 A 
ATOM      2  C   UNL     1       5.317   6.373  16.127  0.00  0.00    +0.000 A 
ATOM      3  S   UNL     1       4.247   6.474  17.457  0.00  0.00    +0.000 S 
ATOM      4  C   UNL     1       3.992   4.804  17.430  0.00  0.00    +0.000 A 
ATOM      5 BR   UNL     1       2.875   3.914  18.642  0.00  0.00    +0.000 Br
ATOM      6  C   UNL     1       4.688   4.164  16.435  0.00  0.00    +0.000 A 
ENDROOT
BRANCH   1   9
ATOM      7  C   UNL     1       6.615   3.586  12.399  0.00  0.00    +0.000 C 
ATOM      8  N   UNL     1       5.837   3.973  13.547  0.00  0.00    +0.000 N 
ATOM      9  C   UNL     1       6.370   4.788  14.522  0.00  0.00    +0.000 C 
ATOM     10  O   UNL     1       7.508   5.241  14.454  0.00  0.00    +0.000 OA
ATOM     11  H   UNL     1       4.886   3.651  13.612  0.00  0.00    +0.000 HD
ENDBRANCH   1   9
TORSDOF 1
ENDMDL
MODEL 6
REMARK VINA RESULT:      -4.7      3.747      4.216
REMARK  Name = 
REMARK  2 active torsions:
REMARK  status: ('A' for Active; 'I' for Inactive)
REMARK    1  A    between atoms: C_1  and  N_2
REMARK    2  A    between atoms: C_3  and  C_5
REMARK                            x       y       z     vdW  Elec       q    Type
REMARK                         _______ _______ _______ _____ _____    ______ ____
ROOT
ATOM      1  C   UNL     1       4.744   4.618  18.777  0.00  0.00    +0.000 A 
ATOM      2  C   UNL     1       4.462   3.817  17.680  0.00  0.00    +0.000 A 
ATOM      3  S   UNL     1       2.936   3.049  17.778  0.00  0.00    +0.000 S 
ATOM      4  C   UNL     1       2.623   3.775  19.271  0.00  0.00    +0.000 A 
ATOM      5 BR   UNL     1       1.036   3.511  20.230  0.00  0.00    +0.000 Br
ATOM      6  C   UNL     1       3.645   4.581  19.709  0.00  0.00    +0.000 A 
ENDROOT
BRANCH   1   9
ATOM      7  C   UNL     1       7.498   6.959  17.755  0.00  0.00    +0.000 C 
ATOM      8  N   UNL     1       6.281   6.191  17.801  0.00  0.00    +0.000 N 
ATOM      9  C   UNL     1       6.002   5.369  18.871  0.00  0.00    +0.000 C 
ATOM     10  O   UNL     1       6.749   5.268  19.838  0.00  0.00    +0.000 OA
ATOM     11  H   UNL     1       5.627   6.282  17.041  0.00  0.00    +0.000 HD
ENDBRANCH   1   9
TORSDOF 1
ENDMDL
MODEL 7
REMARK VINA RESULT:      -4.7      3.117      3.911
REMARK  Name = 
REMARK  2 active torsions:
REMARK  status: ('A' for Active; 'I' for Inactive)
REMARK    1  A    between atoms: C_1  and  N_2
REMARK    2  A    between atoms: C_3  and  C_5
REMARK                            x       y       z     vdW  Elec       q    Type
REMARK                         _______ _______ _______ _____ _____    ______ ____
ROOT
ATOM      1  C   UNL     1       4.369   3.611  18.562  0.00  0.00    +0.000 A 
ATOM      2  C   UNL     1       3.572   2.948  17.640  0.00  0.00    +0.000 A 
ATOM      3  S   UNL     1       2.127   2.331  18.315  0.00  0.00    +0.000 S 
ATOM      4  C   UNL     1       2.531   2.941  19.838  0.00  0.00    +0.000 A 
ATOM      5 BR   UNL     1       1.438   2.748  21.346  0.00  0.00    +0.000 Br
ATOM      6  C   UNL     1       3.738   3.596  19.858  0.00  0.00    +0.000 A 
ENDROOT
BRANCH   1   9
ATOM      7  C   UNL     1       7.237   4.585  16.341  0.00  0.00    +0.000 C 
ATOM      8  N   UNL     1       5.995   4.062  16.848  0.00  0.00    +0.000 N 
ATOM      9  C   UNL     1       5.646   4.220  18.171  0.00  0.00    +0.000 C 
ATOM     10  O   UNL     1       6.350   4.828  18.971  0.00  0.00    +0.000 OA
ATOM     11  H   UNL     1       5.375   3.593  16.207  0.00  0.00    +0.000 HD
ENDBRANCH   1   9
TORSDOF 1
ENDMDL
MODEL 8
REMARK VINA RESULT:      -4.7      1.503      1.728
REMARK  Name = 
REMARK  2 active torsions:
REMARK  status: ('A' for Active; 'I' for Inactive)
REMARK    1  A    between atoms: C_1  and  N_2
REMARK    2  A    between atoms: C_3  and  C_5
REMARK                            x       y       z     vdW  Elec       q    Type
REMARK                         _______ _______ _______ _____ _____    ______ ____
ROOT
ATOM      1  C   UNL     1       5.503   4.584  17.104  0.00  0.00    +0.000 A 
ATOM      2  C   UNL     1       5.655   5.145  18.364  0.00  0.00    +0.000 A 
ATOM      3  S   UNL     1       4.244   5.038  19.325  0.00  0.00    +0.000 S 
ATOM      4  C   UNL     1       3.414   4.239  18.089  0.00  0.00    +0.000 A 
ATOM      5 BR   UNL     1       1.641   3.658  18.250  0.00  0.00    +0.000 Br
ATOM      6  C   UNL     1       4.170   4.054  16.958  0.00  0.00    +0.000 A 
ENDROOT
BRANCH   1   9
ATOM      7  C   UNL     1       7.227   4.755  13.771  0.00  0.00    +0.000 C 
ATOM      8  N   UNL     1       6.244   4.776  14.823  0.00  0.00    +0.000 N 
ATOM      9  C   UNL     1       6.606   4.569  16.136  0.00  0.00    +0.000 C 
ATOM     10  O   UNL     1       7.770   4.384  16.478  0.00  0.00    +0.000 OA
ATOM     11  H   UNL     1       5.285   4.965  14.580  0.00  0.00    +0.000 HD
ENDBRANCH   1   9
TORSDOF 1
ENDMDL
MODEL 9
REMARK VINA RESULT:      -4.6      4.176      5.448
REMARK  Name = 
REMARK  2 active torsions:
REMARK  status: ('A' for Active; 'I' for Inactive)
REMARK    1  A    between atoms: C_1  and  N_2
REMARK    2  A    between atoms: C_3  and  C_5
REMARK                            x       y       z     vdW  Elec       q    Type
REMARK                         _______ _______ _______ _____ _____    ______ ____
ROOT
ATOM      1  C   UNL     1       3.302   4.736  17.575  0.00  0.00    +0.000 A 
ATOM      2  C   UNL     1       3.635   6.069  17.768  0.00  0.00    +0.000 A 
ATOM      3  S   UNL     1       5.064   6.532  16.950  0.00  0.00    +0.000 S 
ATOM      4  C   UNL     1       5.257   4.976  16.322  0.00  0.00    +0.000 A 
ATOM      5 BR   UNL     1       6.670   4.491  15.192  0.00  0.00    +0.000 Br
ATOM      6  C   UNL     1       4.274   4.104  16.718  0.00  0.00    +0.000 A 
ENDROOT
BRANCH   1   9
ATOM      7  C   UNL     1       1.041   3.441  20.280  0.00  0.00    +0.000 C 
ATOM      8  N   UNL     1       2.141   4.025  19.559  0.00  0.00    +0.000 N 
ATOM      9  C   UNL     1       2.102   4.152  18.188  0.00  0.00    +0.000 C 
ATOM     10  O   UNL     1       1.134   3.803  17.520  0.00  0.00    +0.000 OA
ATOM     11  H   UNL     1       2.934   4.359  20.082  0.00  0.00    +0.000 HD
ENDBRANCH   1   9
TORSDOF 1
ENDMDL
