MODEL 1
REMARK VINA RESULT:      -9.0      0.000      0.000
REMARK  Name = 
REMARK  6 active torsions:
REMARK  status: ('A' for Active; 'I' for Inactive)
REMARK    1  A    between atoms: C_2  and  C_16
REMARK    2  A    between atoms: N_3  and  C_4
REMARK    3  A    between atoms: C_7  and  C_8
REMARK    4  A    between atoms: C_21  and  C_23
REMARK    5  A    between atoms: C_23  and  S_24
REMARK    6  A    between atoms: S_24  and  C_25
REMARK                            x       y       z     vdW  Elec       q    Type
REMARK                         _______ _______ _______ _____ _____    ______ ____
ROOT
ATOM      1  C   UNL     1       2.486   4.573  18.671  0.00  0.00    +0.000 C 
ATOM      2  C   UNL     1       1.697   3.261  18.794  0.00  0.00    +0.000 C 
ATOM      3  C   UNL     1       2.522   2.292  17.968  0.00  0.00    +0.000 C 
ATOM      4  C   UNL     1       3.961   2.760  18.175  0.00  0.00    +0.000 C 
ATOM      5  N   UNL     1       3.874   4.077  18.794  0.00  0.00    +0.000 N 
ATOM      6  C   UNL     1       4.972   4.900  19.042  0.00  0.00    +0.000 C 
ATOM      7  O   UNL     1       4.807   6.033  19.491  0.00  0.00    +0.000 OA
ENDROOT
BRANCH   1   9
ATOM      8  O   UNL     1       1.080   5.345  20.515  0.00  0.00    +0.000 OA
ATOM      9  C   UNL     1       1.822   5.635  19.584  0.00  0.00    +0.000 C 
ATOM     10  N   UNL     1       2.140   6.929  19.180  0.00  0.00    +0.000 N 
ATOM     11  H   UNL     1       3.069   7.033  18.788  0.00  0.00    +0.000 HD
BRANCH  10  12
ATOM     12  C   UNL     1       1.583   8.074  19.781  0.00  0.00    +0.000 A 
ATOM     13  C   UNL     1       1.450   8.105  21.168  0.00  0.00    +0.000 A 
ATOM     14  C   UNL     1       0.913   9.238  21.796  0.00  0.00    +0.000 A 
ATOM     15  C   UNL     1       0.572  10.395  21.072  0.00  0.00    +0.000 A 
ATOM     16  C   UNL     1       0.774  10.348  19.675  0.00  0.00    +0.000 A 
ATOM     17  C   UNL     1       1.235   9.191  19.031  0.00  0.00    +0.000 A 
BRANCH  15  18
ATOM     18  C   UNL     1       0.004  11.604  21.732  0.00  0.00    +0.000 A 
ATOM     19  C   UNL     1      -1.024  11.517  22.676  0.00  0.00    +0.000 A 
ATOM     20  C   UNL     1      -1.572  12.672  23.278  0.00  0.00    +0.000 A 
ATOM     21  C   UNL     1      -1.078  13.927  22.947  0.00  0.00    +0.000 A 
ATOM     22  C   UNL     1      -0.043  14.037  22.027  0.00  0.00    +0.000 A 
ATOM     23  C   UNL     1       0.483  12.893  21.425  0.00  0.00    +0.000 A 
ENDBRANCH  15  18
ENDBRANCH  10  12
ENDBRANCH   1   9
BRANCH   6  24
ATOM     24  C   UNL     1       6.369   4.361  18.645  0.00  0.00    +0.000 C 
BRANCH  24  25
ATOM     25  S   UNL     1       7.383   5.536  17.680  0.00  0.00    +0.000 S 
BRANCH  25  26
ATOM     26  C   UNL     1       6.912   5.138  16.047  0.00  0.00    +0.000 A 
ATOM     27  N   UNL     1       5.883   4.417  15.676  0.00  0.00    +0.000 NA
ATOM     28  C   UNL     1       6.051   4.231  14.318  0.00  0.00    +0.000 A 
ATOM     29  C   UNL     1       5.290   3.473  13.417  0.00  0.00    +0.000 A 
ATOM     30  C   UNL     1       5.732   3.344  12.092  0.00  0.00    +0.000 A 
ATOM     31  C   UNL     1       6.899   3.982  11.665  0.00  0.00    +0.000 A 
ATOM     32  C   UNL     1       7.647   4.789  12.536  0.00  0.00    +0.000 A 
ATOM     33  C   UNL     1       7.193   4.885  13.861  0.00  0.00    +0.000 A 
ATOM     34  N   UNL     1       7.671   5.536  14.982  0.00  0.00    +0.000 N 
ATOM     35  H   UNL     1       8.488   6.127  15.023  0.00  0.00    +0.000 HD
ENDBRANCH  25  26
ENDBRANCH  24  25
ENDBRANCH   6  24
TORSDOF 6
ENDMDL
MODEL 2
REMARK VINA RESULT:      -8.9      4.090      9.843
REMARK  Name = 
REMARK  6 active torsions:
REMARK  status: ('A' for Active; 'I' for Inactive)
REMARK    1  A    between atoms: C_2  and  C_16
REMARK    2  A    between atoms: N_3  and  C_4
REMARK    3  A    between atoms: C_7  and  C_8
REMARK    4  A    between atoms: C_21  and  C_23
REMARK    5  A    between atoms: C_23  and  S_24
REMARK    6  A    between atoms: S_24  and  C_25
REMARK                            x       y       z     vdW  Elec       q    Type
REMARK                         _______ _______ _______ _____ _____    ______ ____
ROOT
ATOM      1  C   UNL     1       0.062  10.890  22.683  0.00  0.00    +0.000 C 
ATOM      2  C   UNL     1      -1.330  10.288  22.926  0.00  0.00    +0.000 C 
ATOM      3  C   UNL     1      -2.141  11.487  23.381  0.00  0.00    +0.000 C 
ATOM      4  C   UNL     1      -1.544  12.657  22.602  0.00  0.00    +0.000 C 
ATOM      5  N   UNL     1      -0.296  12.168  22.030  0.00  0.00    +0.000 N 
ATOM      6  C   UNL     1       0.615  12.966  21.339  0.00  0.00    +0.000 C 
ATOM      7  O   UNL     1       1.686  12.498  20.959  0.00  0.00    +0.000 OA
ENDROOT
BRANCH   1   9
ATOM      8  O   UNL     1       1.901   9.280  22.698  0.00  0.00    +0.000 OA
ATOM      9  C   UNL     1       0.975   9.792  22.080  0.00  0.00    +0.000 C 
ATOM     10  N   UNL     1       0.634   9.510  20.760  0.00  0.00    +0.000 N 
ATOM     11  H   UNL     1      -0.355   9.589  20.553  0.00  0.00    +0.000 HD
BRANCH  10  12
ATOM     12  C   UNL     1       1.373   8.622  19.954  0.00  0.00    +0.000 A 
ATOM     13  C   UNL     1       1.785   9.046  18.693  0.00  0.00    +0.000 A 
ATOM     14  C   UNL     1       2.535   8.190  17.874  0.00  0.00    +0.000 A 
ATOM     15  C   UNL     1       2.962   6.925  18.320  0.00  0.00    +0.000 A 
ATOM     16  C   UNL     1       2.573   6.552  19.625  0.00  0.00    +0.000 A 
ATOM     17  C   UNL     1       1.757   7.370  20.419  0.00  0.00    +0.000 A 
BRANCH  15  18
ATOM     18  C   UNL     1       3.762   6.011  17.459  0.00  0.00    +0.000 A 
ATOM     19  C   UNL     1       3.599   4.622  17.500  0.00  0.00    +0.000 A 
ATOM     20  C   UNL     1       4.381   3.763  16.697  0.00  0.00    +0.000 A 
ATOM     21  C   UNL     1       5.326   4.295  15.829  0.00  0.00    +0.000 A 
ATOM     22  C   UNL     1       5.493   5.672  15.755  0.00  0.00    +0.000 A 
ATOM     23  C   UNL     1       4.728   6.514  16.563  0.00  0.00    +0.000 A 
ENDBRANCH  15  18
ENDBRANCH  10  12
ENDBRANCH   1   9
BRANCH   6  24
ATOM     24  C   UNL     1       0.256  14.463  21.160  0.00  0.00    +0.000 C 
BRANCH  24  25
ATOM     25  S   UNL     1      -0.401  14.888  19.509  0.00  0.00    +0.000 S 
BRANCH  25  26
ATOM     26  C   UNL     1      -1.136  13.378  19.031  0.00  0.00    +0.000 A 
ATOM     27  N   UNL     1      -0.581  12.415  18.337  0.00  0.00    +0.000 NA
ATOM     28  C   UNL     1      -1.612  11.539  18.058  0.00  0.00    +0.000 A 
ATOM     29  C   UNL     1      -1.610  10.372  17.281  0.00  0.00    +0.000 A 
ATOM     30  C   UNL     1      -2.822   9.706  17.048  0.00  0.00    +0.000 A 
ATOM     31  C   UNL     1      -4.013  10.180  17.602  0.00  0.00    +0.000 A 
ATOM     32  C   UNL     1      -4.030  11.315  18.428  0.00  0.00    +0.000 A 
ATOM     33  C   UNL     1      -2.806  11.974  18.628  0.00  0.00    +0.000 A 
ATOM     34  N   UNL     1      -2.444  13.111  19.325  0.00  0.00    +0.000 N 
ATOM     35  H   UNL     1      -3.058  13.689  19.879  0.00  0.00    +0.000 HD
ENDBRANCH  25  26
ENDBRANCH  24  25
ENDBRANCH   6  24
TORSDOF 6
ENDMDL
MODEL 3
REMARK VINA RESULT:      -8.7      0.316      1.347
REMARK  Name = 
REMARK  6 active torsions:
REMARK  status: ('A' for Active; 'I' for Inactive)
REMARK    1  A    between atoms: C_2  and  C_16
REMARK    2  A    between atoms: N_3  and  C_4
REMARK    3  A    between atoms: C_7  and  C_8
REMARK    4  A    between atoms: C_21  and  C_23
REMARK    5  A    between atoms: C_23  and  S_24
REMARK    6  A    between atoms: S_24  and  C_25
REMARK                            x       y       z     vdW  Elec       q    Type
REMARK                         _______ _______ _______ _____ _____    ______ ____
ROOT
ATOM      1  C   UNL     1       2.456   4.755  18.623  0.00  0.00    +0.000 C 
ATOM      2  C   UNL     1       1.672   3.435  18.677  0.00  0.00    +0.000 C 
ATOM      3  C   UNL     1       2.474   2.527  17.762  0.00  0.00    +0.000 C 
ATOM      4  C   UNL     1       3.917   2.985  17.958  0.00  0.00    +0.000 C 
ATOM      5  N   UNL     1       3.848   4.255  18.669  0.00  0.00    +0.000 N 
ATOM      6  C   UNL     1       4.952   5.062  18.941  0.00  0.00    +0.000 C 
ATOM      7  O   UNL     1       4.800   6.160  19.472  0.00  0.00    +0.000 OA
ENDROOT
BRANCH   1   9
ATOM      8  O   UNL     1       1.161   5.389  20.595  0.00  0.00    +0.000 OA
ATOM      9  C   UNL     1       1.819   5.749  19.626  0.00  0.00    +0.000 C 
ATOM     10  N   UNL     1       2.054   7.071  19.257  0.00  0.00    +0.000 N 
ATOM     11  H   UNL     1       2.947   7.231  18.805  0.00  0.00    +0.000 HD
BRANCH  10  12
ATOM     12  C   UNL     1       1.498   8.165  19.947  0.00  0.00    +0.000 A 
ATOM     13  C   UNL     1       1.099   9.284  19.218  0.00  0.00    +0.000 A 
ATOM     14  C   UNL     1       0.527  10.383  19.875  0.00  0.00    +0.000 A 
ATOM     15  C   UNL     1       0.264  10.364  21.258  0.00  0.00    +0.000 A 
ATOM     16  C   UNL     1       0.631   9.192  21.954  0.00  0.00    +0.000 A 
ATOM     17  C   UNL     1       1.274   8.122  21.318  0.00  0.00    +0.000 A 
BRANCH  15  18
ATOM     18  C   UNL     1      -0.346  11.526  21.962  0.00  0.00    +0.000 A 
ATOM     19  C   UNL     1      -1.371  11.368  22.901  0.00  0.00    +0.000 A 
ATOM     20  C   UNL     1      -1.960  12.479  23.544  0.00  0.00    +0.000 A 
ATOM     21  C   UNL     1      -1.510  13.763  23.262  0.00  0.00    +0.000 A 
ATOM     22  C   UNL     1      -0.478  13.944  22.349  0.00  0.00    +0.000 A 
ATOM     23  C   UNL     1       0.087  12.843  21.705  0.00  0.00    +0.000 A 
ENDBRANCH  15  18
ENDBRANCH  10  12
ENDBRANCH   1   9
BRANCH   6  24
ATOM     24  C   UNL     1       6.337   4.556  18.467  0.00  0.00    +0.000 C 
BRANCH  24  25
ATOM     25  S   UNL     1       7.289   5.772  17.491  0.00  0.00    +0.000 S 
BRANCH  25  26
ATOM     26  C   UNL     1       7.170   5.097  15.885  0.00  0.00    +0.000 A 
ATOM     27  N   UNL     1       7.858   5.448  14.828  0.00  0.00    +0.000 NA
ATOM     28  C   UNL     1       7.270   4.768  13.779  0.00  0.00    +0.000 A 
ATOM     29  C   UNL     1       7.548   4.825  12.407  0.00  0.00    +0.000 A 
ATOM     30  C   UNL     1       6.728   4.118  11.515  0.00  0.00    +0.000 A 
ATOM     31  C   UNL     1       5.664   3.346  11.985  0.00  0.00    +0.000 A 
ATOM     32  C   UNL     1       5.400   3.231  13.359  0.00  0.00    +0.000 A 
ATOM     33  C   UNL     1       6.224   3.964  14.228  0.00  0.00    +0.000 A 
ATOM     34  N   UNL     1       6.248   4.128  15.600  0.00  0.00    +0.000 N 
ATOM     35  H   UNL     1       5.633   3.680  16.262  0.00  0.00    +0.000 HD
ENDBRANCH  25  26
ENDBRANCH  24  25
ENDBRANCH   6  24
TORSDOF 6
ENDMDL
MODEL 4
REMARK VINA RESULT:      -8.7      1.569      2.077
REMARK  Name = 
REMARK  6 active torsions:
REMARK  status: ('A' for Active; 'I' for Inactive)
REMARK    1  A    between atoms: C_2  and  C_16
REMARK    2  A    between atoms: N_3  and  C_4
REMARK    3  A    between atoms: C_7  and  C_8
REMARK    4  A    between atoms: C_21  and  C_23
REMARK    5  A    between atoms: C_23  and  S_24
REMARK    6  A    between atoms: S_24  and  C_25
REMARK                            x       y       z     vdW  Elec       q    Type
REMARK                         _______ _______ _______ _____ _____    ______ ____
ROOT
ATOM      1  C   UNL     1       2.216   4.874  19.594  0.00  0.00    +0.000 C 
ATOM      2  C   UNL     1       1.463   3.958  20.571  0.00  0.00    +0.000 C 
ATOM      3  C   UNL     1       1.982   2.579  20.210  0.00  0.00    +0.000 C 
ATOM      4  C   UNL     1       3.430   2.826  19.791  0.00  0.00    +0.000 C 
ATOM      5  N   UNL     1       3.564   4.267  19.625  0.00  0.00    +0.000 N 
ATOM      6  C   UNL     1       4.708   4.897  19.135  0.00  0.00    +0.000 C 
ATOM      7  O   UNL     1       4.714   6.111  18.945  0.00  0.00    +0.000 OA
ENDROOT
BRANCH   1   9
ATOM      8  O   UNL     1       1.432   6.692  21.026  0.00  0.00    +0.000 OA
ATOM      9  C   UNL     1       1.878   6.347  19.939  0.00  0.00    +0.000 C 
ATOM     10  N   UNL     1       2.104   7.192  18.855  0.00  0.00    +0.000 N 
ATOM     11  H   UNL     1       2.881   6.921  18.264  0.00  0.00    +0.000 HD
BRANCH  10  12
ATOM     12  C   UNL     1       1.782   8.562  18.877  0.00  0.00    +0.000 A 
ATOM     13  C   UNL     1       1.121   9.078  19.990  0.00  0.00    +0.000 A 
ATOM     14  C   UNL     1       0.800  10.442  20.047  0.00  0.00    +0.000 A 
ATOM     15  C   UNL     1       1.199  11.339  19.039  0.00  0.00    +0.000 A 
ATOM     16  C   UNL     1       1.916  10.790  17.954  0.00  0.00    +0.000 A 
ATOM     17  C   UNL     1       2.171   9.416  17.852  0.00  0.00    +0.000 A 
BRANCH  15  18
ATOM     18  C   UNL     1       0.865  12.789  19.094  0.00  0.00    +0.000 A 
ATOM     19  C   UNL     1       1.782  13.775  18.715  0.00  0.00    +0.000 A 
ATOM     20  C   UNL     1       1.464  15.149  18.796  0.00  0.00    +0.000 A 
ATOM     21  C   UNL     1       0.210  15.545  19.243  0.00  0.00    +0.000 A 
ATOM     22  C   UNL     1      -0.725  14.584  19.605  0.00  0.00    +0.000 A 
ATOM     23  C   UNL     1      -0.398  13.229  19.538  0.00  0.00    +0.000 A 
ENDBRANCH  15  18
ENDBRANCH  10  12
ENDBRANCH   1   9
BRANCH   6  24
ATOM     24  C   UNL     1       5.912   3.995  18.762  0.00  0.00    +0.000 C 
BRANCH  24  25
ATOM     25  S   UNL     1       7.307   4.884  17.986  0.00  0.00    +0.000 S 
BRANCH  25  26
ATOM     26  C   UNL     1       6.924   4.713  16.291  0.00  0.00    +0.000 A 
ATOM     27  N   UNL     1       6.051   3.896  15.757  0.00  0.00    +0.000 NA
ATOM     28  C   UNL     1       6.255   3.998  14.395  0.00  0.00    +0.000 A 
ATOM     29  C   UNL     1       5.654   3.292  13.344  0.00  0.00    +0.000 A 
ATOM     30  C   UNL     1       6.116   3.493  12.035  0.00  0.00    +0.000 A 
ATOM     31  C   UNL     1       7.144   4.401  11.775  0.00  0.00    +0.000 A 
ATOM     32  C   UNL     1       7.723   5.159  12.805  0.00  0.00    +0.000 A 
ATOM     33  C   UNL     1       7.255   4.924  14.107  0.00  0.00    +0.000 A 
ATOM     34  N   UNL     1       7.599   5.434  15.345  0.00  0.00    +0.000 N 
ATOM     35  H   UNL     1       8.290   6.147  15.523  0.00  0.00    +0.000 HD
ENDBRANCH  25  26
ENDBRANCH  24  25
ENDBRANCH   6  24
TORSDOF 6
ENDMDL
MODEL 5
REMARK VINA RESULT:      -8.7      1.705      2.282
REMARK  Name = 
REMARK  6 active torsions:
REMARK  status: ('A' for Active; 'I' for Inactive)
REMARK    1  A    between atoms: C_2  and  C_16
REMARK    2  A    between atoms: N_3  and  C_4
REMARK    3  A    between atoms: C_7  and  C_8
REMARK    4  A    between atoms: C_21  and  C_23
REMARK    5  A    between atoms: C_23  and  S_24
REMARK    6  A    between atoms: S_24  and  C_25
REMARK                            x       y       z     vdW  Elec       q    Type
REMARK                         _______ _______ _______ _____ _____    ______ ____
ROOT
ATOM      1  C   UNL     1       2.019   5.302  19.597  0.00  0.00    +0.000 C 
ATOM      2  C   UNL     1       1.201   4.446  20.576  0.00  0.00    +0.000 C 
ATOM      3  C   UNL     1       1.526   3.030  20.140  0.00  0.00    +0.000 C 
ATOM      4  C   UNL     1       2.974   3.113  19.660  0.00  0.00    +0.000 C 
ATOM      5  N   UNL     1       3.280   4.532  19.540  0.00  0.00    +0.000 N 
ATOM      6  C   UNL     1       4.472   5.035  19.017  0.00  0.00    +0.000 C 
ATOM      7  O   UNL     1       4.621   6.246  18.871  0.00  0.00    +0.000 OA
ENDROOT
BRANCH   1   9
ATOM      8  O   UNL     1       1.750   7.148  21.175  0.00  0.00    +0.000 OA
ATOM      9  C   UNL     1       1.885   6.789  20.012  0.00  0.00    +0.000 C 
ATOM     10  N   UNL     1       1.895   7.633  18.904  0.00  0.00    +0.000 N 
ATOM     11  H   UNL     1       2.478   7.318  18.138  0.00  0.00    +0.000 HD
BRANCH  10  12
ATOM     12  C   UNL     1       1.687   9.022  19.002  0.00  0.00    +0.000 A 
ATOM     13  C   UNL     1       2.191   9.848  17.998  0.00  0.00    +0.000 A 
ATOM     14  C   UNL     1       1.987  11.234  18.061  0.00  0.00    +0.000 A 
ATOM     15  C   UNL     1       1.211  11.823  19.076  0.00  0.00    +0.000 A 
ATOM     16  C   UNL     1       0.669  10.949  20.044  0.00  0.00    +0.000 A 
ATOM     17  C   UNL     1       0.934   9.573  20.032  0.00  0.00    +0.000 A 
BRANCH  15  18
ATOM     18  C   UNL     1       0.986  13.294  19.147  0.00  0.00    +0.000 A 
ATOM     19  C   UNL     1      -0.108  13.907  18.529  0.00  0.00    +0.000 A 
ATOM     20  C   UNL     1      -0.297  15.306  18.581  0.00  0.00    +0.000 A 
ATOM     21  C   UNL     1       0.607  16.102  19.274  0.00  0.00    +0.000 A 
ATOM     22  C   UNL     1       1.691  15.514  19.913  0.00  0.00    +0.000 A 
ATOM     23  C   UNL     1       1.879  14.133  19.844  0.00  0.00    +0.000 A 
ENDBRANCH  15  18
ENDBRANCH  10  12
ENDBRANCH   1   9
BRANCH   6  24
ATOM     24  C   UNL     1       5.535   4.008  18.553  0.00  0.00    +0.000 C 
BRANCH  24  25
ATOM     25  S   UNL     1       7.071   4.755  17.904  0.00  0.00    +0.000 S 
BRANCH  25  26
ATOM     26  C   UNL     1       6.801   4.657  16.182  0.00  0.00    +0.000 A 
ATOM     27  N   UNL     1       5.932   3.899  15.561  0.00  0.00    +0.000 NA
ATOM     28  C   UNL     1       6.236   4.036  14.220  0.00  0.00    +0.000 A 
ATOM     29  C   UNL     1       5.680   3.393  13.106  0.00  0.00    +0.000 A 
ATOM     30  C   UNL     1       6.241   3.616  11.840  0.00  0.00    +0.000 A 
ATOM     31  C   UNL     1       7.323   4.484  11.683  0.00  0.00    +0.000 A 
ATOM     32  C   UNL     1       7.862   5.180  12.777  0.00  0.00    +0.000 A 
ATOM     33  C   UNL     1       7.294   4.924  14.035  0.00  0.00    +0.000 A 
ATOM     34  N   UNL     1       7.571   5.377  15.311  0.00  0.00    +0.000 N 
ATOM     35  H   UNL     1       8.278   6.051  15.561  0.00  0.00    +0.000 HD
ENDBRANCH  25  26
ENDBRANCH  24  25
ENDBRANCH   6  24
TORSDOF 6
ENDMDL
MODEL 6
REMARK VINA RESULT:      -8.5      0.213      1.325
REMARK  Name = 
REMARK  6 active torsions:
REMARK  status: ('A' for Active; 'I' for Inactive)
REMARK    1  A    between atoms: C_2  and  C_16
REMARK    2  A    between atoms: N_3  and  C_4
REMARK    3  A    between atoms: C_7  and  C_8
REMARK    4  A    between atoms: C_21  and  C_23
REMARK    5  A    between atoms: C_23  and  S_24
REMARK    6  A    between atoms: S_24  and  C_25
REMARK                            x       y       z     vdW  Elec       q    Type
REMARK                         _______ _______ _______ _____ _____    ______ ____
ROOT
ATOM      1  C   UNL     1       2.453   4.556  18.809  0.00  0.00    +0.000 C 
ATOM      2  C   UNL     1       1.741   3.213  19.033  0.00  0.00    +0.000 C 
ATOM      3  C   UNL     1       2.555   2.253  18.185  0.00  0.00    +0.000 C 
ATOM      4  C   UNL     1       3.979   2.797  18.273  0.00  0.00    +0.000 C 
ATOM      5  N   UNL     1       3.869   4.130  18.850  0.00  0.00    +0.000 N 
ATOM      6  C   UNL     1       4.940   5.013  18.991  0.00  0.00    +0.000 C 
ATOM      7  O   UNL     1       4.751   6.153  19.411  0.00  0.00    +0.000 OA
ENDROOT
BRANCH   1   9
ATOM      8  O   UNL     1       1.129   5.330  20.711  0.00  0.00    +0.000 OA
ATOM      9  C   UNL     1       1.802   5.619  19.730  0.00  0.00    +0.000 C 
ATOM     10  N   UNL     1       2.044   6.911  19.270  0.00  0.00    +0.000 N 
ATOM     11  H   UNL     1       2.943   7.038  18.821  0.00  0.00    +0.000 HD
BRANCH  10  12
ATOM     12  C   UNL     1       1.478   8.052  19.871  0.00  0.00    +0.000 A 
ATOM     13  C   UNL     1       1.296   8.062  21.253  0.00  0.00    +0.000 A 
ATOM     14  C   UNL     1       0.749   9.189  21.881  0.00  0.00    +0.000 A 
ATOM     15  C   UNL     1       0.446  10.362  21.165  0.00  0.00    +0.000 A 
ATOM     16  C   UNL     1       0.696  10.335  19.776  0.00  0.00    +0.000 A 
ATOM     17  C   UNL     1       1.168   9.185  19.129  0.00  0.00    +0.000 A 
BRANCH  15  18
ATOM     18  C   UNL     1      -0.132  11.565  21.826  0.00  0.00    +0.000 A 
ATOM     19  C   UNL     1       0.320  12.857  21.538  0.00  0.00    +0.000 A 
ATOM     20  C   UNL     1      -0.217  13.990  22.189  0.00  0.00    +0.000 A 
ATOM     21  C   UNL     1      -1.231  13.834  23.127  0.00  0.00    +0.000 A 
ATOM     22  C   UNL     1      -1.711  12.562  23.415  0.00  0.00    +0.000 A 
ATOM     23  C   UNL     1      -1.163  11.448  22.779  0.00  0.00    +0.000 A 
ENDBRANCH  15  18
ENDBRANCH  10  12
ENDBRANCH   1   9
BRANCH   6  24
ATOM     24  C   UNL     1       6.331   4.527  18.515  0.00  0.00    +0.000 C 
BRANCH  24  25
ATOM     25  S   UNL     1       7.272   5.761  17.551  0.00  0.00    +0.000 S 
BRANCH  25  26
ATOM     26  C   UNL     1       7.168   5.094  15.941  0.00  0.00    +0.000 A 
ATOM     27  N   UNL     1       7.849   5.466  14.886  0.00  0.00    +0.000 NA
ATOM     28  C   UNL     1       7.277   4.780  13.833  0.00  0.00    +0.000 A 
ATOM     29  C   UNL     1       7.555   4.853  12.461  0.00  0.00    +0.000 A 
ATOM     30  C   UNL     1       6.751   4.135  11.563  0.00  0.00    +0.000 A 
ATOM     31  C   UNL     1       5.703   3.337  12.028  0.00  0.00    +0.000 A 
ATOM     32  C   UNL     1       5.440   3.208  13.400  0.00  0.00    +0.000 A 
ATOM     33  C   UNL     1       6.248   3.952  14.275  0.00  0.00    +0.000 A 
ATOM     34  N   UNL     1       6.267   4.108  15.648  0.00  0.00    +0.000 N 
ATOM     35  H   UNL     1       5.661   3.642  16.307  0.00  0.00    +0.000 HD
ENDBRANCH  25  26
ENDBRANCH  24  25
ENDBRANCH   6  24
TORSDOF 6
ENDMDL
MODEL 7
REMARK VINA RESULT:      -8.4      5.398     10.260
REMARK  Name = 
REMARK  6 active torsions:
REMARK  status: ('A' for Active; 'I' for Inactive)
REMARK    1  A    between atoms: C_2  and  C_16
REMARK    2  A    between atoms: N_3  and  C_4
REMARK    3  A    between atoms: C_7  and  C_8
REMARK    4  A    between atoms: C_21  and  C_23
REMARK    5  A    between atoms: C_23  and  S_24
REMARK    6  A    between atoms: S_24  and  C_25
REMARK                            x       y       z     vdW  Elec       q    Type
REMARK                         _______ _______ _______ _____ _____    ______ ____
ROOT
ATOM      1  C   UNL     1      -1.095  12.501  20.353  0.00  0.00    +0.000 C 
ATOM      2  C   UNL     1      -2.625  12.571  20.231  0.00  0.00    +0.000 C 
ATOM      3  C   UNL     1      -2.963  13.859  20.959  0.00  0.00    +0.000 C 
ATOM      4  C   UNL     1      -1.770  14.770  20.674  0.00  0.00    +0.000 C 
ATOM      5  N   UNL     1      -0.731  13.915  20.116  0.00  0.00    +0.000 N 
ATOM      6  C   UNL     1       0.564  14.343  19.827  0.00  0.00    +0.000 C 
ATOM      7  O   UNL     1       1.409  13.540  19.437  0.00  0.00    +0.000 OA
ENDROOT
BRANCH   1   9
ATOM      8  O   UNL     1      -1.187  10.848  18.555  0.00  0.00    +0.000 OA
ATOM      9  C   UNL     1      -0.591  11.288  19.531  0.00  0.00    +0.000 C 
ATOM     10  N   UNL     1       0.578  10.755  20.068  0.00  0.00    +0.000 N 
ATOM     11  H   UNL     1       1.196  11.436  20.494  0.00  0.00    +0.000 HD
BRANCH  10  12
ATOM     12  C   UNL     1       1.185   9.587  19.567  0.00  0.00    +0.000 A 
ATOM     13  C   UNL     1       1.691   9.599  18.269  0.00  0.00    +0.000 A 
ATOM     14  C   UNL     1       2.314   8.456  17.747  0.00  0.00    +0.000 A 
ATOM     15  C   UNL     1       2.520   7.304  18.528  0.00  0.00    +0.000 A 
ATOM     16  C   UNL     1       2.044   7.348  19.857  0.00  0.00    +0.000 A 
ATOM     17  C   UNL     1       1.351   8.458  20.360  0.00  0.00    +0.000 A 
BRANCH  15  18
ATOM     18  C   UNL     1       3.184   6.087  17.983  0.00  0.00    +0.000 A 
ATOM     19  C   UNL     1       2.517   4.862  17.882  0.00  0.00    +0.000 A 
ATOM     20  C   UNL     1       3.164   3.708  17.387  0.00  0.00    +0.000 A 
ATOM     21  C   UNL     1       4.488   3.780  16.972  0.00  0.00    +0.000 A 
ATOM     22  C   UNL     1       5.165   4.991  17.043  0.00  0.00    +0.000 A 
ATOM     23  C   UNL     1       4.524   6.122  17.548  0.00  0.00    +0.000 A 
ENDBRANCH  15  18
ENDBRANCH  10  12
ENDBRANCH   1   9
BRANCH   6  24
ATOM     24  C   UNL     1       0.902  15.829  20.106  0.00  0.00    +0.000 C 
BRANCH  24  25
ATOM     25  S   UNL     1       1.478  16.759  18.642  0.00  0.00    +0.000 S 
BRANCH  25  26
ATOM     26  C   UNL     1       3.201  16.487  18.717  0.00  0.00    +0.000 A 
ATOM     27  N   UNL     1       4.113  17.320  19.151  0.00  0.00    +0.000 NA
ATOM     28  C   UNL     1       5.318  16.727  18.829  0.00  0.00    +0.000 A 
ATOM     29  C   UNL     1       6.625  17.210  18.988  0.00  0.00    +0.000 A 
ATOM     30  C   UNL     1       7.694  16.464  18.471  0.00  0.00    +0.000 A 
ATOM     31  C   UNL     1       7.468  15.245  17.829  0.00  0.00    +0.000 A 
ATOM     32  C   UNL     1       6.173  14.717  17.706  0.00  0.00    +0.000 A 
ATOM     33  C   UNL     1       5.120  15.493  18.214  0.00  0.00    +0.000 A 
ATOM     34  N   UNL     1       3.748  15.327  18.243  0.00  0.00    +0.000 N 
ATOM     35  H   UNL     1       3.238  14.529  17.894  0.00  0.00    +0.000 HD
ENDBRANCH  25  26
ENDBRANCH  24  25
ENDBRANCH   6  24
TORSDOF 6
ENDMDL
MODEL 8
REMARK VINA RESULT:      -8.4      5.277     11.633
REMARK  Name = 
REMARK  6 active torsions:
REMARK  status: ('A' for Active; 'I' for Inactive)
REMARK    1  A    between atoms: C_2  and  C_16
REMARK    2  A    between atoms: N_3  and  C_4
REMARK    3  A    between atoms: C_7  and  C_8
REMARK    4  A    between atoms: C_21  and  C_23
REMARK    5  A    between atoms: C_23  and  S_24
REMARK    6  A    between atoms: S_24  and  C_25
REMARK                            x       y       z     vdW  Elec       q    Type
REMARK                         _______ _______ _______ _____ _____    ______ ____
ROOT
ATOM      1  C   UNL     1      -0.931  12.583  19.397  0.00  0.00    +0.000 C 
ATOM      2  C   UNL     1      -0.016  13.368  18.445  0.00  0.00    +0.000 C 
ATOM      3  C   UNL     1      -0.340  14.812  18.780  0.00  0.00    +0.000 C 
ATOM      4  C   UNL     1      -0.646  14.787  20.276  0.00  0.00    +0.000 C 
ATOM      5  N   UNL     1      -0.798  13.383  20.635  0.00  0.00    +0.000 N 
ATOM      6  C   UNL     1      -1.198  12.935  21.893  0.00  0.00    +0.000 C 
ATOM      7  O   UNL     1      -1.384  11.736  22.094  0.00  0.00    +0.000 OA
ENDROOT
BRANCH   1   9
ATOM      8  O   UNL     1      -1.419  10.254  18.840  0.00  0.00    +0.000 OA
ATOM      9  C   UNL     1      -0.609  11.074  19.258  0.00  0.00    +0.000 C 
ATOM     10  N   UNL     1       0.677  10.781  19.703  0.00  0.00    +0.000 N 
ATOM     11  H   UNL     1       1.358  11.514  19.540  0.00  0.00    +0.000 HD
BRANCH  10  12
ATOM     12  C   UNL     1       1.178   9.467  19.776  0.00  0.00    +0.000 A 
ATOM     13  C   UNL     1       0.950   8.725  20.933  0.00  0.00    +0.000 A 
ATOM     14  C   UNL     1       1.423   7.409  21.029  0.00  0.00    +0.000 A 
ATOM     15  C   UNL     1       2.062   6.771  19.949  0.00  0.00    +0.000 A 
ATOM     16  C   UNL     1       2.226   7.535  18.773  0.00  0.00    +0.000 A 
ATOM     17  C   UNL     1       1.826   8.876  18.697  0.00  0.00    +0.000 A 
BRANCH  15  18
ATOM     18  C   UNL     1       2.564   5.372  20.041  0.00  0.00    +0.000 A 
ATOM     19  C   UNL     1       3.619   4.910  19.247  0.00  0.00    +0.000 A 
ATOM     20  C   UNL     1       4.071   3.574  19.324  0.00  0.00    +0.000 A 
ATOM     21  C   UNL     1       3.475   2.691  20.217  0.00  0.00    +0.000 A 
ATOM     22  C   UNL     1       2.439   3.133  21.031  0.00  0.00    +0.000 A 
ATOM     23  C   UNL     1       1.988   4.449  20.937  0.00  0.00    +0.000 A 
ENDBRANCH  15  18
ENDBRANCH  10  12
ENDBRANCH   1   9
BRANCH   6  24
ATOM     24  C   UNL     1      -1.480  14.008  22.974  0.00  0.00    +0.000 C 
BRANCH  24  25
ATOM     25  S   UNL     1      -3.128  13.878  23.753  0.00  0.00    +0.000 S 
BRANCH  25  26
ATOM     26  C   UNL     1      -4.148  13.614  22.361  0.00  0.00    +0.000 A 
ATOM     27  N   UNL     1      -4.549  14.512  21.496  0.00  0.00    +0.000 NA
ATOM     28  C   UNL     1      -5.478  13.857  20.710  0.00  0.00    +0.000 A 
ATOM     29  C   UNL     1      -6.284  14.352  19.676  0.00  0.00    +0.000 A 
ATOM     30  C   UNL     1      -7.245  13.509  19.097  0.00  0.00    +0.000 A 
ATOM     31  C   UNL     1      -7.382  12.187  19.525  0.00  0.00    +0.000 A 
ATOM     32  C   UNL     1      -6.549  11.654  20.522  0.00  0.00    +0.000 A 
ATOM     33  C   UNL     1      -5.610  12.525  21.097  0.00  0.00    +0.000 A 
ATOM     34  N   UNL     1      -4.671  12.379  22.101  0.00  0.00    +0.000 N 
ATOM     35  H   UNL     1      -4.474  11.531  22.610  0.00  0.00    +0.000 HD
ENDBRANCH  25  26
ENDBRANCH  24  25
ENDBRANCH   6  24
TORSDOF 6
ENDMDL
MODEL 9
REMARK VINA RESULT:      -8.3      5.058     11.699
REMARK  Name = 
REMARK  6 active torsions:
REMARK  status: ('A' for Active; 'I' for Inactive)
REMARK    1  A    between atoms: C_2  and  C_16
REMARK    2  A    between atoms: N_3  and  C_4
REMARK    3  A    between atoms: C_7  and  C_8
REMARK    4  A    between atoms: C_21  and  C_23
REMARK    5  A    between atoms: C_23  and  S_24
REMARK    6  A    between atoms: S_24  and  C_25
REMARK                            x       y       z     vdW  Elec       q    Type
REMARK                         _______ _______ _______ _____ _____    ______ ____
ROOT
ATOM      1  C   UNL     1      -1.101  13.005  19.607  0.00  0.00    +0.000 C 
ATOM      2  C   UNL     1      -0.279  13.970  18.738  0.00  0.00    +0.000 C 
ATOM      3  C   UNL     1      -0.644  15.329  19.304  0.00  0.00    +0.000 C 
ATOM      4  C   UNL     1      -0.858  15.065  20.793  0.00  0.00    +0.000 C 
ATOM      5  N   UNL     1      -0.928  13.617  20.942  0.00  0.00    +0.000 N 
ATOM      6  C   UNL     1      -1.232  12.966  22.138  0.00  0.00    +0.000 C 
ATOM      7  O   UNL     1      -1.354  11.744  22.163  0.00  0.00    +0.000 OA
ENDROOT
BRANCH   1   9
ATOM      8  O   UNL     1      -1.538  10.739  18.804  0.00  0.00    +0.000 OA
ATOM      9  C   UNL     1      -0.723  11.552  19.223  0.00  0.00    +0.000 C 
ATOM     10  N   UNL     1       0.625  11.294  19.456  0.00  0.00    +0.000 N 
ATOM     11  H   UNL     1       1.239  12.087  19.310  0.00  0.00    +0.000 HD
BRANCH  10  12
ATOM     12  C   UNL     1       1.199  10.020  19.285  0.00  0.00    +0.000 A 
ATOM     13  C   UNL     1       1.169   9.122  20.350  0.00  0.00    +0.000 A 
ATOM     14  C   UNL     1       1.718   7.840  20.204  0.00  0.00    +0.000 A 
ATOM     15  C   UNL     1       2.236   7.392  18.974  0.00  0.00    +0.000 A 
ATOM     16  C   UNL     1       2.198   8.310  17.902  0.00  0.00    +0.000 A 
ATOM     17  C   UNL     1       1.723   9.619  18.062  0.00  0.00    +0.000 A 
BRANCH  15  18
ATOM     18  C   UNL     1       2.818   6.031  18.810  0.00  0.00    +0.000 A 
ATOM     19  C   UNL     1       2.669   5.039  19.785  0.00  0.00    +0.000 A 
ATOM     20  C   UNL     1       3.247   3.760  19.631  0.00  0.00    +0.000 A 
ATOM     21  C   UNL     1       3.968   3.459  18.482  0.00  0.00    +0.000 A 
ATOM     22  C   UNL     1       4.112   4.421  17.490  0.00  0.00    +0.000 A 
ATOM     23  C   UNL     1       3.552   5.688  17.657  0.00  0.00    +0.000 A 
ENDBRANCH  15  18
ENDBRANCH  10  12
ENDBRANCH   1   9
BRANCH   6  24
ATOM     24  C   UNL     1      -1.494  13.851  23.383  0.00  0.00    +0.000 C 
BRANCH  24  25
ATOM     25  S   UNL     1      -3.199  13.750  24.033  0.00  0.00    +0.000 S 
BRANCH  25  26
ATOM     26  C   UNL     1      -4.121  13.584  22.559  0.00  0.00    +0.000 A 
ATOM     27  N   UNL     1      -4.447  14.537  21.721  0.00  0.00    +0.000 NA
ATOM     28  C   UNL     1      -5.326  13.944  20.836  0.00  0.00    +0.000 A 
ATOM     29  C   UNL     1      -6.050  14.512  19.778  0.00  0.00    +0.000 A 
ATOM     30  C   UNL     1      -6.978  13.722  19.085  0.00  0.00    +0.000 A 
ATOM     31  C   UNL     1      -7.165  12.380  19.425  0.00  0.00    +0.000 A 
ATOM     32  C   UNL     1      -6.412  11.776  20.445  0.00  0.00    +0.000 A 
ATOM     33  C   UNL     1      -5.505  12.596  21.134  0.00  0.00    +0.000 A 
ATOM     34  N   UNL     1      -4.642  12.375  22.191  0.00  0.00    +0.000 N 
ATOM     35  H   UNL     1      -4.493  11.496  22.663  0.00  0.00    +0.000 HD
ENDBRANCH  25  26
ENDBRANCH  24  25
ENDBRANCH   6  24
TORSDOF 6
ENDMDL
