MODEL 1
REMARK VINA RESULT:      -6.2      0.000      0.000
REMARK  Name = 
REMARK  9 active torsions:
REMARK  status: ('A' for Active; 'I' for Inactive)
REMARK    1  A    between atoms: C_1  and  C_2
REMARK    2  A    between atoms: C_2  and  O_3
REMARK    3  A    between atoms: O_3  and  C_4
REMARK    4  A    between atoms: C_7  and  O_8
REMARK    5  A    between atoms: O_8  and  C_9
REMARK    6  A    between atoms: C_9  and  C_10
REMARK    7  A    between atoms: C_10  and  C_11
REMARK    8  A    between atoms: C_11  and  C_12
REMARK    9  A    between atoms: C_12  and  N_13
REMARK                            x       y       z     vdW  Elec       q    Type
REMARK                         _______ _______ _______ _____ _____    ______ ____
ROOT
ATOM      1  O   UNL     1       4.226   5.699  19.737  0.00  0.00    +0.000 OA
ENDROOT
BRANCH   1   5
ATOM      2  C   UNL     1       6.757   5.361  16.428  0.00  0.00    +0.000 A 
ATOM      3  C   UNL     1       5.513   5.965  16.269  0.00  0.00    +0.000 A 
ATOM      4  C   UNL     1       4.647   6.097  17.351  0.00  0.00    +0.000 A 
ATOM      5  C   UNL     1       5.008   5.612  18.608  0.00  0.00    +0.000 A 
ATOM      6  C   UNL     1       6.249   4.983  18.763  0.00  0.00    +0.000 A 
ATOM      7  C   UNL     1       7.125   4.857  17.674  0.00  0.00    +0.000 A 
BRANCH   2   8
ATOM      8  O   UNL     1       7.498   5.307  15.286  0.00  0.00    +0.000 OA
BRANCH   8  10
ATOM      9  C   UNL     1       6.285   3.710  14.027  0.00  0.00    +0.000 C 
ATOM     10  C   UNL     1       6.780   5.144  14.066  0.00  0.00    +0.000 C 
ENDBRANCH   8  10
ENDBRANCH   2   8
ENDBRANCH   1   5
BRANCH   1  11
ATOM     11  C   UNL     1       2.834   5.909  19.480  0.00  0.00    +0.000 C 
BRANCH  11  12
ATOM     12  C   UNL     1       2.003   5.546  20.701  0.00  0.00    +0.000 C 
BRANCH  12  13
ATOM     13  C   UNL     1       1.255   4.228  20.461  0.00  0.00    +0.000 C 
BRANCH  13  14
ATOM     14  C   UNL     1       2.231   3.048  20.461  0.00  0.00    +0.000 C 
BRANCH  14  15
ATOM     15  N   UNL     1       2.018   2.092  19.363  0.00  0.00    +0.000 NA
ATOM     16  C   UNL     1       3.252   1.487  18.839  0.00  0.00    +0.000 C 
ATOM     17  C   UNL     1       3.775   2.467  17.808  0.00  0.00    +0.000 C 
ATOM     18  C   UNL     1       2.512   3.021  17.178  0.00  0.00    +0.000 C 
ATOM     19  C   UNL     1       1.411   2.785  18.209  0.00  0.00    +0.000 C 
ENDBRANCH  14  15
ENDBRANCH  13  14
ENDBRANCH  12  13
ENDBRANCH  11  12
ENDBRANCH   1  11
TORSDOF 8
ENDMDL
MODEL 2
REMARK VINA RESULT:      -6.0      2.278      4.468
REMARK  Name = 
REMARK  9 active torsions:
REMARK  status: ('A' for Active; 'I' for Inactive)
REMARK    1  A    between atoms: C_1  and  C_2
REMARK    2  A    between atoms: C_2  and  O_3
REMARK    3  A    between atoms: O_3  and  C_4
REMARK    4  A    between atoms: C_7  and  O_8
REMARK    5  A    between atoms: O_8  and  C_9
REMARK    6  A    between atoms: C_9  and  C_10
REMARK    7  A    between atoms: C_10  and  C_11
REMARK    8  A    between atoms: C_11  and  C_12
REMARK    9  A    between atoms: C_12  and  N_13
REMARK                            x       y       z     vdW  Elec       q    Type
REMARK                         _______ _______ _______ _____ _____    ______ ____
ROOT
ATOM      1  O   UNL     1       7.484   5.713  15.451  0.00  0.00    +0.000 OA
ENDROOT
BRANCH   1   5
ATOM      2  C   UNL     1       5.788   3.536  12.312  0.00  0.00    +0.000 A 
ATOM      3  C   UNL     1       5.099   3.633  13.518  0.00  0.00    +0.000 A 
ATOM      4  C   UNL     1       5.633   4.353  14.583  0.00  0.00    +0.000 A 
ATOM      5  C   UNL     1       6.875   4.977  14.460  0.00  0.00    +0.000 A 
ATOM      6  C   UNL     1       7.579   4.859  13.256  0.00  0.00    +0.000 A 
ATOM      7  C   UNL     1       7.037   4.139  12.180  0.00  0.00    +0.000 A 
BRANCH   2   8
ATOM      8  O   UNL     1       5.141   2.806  11.360  0.00  0.00    +0.000 OA
BRANCH   8  10
ATOM      9  C   UNL     1       3.481   3.893  10.069  0.00  0.00    +0.000 C 
ATOM     10  C   UNL     1       3.732   2.990  11.263  0.00  0.00    +0.000 C 
ENDBRANCH   8  10
ENDBRANCH   2   8
ENDBRANCH   1   5
BRANCH   1  11
ATOM     11  C   UNL     1       6.653   5.986  16.583  0.00  0.00    +0.000 C 
BRANCH  11  12
ATOM     12  C   UNL     1       7.434   5.807  17.876  0.00  0.00    +0.000 C 
BRANCH  12  13
ATOM     13  C   UNL     1       6.513   5.276  18.982  0.00  0.00    +0.000 C 
BRANCH  13  14
ATOM     14  C   UNL     1       5.046   5.395  18.563  0.00  0.00    +0.000 C 
BRANCH  14  15
ATOM     15  N   UNL     1       4.283   4.143  18.681  0.00  0.00    +0.000 NA
ATOM     16  C   UNL     1       3.451   3.827  17.510  0.00  0.00    +0.000 C 
ATOM     17  C   UNL     1       2.150   4.573  17.726  0.00  0.00    +0.000 C 
ATOM     18  C   UNL     1       1.947   4.496  19.227  0.00  0.00    +0.000 C 
ATOM     19  C   UNL     1       3.334   4.241  19.808  0.00  0.00    +0.000 C 
ENDBRANCH  14  15
ENDBRANCH  13  14
ENDBRANCH  12  13
ENDBRANCH  11  12
ENDBRANCH   1  11
TORSDOF 8
ENDMDL
MODEL 3
REMARK VINA RESULT:      -5.9      1.554      1.888
REMARK  Name = 
REMARK  9 active torsions:
REMARK  status: ('A' for Active; 'I' for Inactive)
REMARK    1  A    between atoms: C_1  and  C_2
REMARK    2  A    between atoms: C_2  and  O_3
REMARK    3  A    between atoms: O_3  and  C_4
REMARK    4  A    between atoms: C_7  and  O_8
REMARK    5  A    between atoms: O_8  and  C_9
REMARK    6  A    between atoms: C_9  and  C_10
REMARK    7  A    between atoms: C_10  and  C_11
REMARK    8  A    between atoms: C_11  and  C_12
REMARK    9  A    between atoms: C_12  and  N_13
REMARK                            x       y       z     vdW  Elec       q    Type
REMARK                         _______ _______ _______ _____ _____    ______ ____
ROOT
ATOM      1  O   UNL     1       3.626   6.749  18.004  0.00  0.00    +0.000 OA
ENDROOT
BRANCH   1   5
ATOM      2  C   UNL     1       5.718   4.367  15.280  0.00  0.00    +0.000 A 
ATOM      3  C   UNL     1       5.758   5.751  15.138  0.00  0.00    +0.000 A 
ATOM      4  C   UNL     1       5.075   6.574  16.030  0.00  0.00    +0.000 A 
ATOM      5  C   UNL     1       4.329   6.021  17.071  0.00  0.00    +0.000 A 
ATOM      6  C   UNL     1       4.269   4.629  17.200  0.00  0.00    +0.000 A 
ATOM      7  C   UNL     1       4.963   3.800  16.304  0.00  0.00    +0.000 A 
BRANCH   2   8
ATOM      8  O   UNL     1       6.436   3.692  14.339  0.00  0.00    +0.000 OA
BRANCH   8  10
ATOM      9  C   UNL     1       6.958   3.880  12.037  0.00  0.00    +0.000 C 
ATOM     10  C   UNL     1       5.856   3.596  13.041  0.00  0.00    +0.000 C 
ENDBRANCH   8  10
ENDBRANCH   2   8
ENDBRANCH   1   5
BRANCH   1  11
ATOM     11  C   UNL     1       3.530   6.130  19.290  0.00  0.00    +0.000 C 
BRANCH  11  12
ATOM     12  C   UNL     1       2.205   6.476  19.953  0.00  0.00    +0.000 C 
BRANCH  12  13
ATOM     13  C   UNL     1       1.625   5.241  20.654  0.00  0.00    +0.000 C 
BRANCH  13  14
ATOM     14  C   UNL     1       1.323   4.138  19.637  0.00  0.00    +0.000 C 
BRANCH  14  15
ATOM     15  N   UNL     1       1.578   2.777  20.133  0.00  0.00    +0.000 NA
ATOM     16  C   UNL     1       2.763   2.658  20.995  0.00  0.00    +0.000 C 
ATOM     17  C   UNL     1       3.933   2.471  20.050  0.00  0.00    +0.000 C 
ATOM     18  C   UNL     1       3.348   1.637  18.928  0.00  0.00    +0.000 C 
ATOM     19  C   UNL     1       1.841   1.873  18.995  0.00  0.00    +0.000 C 
ENDBRANCH  14  15
ENDBRANCH  13  14
ENDBRANCH  12  13
ENDBRANCH  11  12
ENDBRANCH   1  11
TORSDOF 8
ENDMDL
MODEL 4
REMARK VINA RESULT:      -5.8      2.607      3.990
REMARK  Name = 
REMARK  9 active torsions:
REMARK  status: ('A' for Active; 'I' for Inactive)
REMARK    1  A    between atoms: C_1  and  C_2
REMARK    2  A    between atoms: C_2  and  O_3
REMARK    3  A    between atoms: O_3  and  C_4
REMARK    4  A    between atoms: C_7  and  O_8
REMARK    5  A    between atoms: O_8  and  C_9
REMARK    6  A    between atoms: C_9  and  C_10
REMARK    7  A    between atoms: C_10  and  C_11
REMARK    8  A    between atoms: C_11  and  C_12
REMARK    9  A    between atoms: C_12  and  N_13
REMARK                            x       y       z     vdW  Elec       q    Type
REMARK                         _______ _______ _______ _____ _____    ______ ____
ROOT
ATOM      1  O   UNL     1       6.138   3.940  16.653  0.00  0.00    +0.000 OA
ENDROOT
BRANCH   1   5
ATOM      2  C   UNL     1       8.048   7.236  18.370  0.00  0.00    +0.000 A 
ATOM      3  C   UNL     1       7.347   7.406  17.180  0.00  0.00    +0.000 A 
ATOM      4  C   UNL     1       6.696   6.329  16.583  0.00  0.00    +0.000 A 
ATOM      5  C   UNL     1       6.750   5.062  17.163  0.00  0.00    +0.000 A 
ATOM      6  C   UNL     1       7.475   4.886  18.347  0.00  0.00    +0.000 A 
ATOM      7  C   UNL     1       8.125   5.973  18.953  0.00  0.00    +0.000 A 
BRANCH   2   8
ATOM      8  O   UNL     1       8.628   8.377  18.840  0.00  0.00    +0.000 OA
BRANCH   8  10
ATOM      9  C   UNL     1       9.315  10.632  18.625  0.00  0.00    +0.000 C 
ATOM     10  C   UNL     1       8.347   9.577  18.125  0.00  0.00    +0.000 C 
ENDBRANCH   8  10
ENDBRANCH   2   8
ENDBRANCH   1   5
BRANCH   1  11
ATOM     11  C   UNL     1       4.730   4.077  16.440  0.00  0.00    +0.000 C 
BRANCH  11  12
ATOM     12  C   UNL     1       3.953   3.210  17.420  0.00  0.00    +0.000 C 
BRANCH  12  13
ATOM     13  C   UNL     1       2.485   3.652  17.470  0.00  0.00    +0.000 C 
BRANCH  13  14
ATOM     14  C   UNL     1       2.306   4.809  18.457  0.00  0.00    +0.000 C 
BRANCH  14  15
ATOM     15  N   UNL     1       1.210   4.614  19.419  0.00  0.00    +0.000 NA
ATOM     16  C   UNL     1       1.518   5.056  20.787  0.00  0.00    +0.000 C 
ATOM     17  C   UNL     1       2.223   3.883  21.440  0.00  0.00    +0.000 C 
ATOM     18  C   UNL     1       1.523   2.677  20.845  0.00  0.00    +0.000 C 
ATOM     19  C   UNL     1       0.904   3.174  19.542  0.00  0.00    +0.000 C 
ENDBRANCH  14  15
ENDBRANCH  13  14
ENDBRANCH  12  13
ENDBRANCH  11  12
ENDBRANCH   1  11
TORSDOF 8
ENDMDL
MODEL 5
REMARK VINA RESULT:      -5.8      5.105      8.104
REMARK  Name = 
REMARK  9 active torsions:
REMARK  status: ('A' for Active; 'I' for Inactive)
REMARK    1  A    between atoms: C_1  and  C_2
REMARK    2  A    between atoms: C_2  and  O_3
REMARK    3  A    between atoms: O_3  and  C_4
REMARK    4  A    between atoms: C_7  and  O_8
REMARK    5  A    between atoms: O_8  and  C_9
REMARK    6  A    between atoms: C_9  and  C_10
REMARK    7  A    between atoms: C_10  and  C_11
REMARK    8  A    between atoms: C_11  and  C_12
REMARK    9  A    between atoms: C_12  and  N_13
REMARK                            x       y       z     vdW  Elec       q    Type
REMARK                         _______ _______ _______ _____ _____    ______ ____
ROOT
ATOM      1  O   UNL     1       6.547   6.077  17.479  0.00  0.00    +0.000 OA
ENDROOT
BRANCH   1   5
ATOM      2  C   UNL     1       2.568   4.837  17.792  0.00  0.00    +0.000 A 
ATOM      3  C   UNL     1       3.541   3.905  17.441  0.00  0.00    +0.000 A 
ATOM      4  C   UNL     1       4.876   4.284  17.332  0.00  0.00    +0.000 A 
ATOM      5  C   UNL     1       5.256   5.607  17.558  0.00  0.00    +0.000 A 
ATOM      6  C   UNL     1       4.274   6.549  17.887  0.00  0.00    +0.000 A 
ATOM      7  C   UNL     1       2.929   6.166  18.005  0.00  0.00    +0.000 A 
BRANCH   2   8
ATOM      8  O   UNL     1       1.308   4.323  17.867  0.00  0.00    +0.000 OA
BRANCH   8  10
ATOM      9  C   UNL     1       0.860   3.191  19.897  0.00  0.00    +0.000 C 
ATOM     10  C   UNL     1       1.184   3.018  18.425  0.00  0.00    +0.000 C 
ENDBRANCH   8  10
ENDBRANCH   2   8
ENDBRANCH   1   5
BRANCH   1  11
ATOM     11  C   UNL     1       6.660   7.503  17.468  0.00  0.00    +0.000 C 
BRANCH  11  12
ATOM     12  C   UNL     1       8.061   7.932  17.877  0.00  0.00    +0.000 C 
BRANCH  12  13
ATOM     13  C   UNL     1       8.161   9.462  17.901  0.00  0.00    +0.000 C 
BRANCH  13  14
ATOM     14  C   UNL     1       9.012   9.927  19.086  0.00  0.00    +0.000 C 
BRANCH  14  15
ATOM     15  N   UNL     1       9.324  11.365  19.074  0.00  0.00    +0.000 NA
ATOM     16  C   UNL     1      10.013  11.826  17.860  0.00  0.00    +0.000 C 
ATOM     17  C   UNL     1      11.485  11.567  18.108  0.00  0.00    +0.000 C 
ATOM     18  C   UNL     1      11.645  11.843  19.590  0.00  0.00    +0.000 C 
ATOM     19  C   UNL     1      10.248  11.683  20.182  0.00  0.00    +0.000 C 
ENDBRANCH  14  15
ENDBRANCH  13  14
ENDBRANCH  12  13
ENDBRANCH  11  12
ENDBRANCH   1  11
TORSDOF 8
ENDMDL
MODEL 6
REMARK VINA RESULT:      -5.7      2.342      4.584
REMARK  Name = 
REMARK  9 active torsions:
REMARK  status: ('A' for Active; 'I' for Inactive)
REMARK    1  A    between atoms: C_1  and  C_2
REMARK    2  A    between atoms: C_2  and  O_3
REMARK    3  A    between atoms: O_3  and  C_4
REMARK    4  A    between atoms: C_7  and  O_8
REMARK    5  A    between atoms: O_8  and  C_9
REMARK    6  A    between atoms: C_9  and  C_10
REMARK    7  A    between atoms: C_10  and  C_11
REMARK    8  A    between atoms: C_11  and  C_12
REMARK    9  A    between atoms: C_12  and  N_13
REMARK                            x       y       z     vdW  Elec       q    Type
REMARK                         _______ _______ _______ _____ _____    ______ ____
ROOT
ATOM      1  O   UNL     1       7.658   5.449  15.296  0.00  0.00    +0.000 OA
ENDROOT
BRANCH   1   5
ATOM      2  C   UNL     1       5.614   3.488  12.223  0.00  0.00    +0.000 A 
ATOM      3  C   UNL     1       6.840   4.084  11.945  0.00  0.00    +0.000 A 
ATOM      4  C   UNL     1       7.550   4.743  12.947  0.00  0.00    +0.000 A 
ATOM      5  C   UNL     1       7.032   4.826  14.240  0.00  0.00    +0.000 A 
ATOM      6  C   UNL     1       5.788   4.248  14.513  0.00  0.00    +0.000 A 
ATOM      7  C   UNL     1       5.076   3.577  13.505  0.00  0.00    +0.000 A 
BRANCH   2   8
ATOM      8  O   UNL     1       5.038   2.876  11.150  0.00  0.00    +0.000 OA
BRANCH   8  10
ATOM      9  C   UNL     1       3.301   3.936   9.939  0.00  0.00    +0.000 C 
ATOM     10  C   UNL     1       3.619   2.958  11.054  0.00  0.00    +0.000 C 
ENDBRANCH   8  10
ENDBRANCH   2   8
ENDBRANCH   1   5
BRANCH   1  11
ATOM     11  C   UNL     1       7.032   5.239  16.565  0.00  0.00    +0.000 C 
BRANCH  11  12
ATOM     12  C   UNL     1       6.519   6.554  17.132  0.00  0.00    +0.000 C 
BRANCH  12  13
ATOM     13  C   UNL     1       5.294   6.304  18.022  0.00  0.00    +0.000 C 
BRANCH  13  14
ATOM     14  C   UNL     1       4.247   5.474  17.275  0.00  0.00    +0.000 C 
BRANCH  14  15
ATOM     15  N   UNL     1       3.857   4.235  17.965  0.00  0.00    +0.000 NA
ATOM     16  C   UNL     1       2.761   3.498  17.317  0.00  0.00    +0.000 C 
ATOM     17  C   UNL     1       1.486   4.126  17.843  0.00  0.00    +0.000 C 
ATOM     18  C   UNL     1       1.832   4.470  19.279  0.00  0.00    +0.000 C 
ATOM     19  C   UNL     1       3.355   4.555  19.317  0.00  0.00    +0.000 C 
ENDBRANCH  14  15
ENDBRANCH  13  14
ENDBRANCH  12  13
ENDBRANCH  11  12
ENDBRANCH   1  11
TORSDOF 8
ENDMDL
MODEL 7
REMARK VINA RESULT:      -5.7      3.243      5.803
REMARK  Name = 
REMARK  9 active torsions:
REMARK  status: ('A' for Active; 'I' for Inactive)
REMARK    1  A    between atoms: C_1  and  C_2
REMARK    2  A    between atoms: C_2  and  O_3
REMARK    3  A    between atoms: O_3  and  C_4
REMARK    4  A    between atoms: C_7  and  O_8
REMARK    5  A    between atoms: O_8  and  C_9
REMARK    6  A    between atoms: C_9  and  C_10
REMARK    7  A    between atoms: C_10  and  C_11
REMARK    8  A    between atoms: C_11  and  C_12
REMARK    9  A    between atoms: C_12  and  N_13
REMARK                            x       y       z     vdW  Elec       q    Type
REMARK                         _______ _______ _______ _____ _____    ______ ____
ROOT
ATOM      1  O   UNL     1       3.553   6.434  18.558  0.00  0.00    +0.000 OA
ENDROOT
BRANCH   1   5
ATOM      2  C   UNL     1       0.938   9.630  19.199  0.00  0.00    +0.000 A 
ATOM      3  C   UNL     1       1.129   8.699  20.215  0.00  0.00    +0.000 A 
ATOM      4  C   UNL     1       1.995   7.624  20.037  0.00  0.00    +0.000 A 
ATOM      5  C   UNL     1       2.674   7.458  18.829  0.00  0.00    +0.000 A 
ATOM      6  C   UNL     1       2.464   8.381  17.798  0.00  0.00    +0.000 A 
ATOM      7  C   UNL     1       1.596   9.469  17.981  0.00  0.00    +0.000 A 
BRANCH   2   8
ATOM      8  O   UNL     1       0.068  10.630  19.517  0.00  0.00    +0.000 OA
BRANCH   8  10
ATOM      9  C   UNL     1      -1.900  10.226  18.264  0.00  0.00    +0.000 C 
ATOM     10  C   UNL     1      -0.717  11.157  18.451  0.00  0.00    +0.000 C 
ENDBRANCH   8  10
ENDBRANCH   2   8
ENDBRANCH   1   5
BRANCH   1  11
ATOM     11  C   UNL     1       3.034   5.420  17.691  0.00  0.00    +0.000 C 
BRANCH  11  12
ATOM     12  C   UNL     1       4.154   4.521  17.190  0.00  0.00    +0.000 C 
BRANCH  12  13
ATOM     13  C   UNL     1       3.949   3.087  17.696  0.00  0.00    +0.000 C 
BRANCH  13  14
ATOM     14  C   UNL     1       2.457   2.776  17.837  0.00  0.00    +0.000 C 
BRANCH  14  15
ATOM     15  N   UNL     1       2.078   2.228  19.149  0.00  0.00    +0.000 NA
ATOM     16  C   UNL     1       0.752   2.654  19.624  0.00  0.00    +0.000 C 
ATOM     17  C   UNL     1       0.978   3.987  20.309  0.00  0.00    +0.000 C 
ATOM     18  C   UNL     1       2.337   3.821  20.959  0.00  0.00    +0.000 C 
ATOM     19  C   UNL     1       3.024   2.704  20.179  0.00  0.00    +0.000 C 
ENDBRANCH  14  15
ENDBRANCH  13  14
ENDBRANCH  12  13
ENDBRANCH  11  12
ENDBRANCH   1  11
TORSDOF 8
ENDMDL
MODEL 8
REMARK VINA RESULT:      -5.7      2.241      3.611
REMARK  Name = 
REMARK  9 active torsions:
REMARK  status: ('A' for Active; 'I' for Inactive)
REMARK    1  A    between atoms: C_1  and  C_2
REMARK    2  A    between atoms: C_2  and  O_3
REMARK    3  A    between atoms: O_3  and  C_4
REMARK    4  A    between atoms: C_7  and  O_8
REMARK    5  A    between atoms: O_8  and  C_9
REMARK    6  A    between atoms: C_9  and  C_10
REMARK    7  A    between atoms: C_10  and  C_11
REMARK    8  A    between atoms: C_11  and  C_12
REMARK    9  A    between atoms: C_12  and  N_13
REMARK                            x       y       z     vdW  Elec       q    Type
REMARK                         _______ _______ _______ _____ _____    ______ ____
ROOT
ATOM      1  O   UNL     1       4.422   4.081  16.481  0.00  0.00    +0.000 OA
ENDROOT
BRANCH   1   5
ATOM      2  C   UNL     1       7.334   6.636  18.047  0.00  0.00    +0.000 A 
ATOM      3  C   UNL     1       6.694   6.987  16.862  0.00  0.00    +0.000 A 
ATOM      4  C   UNL     1       5.717   6.160  16.314  0.00  0.00    +0.000 A 
ATOM      5  C   UNL     1       5.375   4.960  16.940  0.00  0.00    +0.000 A 
ATOM      6  C   UNL     1       6.035   4.597  18.119  0.00  0.00    +0.000 A 
ATOM      7  C   UNL     1       7.015   5.434  18.675  0.00  0.00    +0.000 A 
BRANCH   2   8
ATOM      8  O   UNL     1       8.261   7.542  18.466  0.00  0.00    +0.000 OA
BRANCH   8  10
ATOM      9  C   UNL     1       9.009   9.763  18.808  0.00  0.00    +0.000 C 
ATOM     10  C   UNL     1       8.145   8.863  17.944  0.00  0.00    +0.000 C 
ENDBRANCH   8  10
ENDBRANCH   2   8
ENDBRANCH   1   5
BRANCH   1  11
ATOM     11  C   UNL     1       3.547   3.572  17.492  0.00  0.00    +0.000 C 
BRANCH  11  12
ATOM     12  C   UNL     1       3.710   2.066  17.632  0.00  0.00    +0.000 C 
BRANCH  12  13
ATOM     13  C   UNL     1       3.251   1.611  19.024  0.00  0.00    +0.000 C 
BRANCH  13  14
ATOM     14  C   UNL     1       3.705   2.609  20.092  0.00  0.00    +0.000 C 
BRANCH  14  15
ATOM     15  N   UNL     1       2.680   2.917  21.101  0.00  0.00    +0.000 NA
ATOM     16  C   UNL     1       1.323   2.478  20.741  0.00  0.00    +0.000 C 
ATOM     17  C   UNL     1       0.747   3.598  19.897  0.00  0.00    +0.000 C 
ATOM     18  C   UNL     1       1.327   4.847  20.530  0.00  0.00    +0.000 C 
ATOM     19  C   UNL     1       2.574   4.380  21.275  0.00  0.00    +0.000 C 
ENDBRANCH  14  15
ENDBRANCH  13  14
ENDBRANCH  12  13
ENDBRANCH  11  12
ENDBRANCH   1  11
TORSDOF 8
ENDMDL
MODEL 9
REMARK VINA RESULT:      -5.7      5.114      8.173
REMARK  Name = 
REMARK  9 active torsions:
REMARK  status: ('A' for Active; 'I' for Inactive)
REMARK    1  A    between atoms: C_1  and  C_2
REMARK    2  A    between atoms: C_2  and  O_3
REMARK    3  A    between atoms: O_3  and  C_4
REMARK    4  A    between atoms: C_7  and  O_8
REMARK    5  A    between atoms: O_8  and  C_9
REMARK    6  A    between atoms: C_9  and  C_10
REMARK    7  A    between atoms: C_10  and  C_11
REMARK    8  A    between atoms: C_11  and  C_12
REMARK    9  A    between atoms: C_12  and  N_13
REMARK                            x       y       z     vdW  Elec       q    Type
REMARK                         _______ _______ _______ _____ _____    ______ ____
ROOT
ATOM      1  O   UNL     1       6.896   5.885  17.124  0.00  0.00    +0.000 OA
ENDROOT
BRANCH   1   5
ATOM      2  C   UNL     1       3.804   3.560  18.704  0.00  0.00    +0.000 A 
ATOM      3  C   UNL     1       4.676   4.207  19.575  0.00  0.00    +0.000 A 
ATOM      4  C   UNL     1       5.715   4.992  19.082  0.00  0.00    +0.000 A 
ATOM      5  C   UNL     1       5.904   5.130  17.707  0.00  0.00    +0.000 A 
ATOM      6  C   UNL     1       5.043   4.460  16.831  0.00  0.00    +0.000 A 
ATOM      7  C   UNL     1       3.991   3.674  17.328  0.00  0.00    +0.000 A 
BRANCH   2   8
ATOM      8  O   UNL     1       2.835   2.833  19.328  0.00  0.00    +0.000 OA
BRANCH   8  10
ATOM      9  C   UNL     1       1.459   3.234  21.213  0.00  0.00    +0.000 C 
ATOM     10  C   UNL     1       2.850   2.839  20.753  0.00  0.00    +0.000 C 
ENDBRANCH   8  10
ENDBRANCH   2   8
ENDBRANCH   1   5
BRANCH   1  11
ATOM     11  C   UNL     1       6.792   7.291  17.366  0.00  0.00    +0.000 C 
BRANCH  11  12
ATOM     12  C   UNL     1       8.053   7.814  18.038  0.00  0.00    +0.000 C 
BRANCH  12  13
ATOM     13  C   UNL     1       8.103   9.345  17.952  0.00  0.00    +0.000 C 
BRANCH  13  14
ATOM     14  C   UNL     1       9.106   9.907  18.964  0.00  0.00    +0.000 C 
BRANCH  14  15
ATOM     15  N   UNL     1       9.423  11.330  18.767  0.00  0.00    +0.000 NA
ATOM     16  C   UNL     1      10.709  11.577  18.097  0.00  0.00    +0.000 C 
ATOM     17  C   UNL     1      11.749  11.555  19.199  0.00  0.00    +0.000 C 
ATOM     18  C   UNL     1      11.026  12.181  20.376  0.00  0.00    +0.000 C 
ATOM     19  C   UNL     1       9.541  12.000  20.078  0.00  0.00    +0.000 C 
ENDBRANCH  14  15
ENDBRANCH  13  14
ENDBRANCH  12  13
ENDBRANCH  11  12
ENDBRANCH   1  11
TORSDOF 8
ENDMDL
