MODEL 1
REMARK VINA RESULT:      -6.5      0.000      0.000
REMARK  Name = 
REMARK  7 active torsions:
REMARK  status: ('A' for Active; 'I' for Inactive)
REMARK    1  A    between atoms: C_1  and  O_2
REMARK    2  A    between atoms: O_2  and  C_3
REMARK    3  A    between atoms: C_3  and  C_5
REMARK    4  A    between atoms: C_5  and  C_6
REMARK    5  A    between atoms: N_13  and  C_14
REMARK    6  A    between atoms: C_17  and  O_18
REMARK    7  A    between atoms: O_18  and  C_19
REMARK                            x       y       z     vdW  Elec       q    Type
REMARK                         _______ _______ _______ _____ _____    ______ ____
ROOT
ATOM      1  C   UNL     1       2.977   3.643  19.910  0.00  0.00    +0.000 C 
ATOM      2  C   UNL     1       2.926   4.989  19.738  0.00  0.00    +0.000 C 
ATOM      3  S   UNL     1       1.984   6.036  20.790  0.00  0.00    +0.000 S 
ATOM      4  C   UNL     1       1.894   7.354  19.580  0.00  0.00    +0.000 C 
ATOM      5  C   UNL     1       3.054   7.117  18.659  0.00  0.00    +0.000 C 
ATOM      6  O   UNL     1       3.491   8.004  17.929  0.00  0.00    +0.000 OA
ATOM      7  N   UNL     1       3.509   5.776  18.733  0.00  0.00    +0.000 N 
ENDROOT
BRANCH   7   8
ATOM      8  C   UNL     1       4.598   5.433  17.871  0.00  0.00    +0.000 A 
ATOM      9  C   UNL     1       4.363   5.226  16.510  0.00  0.00    +0.000 A 
ATOM     10  C   UNL     1       5.436   4.989  15.639  0.00  0.00    +0.000 A 
ATOM     11  C   UNL     1       6.751   4.987  16.110  0.00  0.00    +0.000 A 
ATOM     12  C   UNL     1       6.989   5.193  17.468  0.00  0.00    +0.000 A 
ATOM     13  C   UNL     1       5.915   5.403  18.337  0.00  0.00    +0.000 A 
ATOM     14  F   UNL     1       6.179   5.625  19.634  0.00  0.00    +0.000 F 
BRANCH  11  15
ATOM     15  O   UNL     1       7.700   4.787  15.147  0.00  0.00    +0.000 OA
ATOM     16  C   UNL     1       7.252   4.784  13.796  0.00  0.00    +0.000 C 
ENDBRANCH  11  15
ENDBRANCH   7   8
BRANCH   1  17
ATOM     17  C   UNL     1       2.176   2.950  20.971  0.00  0.00    +0.000 C 
ATOM     18  O   UNL     1       2.607   2.535  22.035  0.00  0.00    +0.000 OA
BRANCH  17  20
ATOM     19  C   UNL     1       0.660   2.429  19.272  0.00  0.00    +0.000 C 
ATOM     20  O   UNL     1       0.862   2.878  20.618  0.00  0.00    +0.000 OA
ENDBRANCH  17  20
ENDBRANCH   1  17
BRANCH   1  21
ATOM     21  C   UNL     1       3.687   2.768  19.040  0.00  0.00    +0.000 C 
ATOM     22  N   UNL     1       4.246   2.045  18.324  0.00  0.00    +0.000 NA
ENDBRANCH   1  21
TORSDOF 5
ENDMDL
MODEL 2
REMARK VINA RESULT:      -6.4      1.560      3.687
REMARK  Name = 
REMARK  7 active torsions:
REMARK  status: ('A' for Active; 'I' for Inactive)
REMARK    1  A    between atoms: C_1  and  O_2
REMARK    2  A    between atoms: O_2  and  C_3
REMARK    3  A    between atoms: C_3  and  C_5
REMARK    4  A    between atoms: C_5  and  C_6
REMARK    5  A    between atoms: N_13  and  C_14
REMARK    6  A    between atoms: C_17  and  O_18
REMARK    7  A    between atoms: O_18  and  C_19
REMARK                            x       y       z     vdW  Elec       q    Type
REMARK                         _______ _______ _______ _____ _____    ______ ____
ROOT
ATOM      1  C   UNL     1       2.973   6.749  18.825  0.00  0.00    +0.000 C 
ATOM      2  C   UNL     1       2.948   5.462  19.258  0.00  0.00    +0.000 C 
ATOM      3  S   UNL     1       1.695   4.854  20.330  0.00  0.00    +0.000 S 
ATOM      4  C   UNL     1       2.697   3.484  20.903  0.00  0.00    +0.000 C 
ATOM      5  C   UNL     1       3.721   3.274  19.827  0.00  0.00    +0.000 C 
ATOM      6  O   UNL     1       4.346   2.221  19.727  0.00  0.00    +0.000 OA
ATOM      7  N   UNL     1       3.870   4.430  19.020  0.00  0.00    +0.000 N 
ENDROOT
BRANCH   7   8
ATOM      8  C   UNL     1       4.846   4.349  17.978  0.00  0.00    +0.000 A 
ATOM      9  C   UNL     1       4.443   4.039  16.677  0.00  0.00    +0.000 A 
ATOM     10  C   UNL     1       5.375   4.055  15.629  0.00  0.00    +0.000 A 
ATOM     11  C   UNL     1       6.706   4.410  15.863  0.00  0.00    +0.000 A 
ATOM     12  C   UNL     1       7.111   4.719  17.161  0.00  0.00    +0.000 A 
ATOM     13  C   UNL     1       6.185   4.677  18.206  0.00  0.00    +0.000 A 
ATOM     14  F   UNL     1       6.600   5.007  19.439  0.00  0.00    +0.000 F 
BRANCH  11  15
ATOM     15  O   UNL     1       7.495   4.427  14.747  0.00  0.00    +0.000 OA
ATOM     16  C   UNL     1       6.830   4.352  13.491  0.00  0.00    +0.000 C 
ENDBRANCH  11  15
ENDBRANCH   7   8
BRANCH   1  17
ATOM     17  C   UNL     1       1.968   7.760  19.291  0.00  0.00    +0.000 C 
ATOM     18  O   UNL     1       1.663   7.981  20.453  0.00  0.00    +0.000 OA
BRANCH  17  20
ATOM     19  C   UNL     1       1.151   9.819  18.553  0.00  0.00    +0.000 C 
ATOM     20  O   UNL     1       1.454   8.455  18.239  0.00  0.00    +0.000 OA
ENDBRANCH  17  20
ENDBRANCH   1  17
BRANCH   1  21
ATOM     21  C   UNL     1       4.007   7.280  18.002  0.00  0.00    +0.000 C 
ATOM     22  N   UNL     1       4.854   7.692  17.323  0.00  0.00    +0.000 NA
ENDBRANCH   1  21
TORSDOF 5
ENDMDL
MODEL 3
REMARK VINA RESULT:      -6.3      2.056      3.846
REMARK  Name = 
REMARK  7 active torsions:
REMARK  status: ('A' for Active; 'I' for Inactive)
REMARK    1  A    between atoms: C_1  and  O_2
REMARK    2  A    between atoms: O_2  and  C_3
REMARK    3  A    between atoms: C_3  and  C_5
REMARK    4  A    between atoms: C_5  and  C_6
REMARK    5  A    between atoms: N_13  and  C_14
REMARK    6  A    between atoms: C_17  and  O_18
REMARK    7  A    between atoms: O_18  and  C_19
REMARK                            x       y       z     vdW  Elec       q    Type
REMARK                         _______ _______ _______ _____ _____    ______ ____
ROOT
ATOM      1  C   UNL     1       3.216   6.534  18.085  0.00  0.00    +0.000 C 
ATOM      2  C   UNL     1       3.017   5.191  18.055  0.00  0.00    +0.000 C 
ATOM      3  S   UNL     1       1.568   4.439  18.707  0.00  0.00    +0.000 S 
ATOM      4  C   UNL     1       2.351   2.840  18.900  0.00  0.00    +0.000 C 
ATOM      5  C   UNL     1       3.508   2.855  17.943  0.00  0.00    +0.000 C 
ATOM      6  O   UNL     1       4.050   1.817  17.570  0.00  0.00    +0.000 OA
ATOM      7  N   UNL     1       3.875   4.179  17.594  0.00  0.00    +0.000 N 
ENDROOT
BRANCH   7   8
ATOM      8  C   UNL     1       4.989   4.310  16.707  0.00  0.00    +0.000 A 
ATOM      9  C   UNL     1       4.766   4.444  15.335  0.00  0.00    +0.000 A 
ATOM     10  C   UNL     1       5.844   4.674  14.467  0.00  0.00    +0.000 A 
ATOM     11  C   UNL     1       7.144   4.803  14.961  0.00  0.00    +0.000 A 
ATOM     12  C   UNL     1       7.369   4.669  16.331  0.00  0.00    +0.000 A 
ATOM     13  C   UNL     1       6.296   4.414  17.189  0.00  0.00    +0.000 A 
ATOM     14  F   UNL     1       6.542   4.317  18.504  0.00  0.00    +0.000 F 
BRANCH  11  15
ATOM     15  O   UNL     1       8.090   5.069  14.011  0.00  0.00    +0.000 OA
ATOM     16  C   UNL     1       7.651   5.090  12.657  0.00  0.00    +0.000 C 
ENDBRANCH  11  15
ENDBRANCH   7   8
BRANCH   1  17
ATOM     17  C   UNL     1       2.240   7.463  18.742  0.00  0.00    +0.000 C 
ATOM     18  O   UNL     1       2.044   7.561  19.944  0.00  0.00    +0.000 OA
BRANCH  17  20
ATOM     19  C   UNL     1       1.590   9.631  18.164  0.00  0.00    +0.000 C 
ATOM     20  O   UNL     1       1.611   8.240  17.817  0.00  0.00    +0.000 OA
ENDBRANCH  17  20
ENDBRANCH   1  17
BRANCH   1  21
ATOM     21  C   UNL     1       4.404   7.161  17.615  0.00  0.00    +0.000 C 
ATOM     22  N   UNL     1       5.363   7.694  17.234  0.00  0.00    +0.000 NA
ENDBRANCH   1  21
TORSDOF 5
ENDMDL
MODEL 4
REMARK VINA RESULT:      -5.9      0.737      1.148
REMARK  Name = 
REMARK  7 active torsions:
REMARK  status: ('A' for Active; 'I' for Inactive)
REMARK    1  A    between atoms: C_1  and  O_2
REMARK    2  A    between atoms: O_2  and  C_3
REMARK    3  A    between atoms: C_3  and  C_5
REMARK    4  A    between atoms: C_5  and  C_6
REMARK    5  A    between atoms: N_13  and  C_14
REMARK    6  A    between atoms: C_17  and  O_18
REMARK    7  A    between atoms: O_18  and  C_19
REMARK                            x       y       z     vdW  Elec       q    Type
REMARK                         _______ _______ _______ _____ _____    ______ ____
ROOT
ATOM      1  C   UNL     1       2.664   3.633  19.033  0.00  0.00    +0.000 C 
ATOM      2  C   UNL     1       2.785   4.985  19.078  0.00  0.00    +0.000 C 
ATOM      3  S   UNL     1       1.876   5.973  20.212  0.00  0.00    +0.000 S 
ATOM      4  C   UNL     1       2.053   7.459  19.229  0.00  0.00    +0.000 C 
ATOM      5  C   UNL     1       3.259   7.217  18.370  0.00  0.00    +0.000 C 
ATOM      6  O   UNL     1       3.863   8.141  17.829  0.00  0.00    +0.000 OA
ATOM      7  N   UNL     1       3.548   5.833  18.260  0.00  0.00    +0.000 N 
ENDROOT
BRANCH   7   8
ATOM      8  C   UNL     1       4.665   5.487  17.437  0.00  0.00    +0.000 A 
ATOM      9  C   UNL     1       4.512   5.435  16.050  0.00  0.00    +0.000 A 
ATOM     10  C   UNL     1       5.623   5.196  15.229  0.00  0.00    +0.000 A 
ATOM     11  C   UNL     1       6.897   5.038  15.779  0.00  0.00    +0.000 A 
ATOM     12  C   UNL     1       7.053   5.089  17.164  0.00  0.00    +0.000 A 
ATOM     13  C   UNL     1       5.940   5.302  17.980  0.00  0.00    +0.000 A 
ATOM     14  F   UNL     1       6.127   5.373  19.307  0.00  0.00    +0.000 F 
BRANCH  11  15
ATOM     15  O   UNL     1       7.895   4.856  14.862  0.00  0.00    +0.000 OA
ATOM     16  C   UNL     1       7.527   4.938  13.490  0.00  0.00    +0.000 C 
ENDBRANCH  11  15
ENDBRANCH   7   8
BRANCH   1  17
ATOM     17  C   UNL     1       1.692   2.896  19.905  0.00  0.00    +0.000 C 
ATOM     18  O   UNL     1       0.533   2.635  19.621  0.00  0.00    +0.000 OA
BRANCH  17  20
ATOM     19  C   UNL     1       1.392   2.502  22.187  0.00  0.00    +0.000 C 
ATOM     20  O   UNL     1       2.284   2.500  21.066  0.00  0.00    +0.000 OA
ENDBRANCH  17  20
ENDBRANCH   1  17
BRANCH   1  21
ATOM     21  C   UNL     1       3.347   2.816  18.088  0.00  0.00    +0.000 C 
ATOM     22  N   UNL     1       3.901   2.131  17.331  0.00  0.00    +0.000 NA
ENDBRANCH   1  21
TORSDOF 5
ENDMDL
MODEL 5
REMARK VINA RESULT:      -5.8      2.086      3.816
REMARK  Name = 
REMARK  7 active torsions:
REMARK  status: ('A' for Active; 'I' for Inactive)
REMARK    1  A    between atoms: C_1  and  O_2
REMARK    2  A    between atoms: O_2  and  C_3
REMARK    3  A    between atoms: C_3  and  C_5
REMARK    4  A    between atoms: C_5  and  C_6
REMARK    5  A    between atoms: N_13  and  C_14
REMARK    6  A    between atoms: C_17  and  O_18
REMARK    7  A    between atoms: O_18  and  C_19
REMARK                            x       y       z     vdW  Elec       q    Type
REMARK                         _______ _______ _______ _____ _____    ______ ____
ROOT
ATOM      1  C   UNL     1       2.553   6.011  19.639  0.00  0.00    +0.000 C 
ATOM      2  C   UNL     1       2.843   4.713  19.914  0.00  0.00    +0.000 C 
ATOM      3  S   UNL     1       1.959   3.787  21.119  0.00  0.00    +0.000 S 
ATOM      4  C   UNL     1       3.280   2.596  21.333  0.00  0.00    +0.000 C 
ATOM      5  C   UNL     1       4.087   2.679  20.070  0.00  0.00    +0.000 C 
ATOM      6  O   UNL     1       4.854   1.780  19.734  0.00  0.00    +0.000 OA
ATOM      7  N   UNL     1       3.864   3.904  19.391  0.00  0.00    +0.000 N 
ENDROOT
BRANCH   7   8
ATOM      8  C   UNL     1       4.608   4.100  18.186  0.00  0.00    +0.000 A 
ATOM      9  C   UNL     1       5.947   4.491  18.256  0.00  0.00    +0.000 A 
ATOM     10  C   UNL     1       6.713   4.589  17.086  0.00  0.00    +0.000 A 
ATOM     11  C   UNL     1       6.162   4.267  15.843  0.00  0.00    +0.000 A 
ATOM     12  C   UNL     1       4.826   3.876  15.770  0.00  0.00    +0.000 A 
ATOM     13  C   UNL     1       4.059   3.805  16.935  0.00  0.00    +0.000 A 
ATOM     14  F   UNL     1       2.784   3.400  16.834  0.00  0.00    +0.000 F 
BRANCH  11  15
ATOM     15  O   UNL     1       7.033   4.362  14.793  0.00  0.00    +0.000 OA
ATOM     16  C   UNL     1       6.521   4.042  13.504  0.00  0.00    +0.000 C 
ENDBRANCH  11  15
ENDBRANCH   7   8
BRANCH   1  17
ATOM     17  C   UNL     1       1.501   6.764  20.397  0.00  0.00    +0.000 C 
ATOM     18  O   UNL     1       0.442   6.305  20.797  0.00  0.00    +0.000 OA
BRANCH  17  20
ATOM     19  C   UNL     1       0.930   8.813  21.361  0.00  0.00    +0.000 C 
ATOM     20  O   UNL     1       1.897   8.046  20.634  0.00  0.00    +0.000 OA
ENDBRANCH  17  20
ENDBRANCH   1  17
BRANCH   1  21
ATOM     21  C   UNL     1       3.289   6.798  18.709  0.00  0.00    +0.000 C 
ATOM     22  N   UNL     1       3.906   7.443  17.966  0.00  0.00    +0.000 NA
ENDBRANCH   1  21
TORSDOF 5
ENDMDL
MODEL 6
REMARK VINA RESULT:      -5.7      2.404      5.773
REMARK  Name = 
REMARK  7 active torsions:
REMARK  status: ('A' for Active; 'I' for Inactive)
REMARK    1  A    between atoms: C_1  and  O_2
REMARK    2  A    between atoms: O_2  and  C_3
REMARK    3  A    between atoms: C_3  and  C_5
REMARK    4  A    between atoms: C_5  and  C_6
REMARK    5  A    between atoms: N_13  and  C_14
REMARK    6  A    between atoms: C_17  and  O_18
REMARK    7  A    between atoms: O_18  and  C_19
REMARK                            x       y       z     vdW  Elec       q    Type
REMARK                         _______ _______ _______ _____ _____    ______ ____
ROOT
ATOM      1  C   UNL     1       5.450   5.098  17.410  0.00  0.00    +0.000 C 
ATOM      2  C   UNL     1       4.342   4.372  17.708  0.00  0.00    +0.000 C 
ATOM      3  S   UNL     1       4.334   2.615  17.683  0.00  0.00    +0.000 S 
ATOM      4  C   UNL     1       2.555   2.516  17.495  0.00  0.00    +0.000 C 
ATOM      5  C   UNL     1       2.036   3.825  18.012  0.00  0.00    +0.000 C 
ATOM      6  O   UNL     1       0.861   3.967  18.345  0.00  0.00    +0.000 OA
ATOM      7  N   UNL     1       3.047   4.819  18.017  0.00  0.00    +0.000 N 
ENDROOT
BRANCH   7   8
ATOM      8  C   UNL     1       2.651   6.117  18.466  0.00  0.00    +0.000 A 
ATOM      9  C   UNL     1       2.320   7.101  17.531  0.00  0.00    +0.000 A 
ATOM     10  C   UNL     1       1.835   8.344  17.960  0.00  0.00    +0.000 A 
ATOM     11  C   UNL     1       1.645   8.606  19.319  0.00  0.00    +0.000 A 
ATOM     12  C   UNL     1       1.974   7.627  20.254  0.00  0.00    +0.000 A 
ATOM     13  C   UNL     1       2.482   6.399  19.824  0.00  0.00    +0.000 A 
ATOM     14  F   UNL     1       2.764   5.467  20.748  0.00  0.00    +0.000 F 
BRANCH  11  15
ATOM     15  O   UNL     1       1.124   9.840  19.593  0.00  0.00    +0.000 OA
ATOM     16  C   UNL     1       0.202  10.371  18.648  0.00  0.00    +0.000 C 
ENDBRANCH  11  15
ENDBRANCH   7   8
BRANCH   1  17
ATOM     17  C   UNL     1       6.727   4.448  16.970  0.00  0.00    +0.000 C 
ATOM     18  O   UNL     1       7.752   4.368  17.629  0.00  0.00    +0.000 OA
BRANCH  17  20
ATOM     19  C   UNL     1       7.043   4.758  14.676  0.00  0.00    +0.000 C 
ATOM     20  O   UNL     1       6.591   3.899  15.731  0.00  0.00    +0.000 OA
ENDBRANCH  17  20
ENDBRANCH   1  17
BRANCH   1  21
ATOM     21  C   UNL     1       5.467   6.521  17.370  0.00  0.00    +0.000 C 
ATOM     22  N   UNL     1       5.502   7.682  17.346  0.00  0.00    +0.000 NA
ENDBRANCH   1  21
TORSDOF 5
ENDMDL
MODEL 7
REMARK VINA RESULT:      -5.6      2.623      5.881
REMARK  Name = 
REMARK  7 active torsions:
REMARK  status: ('A' for Active; 'I' for Inactive)
REMARK    1  A    between atoms: C_1  and  O_2
REMARK    2  A    between atoms: O_2  and  C_3
REMARK    3  A    between atoms: C_3  and  C_5
REMARK    4  A    between atoms: C_5  and  C_6
REMARK    5  A    between atoms: N_13  and  C_14
REMARK    6  A    between atoms: C_17  and  O_18
REMARK    7  A    between atoms: O_18  and  C_19
REMARK                            x       y       z     vdW  Elec       q    Type
REMARK                         _______ _______ _______ _____ _____    ______ ____
ROOT
ATOM      1  C   UNL     1       5.668   5.362  17.530  0.00  0.00    +0.000 C 
ATOM      2  C   UNL     1       4.535   4.623  17.656  0.00  0.00    +0.000 C 
ATOM      3  S   UNL     1       4.539   2.868  17.550  0.00  0.00    +0.000 S 
ATOM      4  C   UNL     1       2.798   2.779  17.140  0.00  0.00    +0.000 C 
ATOM      5  C   UNL     1       2.212   4.063  17.648  0.00  0.00    +0.000 C 
ATOM      6  O   UNL     1       1.005   4.191  17.840  0.00  0.00    +0.000 OA
ATOM      7  N   UNL     1       3.210   5.056  17.822  0.00  0.00    +0.000 N 
ENDROOT
BRANCH   7   8
ATOM      8  C   UNL     1       2.754   6.333  18.277  0.00  0.00    +0.000 A 
ATOM      9  C   UNL     1       2.447   7.328  17.347  0.00  0.00    +0.000 A 
ATOM     10  C   UNL     1       1.905   8.548  17.776  0.00  0.00    +0.000 A 
ATOM     11  C   UNL     1       1.636   8.774  19.128  0.00  0.00    +0.000 A 
ATOM     12  C   UNL     1       1.942   7.782  20.059  0.00  0.00    +0.000 A 
ATOM     13  C   UNL     1       2.506   6.578  19.630  0.00  0.00    +0.000 A 
ATOM     14  F   UNL     1       2.763   5.633  20.547  0.00  0.00    +0.000 F 
BRANCH  11  15
ATOM     15  O   UNL     1       1.067   9.987  19.400  0.00  0.00    +0.000 OA
ATOM     16  C   UNL     1       0.258  10.068  20.568  0.00  0.00    +0.000 C 
ENDBRANCH  11  15
ENDBRANCH   7   8
BRANCH   1  17
ATOM     17  C   UNL     1       6.992   4.731  17.221  0.00  0.00    +0.000 C 
ATOM     18  O   UNL     1       7.465   4.570  16.106  0.00  0.00    +0.000 OA
BRANCH  17  20
ATOM     19  C   UNL     1       7.984   5.518  19.184  0.00  0.00    +0.000 C 
ATOM     20  O   UNL     1       7.647   4.391  18.366  0.00  0.00    +0.000 OA
ENDBRANCH  17  20
ENDBRANCH   1  17
BRANCH   1  21
ATOM     21  C   UNL     1       5.682   6.785  17.556  0.00  0.00    +0.000 C 
ATOM     22  N   UNL     1       5.703   7.946  17.557  0.00  0.00    +0.000 NA
ENDBRANCH   1  21
TORSDOF 5
ENDMDL
MODEL 8
REMARK VINA RESULT:      -5.6      7.530      9.860
REMARK  Name = 
REMARK  7 active torsions:
REMARK  status: ('A' for Active; 'I' for Inactive)
REMARK    1  A    between atoms: C_1  and  O_2
REMARK    2  A    between atoms: O_2  and  C_3
REMARK    3  A    between atoms: C_3  and  C_5
REMARK    4  A    between atoms: C_5  and  C_6
REMARK    5  A    between atoms: N_13  and  C_14
REMARK    6  A    between atoms: C_17  and  O_18
REMARK    7  A    between atoms: O_18  and  C_19
REMARK                            x       y       z     vdW  Elec       q    Type
REMARK                         _______ _______ _______ _____ _____    ______ ____
ROOT
ATOM      1  C   UNL     1      -2.571  12.452  22.424  0.00  0.00    +0.000 C 
ATOM      2  C   UNL     1      -3.177  12.554  21.212  0.00  0.00    +0.000 C 
ATOM      3  S   UNL     1      -4.744  13.323  21.006  0.00  0.00    +0.000 S 
ATOM      4  C   UNL     1      -5.078  12.479  19.462  0.00  0.00    +0.000 C 
ATOM      5  C   UNL     1      -3.730  12.081  18.937  0.00  0.00    +0.000 C 
ATOM      6  O   UNL     1      -3.558  11.791  17.755  0.00  0.00    +0.000 OA
ATOM      7  N   UNL     1      -2.758  12.057  19.968  0.00  0.00    +0.000 N 
ENDROOT
BRANCH   7   8
ATOM      8  C   UNL     1      -1.439  11.661  19.581  0.00  0.00    +0.000 A 
ATOM      9  C   UNL     1      -1.146  10.305  19.415  0.00  0.00    +0.000 A 
ATOM     10  C   UNL     1       0.113   9.911  18.939  0.00  0.00    +0.000 A 
ATOM     11  C   UNL     1       1.076  10.863  18.595  0.00  0.00    +0.000 A 
ATOM     12  C   UNL     1       0.786  12.217  18.760  0.00  0.00    +0.000 A 
ATOM     13  C   UNL     1      -0.460  12.604  19.259  0.00  0.00    +0.000 A 
ATOM     14  F   UNL     1      -0.718  13.915  19.380  0.00  0.00    +0.000 F 
BRANCH  11  15
ATOM     15  O   UNL     1       2.240  10.342  18.103  0.00  0.00    +0.000 OA
ATOM     16  C   UNL     1       2.251   8.946  17.824  0.00  0.00    +0.000 C 
ENDBRANCH  11  15
ENDBRANCH   7   8
BRANCH   1  17
ATOM     17  C   UNL     1      -3.233  12.929  23.682  0.00  0.00    +0.000 C 
ATOM     18  O   UNL     1      -3.167  14.060  24.138  0.00  0.00    +0.000 OA
BRANCH  17  20
ATOM     19  C   UNL     1      -5.269  12.374  24.682  0.00  0.00    +0.000 C 
ATOM     20  O   UNL     1      -3.975  11.937  24.247  0.00  0.00    +0.000 OA
ENDBRANCH  17  20
ENDBRANCH   1  17
BRANCH   1  21
ATOM     21  C   UNL     1      -1.330  11.785  22.625  0.00  0.00    +0.000 C 
ATOM     22  N   UNL     1      -0.322  11.227  22.774  0.00  0.00    +0.000 NA
ENDBRANCH   1  21
TORSDOF 5
ENDMDL
MODEL 9
REMARK VINA RESULT:      -5.5      8.390     10.040
REMARK  Name = 
REMARK  7 active torsions:
REMARK  status: ('A' for Active; 'I' for Inactive)
REMARK    1  A    between atoms: C_1  and  O_2
REMARK    2  A    between atoms: O_2  and  C_3
REMARK    3  A    between atoms: C_3  and  C_5
REMARK    4  A    between atoms: C_5  and  C_6
REMARK    5  A    between atoms: N_13  and  C_14
REMARK    6  A    between atoms: C_17  and  O_18
REMARK    7  A    between atoms: O_18  and  C_19
REMARK                            x       y       z     vdW  Elec       q    Type
REMARK                         _______ _______ _______ _____ _____    ______ ____
ROOT
ATOM      1  C   UNL     1      -2.575  12.851  21.660  0.00  0.00    +0.000 C 
ATOM      2  C   UNL     1      -3.125  12.586  20.447  0.00  0.00    +0.000 C 
ATOM      3  S   UNL     1      -4.854  12.703  20.154  0.00  0.00    +0.000 S 
ATOM      4  C   UNL     1      -4.796  11.625  18.725  0.00  0.00    +0.000 C 
ATOM      5  C   UNL     1      -3.375  11.688  18.248  0.00  0.00    +0.000 C 
ATOM      6  O   UNL     1      -3.061  11.347  17.110  0.00  0.00    +0.000 OA
ATOM      7  N   UNL     1      -2.503  12.137  19.272  0.00  0.00    +0.000 N 
ENDROOT
BRANCH   7   8
ATOM      8  C   UNL     1      -1.116  12.207  18.932  0.00  0.00    +0.000 A 
ATOM      9  C   UNL     1      -0.544  13.440  18.614  0.00  0.00    +0.000 A 
ATOM     10  C   UNL     1       0.835  13.536  18.378  0.00  0.00    +0.000 A 
ATOM     11  C   UNL     1       1.657  12.412  18.486  0.00  0.00    +0.000 A 
ATOM     12  C   UNL     1       1.089  11.179  18.803  0.00  0.00    +0.000 A 
ATOM     13  C   UNL     1      -0.289  11.084  19.012  0.00  0.00    +0.000 A 
ATOM     14  F   UNL     1      -0.802   9.888  19.341  0.00  0.00    +0.000 F 
BRANCH  11  15
ATOM     15  O   UNL     1       2.986  12.657  18.274  0.00  0.00    +0.000 OA
ATOM     16  C   UNL     1       3.425  14.000  18.439  0.00  0.00    +0.000 C 
ENDBRANCH  11  15
ENDBRANCH   7   8
BRANCH   1  17
ATOM     17  C   UNL     1      -3.416  13.195  22.853  0.00  0.00    +0.000 C 
ATOM     18  O   UNL     1      -3.796  14.314  23.160  0.00  0.00    +0.000 OA
BRANCH  17  20
ATOM     19  C   UNL     1      -4.439  12.353  24.776  0.00  0.00    +0.000 C 
ATOM     20  O   UNL     1      -3.755  12.074  23.548  0.00  0.00    +0.000 OA
ENDBRANCH  17  20
ENDBRANCH   1  17
BRANCH   1  21
ATOM     21  C   UNL     1      -1.186  12.710  21.938  0.00  0.00    +0.000 C 
ATOM     22  N   UNL     1      -0.055  12.572  22.164  0.00  0.00    +0.000 NA
ENDBRANCH   1  21
TORSDOF 5
ENDMDL
