MODEL 1
REMARK VINA RESULT:      -7.3      0.000      0.000
REMARK  Name = 
REMARK  4 active torsions:
REMARK  status: ('A' for Active; 'I' for Inactive)
REMARK    1  A    between atoms: C_1  and  O_2
REMARK    2  A    between atoms: O_2  and  C_3
REMARK    3  A    between atoms: C_6  and  C_7
REMARK    4  A    between atoms: N_20  and  C_21
REMARK                            x       y       z     vdW  Elec       q    Type
REMARK                         _______ _______ _______ _____ _____    ______ ____
ROOT
ATOM      1  C   UNL     1      -1.645  12.838  20.210  0.00  0.00    +0.000 C 
ATOM      2  C   UNL     1      -2.452  12.616  21.479  0.00  0.00    +0.000 A 
ATOM      3  S   UNL     1      -3.992  13.386  21.795  0.00  0.00    +0.000 S 
ATOM      4  C   UNL     1      -4.161  12.524  23.336  0.00  0.00    +0.000 A 
ATOM      5  O   UNL     1      -5.109  12.609  24.093  0.00  0.00    +0.000 OA
ATOM      6  N   UNL     1      -3.020  11.778  23.508  0.00  0.00    +0.000 N 
ATOM      7  C   UNL     1      -2.100  11.829  22.503  0.00  0.00    +0.000 A 
ATOM      8  S   UNL     1      -0.669  10.922  22.639  0.00  0.00    +0.000 S 
ATOM      9  C   UNL     1       0.392  11.621  21.320  0.00  0.00    +0.000 C 
ATOM     10  C   UNL     1      -0.121  12.884  20.574  0.00  0.00    +0.000 C 
ATOM     11  C   UNL     1       0.097  14.110  21.476  0.00  0.00    +0.000 C 
ATOM     12  C   UNL     1       1.566  14.261  21.371  0.00  0.00    +0.000 C 
ATOM     13  O   UNL     1       2.289  14.411  22.343  0.00  0.00    +0.000 OA
ATOM     14  N   UNL     1       1.860  14.125  20.046  0.00  0.00    +0.000 N 
ATOM     15  C   UNL     1       0.871  13.317  19.449  0.00  0.00    +0.000 C 
ATOM     16  O   UNL     1       0.810  12.954  18.286  0.00  0.00    +0.000 OA
ATOM     17  H   UNL     1      -2.903  11.198  24.328  0.00  0.00    +0.000 HD
ENDROOT
BRANCH  14  18
ATOM     18  C   UNL     1       2.825  14.986  19.433  0.00  0.00    +0.000 A 
ATOM     19  C   UNL     1       3.868  14.414  18.665  0.00  0.00    +0.000 A 
ATOM     20  C   UNL     1       5.049  15.099  18.369  0.00  0.00    +0.000 A 
ATOM     21  C   UNL     1       5.192  16.408  18.793  0.00  0.00    +0.000 A 
ATOM     22 CL   UNL     1       6.701  17.208  18.560  0.00  0.00    +0.000 Cl
ATOM     23  C   UNL     1       4.131  17.044  19.433  0.00  0.00    +0.000 A 
ATOM     24  C   UNL     1       2.946  16.352  19.736  0.00  0.00    +0.000 A 
ENDBRANCH  14  18
BRANCH   1  28
ATOM     25  C   UNL     1      -2.950  10.291  16.922  0.00  0.00    +0.000 A 
ATOM     26  C   UNL     1      -1.733  10.088  17.562  0.00  0.00    +0.000 A 
ATOM     27  C   UNL     1      -1.377  10.869  18.664  0.00  0.00    +0.000 A 
ATOM     28  C   UNL     1      -2.215  11.897  19.145  0.00  0.00    +0.000 A 
ATOM     29  C   UNL     1      -3.422  12.108  18.466  0.00  0.00    +0.000 A 
ATOM     30  C   UNL     1      -3.788  11.310  17.369  0.00  0.00    +0.000 A 
BRANCH  25  32
ATOM     31  C   UNL     1      -3.033  10.088  14.573  0.00  0.00    +0.000 C 
ATOM     32  O   UNL     1      -3.190   9.478  15.849  0.00  0.00    +0.000 OA
ENDBRANCH  25  32
ENDBRANCH   1  28
TORSDOF 3
ENDMDL
MODEL 2
REMARK VINA RESULT:      -7.3      4.001      6.234
REMARK  Name = 
REMARK  4 active torsions:
REMARK  status: ('A' for Active; 'I' for Inactive)
REMARK    1  A    between atoms: C_1  and  O_2
REMARK    2  A    between atoms: O_2  and  C_3
REMARK    3  A    between atoms: C_6  and  C_7
REMARK    4  A    between atoms: N_20  and  C_21
REMARK                            x       y       z     vdW  Elec       q    Type
REMARK                         _______ _______ _______ _____ _____    ______ ____
ROOT
ATOM      1  C   UNL     1       0.210  13.463  20.630  0.00  0.00    +0.000 C 
ATOM      2  C   UNL     1      -0.827  13.975  21.617  0.00  0.00    +0.000 A 
ATOM      3  S   UNL     1      -0.426  14.903  23.047  0.00  0.00    +0.000 S 
ATOM      4  C   UNL     1      -2.140  15.081  23.469  0.00  0.00    +0.000 A 
ATOM      5  O   UNL     1      -2.573  15.695  24.425  0.00  0.00    +0.000 OA
ATOM      6  N   UNL     1      -2.861  14.379  22.533  0.00  0.00    +0.000 N 
ATOM      7  C   UNL     1      -2.148  13.784  21.534  0.00  0.00    +0.000 A 
ATOM      8  S   UNL     1      -2.973  12.910  20.332  0.00  0.00    +0.000 S 
ATOM      9  C   UNL     1      -1.631  11.978  19.503  0.00  0.00    +0.000 C 
ATOM     10  C   UNL     1      -0.213  12.037  20.137  0.00  0.00    +0.000 C 
ATOM     11  C   UNL     1      -0.182  11.104  21.358  0.00  0.00    +0.000 C 
ATOM     12  C   UNL     1      -0.169   9.784  20.686  0.00  0.00    +0.000 C 
ATOM     13  O   UNL     1      -0.913   8.870  21.004  0.00  0.00    +0.000 OA
ATOM     14  N   UNL     1       0.746   9.889  19.681  0.00  0.00    +0.000 N 
ATOM     15  C   UNL     1       0.820  11.239  19.282  0.00  0.00    +0.000 C 
ATOM     16  O   UNL     1       1.509  11.715  18.394  0.00  0.00    +0.000 OA
ATOM     17  H   UNL     1      -3.870  14.347  22.578  0.00  0.00    +0.000 HD
ENDROOT
BRANCH  14  18
ATOM     18  C   UNL     1       1.649   8.810  19.416  0.00  0.00    +0.000 A 
ATOM     19  C   UNL     1       2.190   8.667  18.115  0.00  0.00    +0.000 A 
ATOM     20  C   UNL     1       2.738   7.469  17.655  0.00  0.00    +0.000 A 
ATOM     21  C   UNL     1       2.810   6.386  18.514  0.00  0.00    +0.000 A 
ATOM     22 CL   UNL     1       3.350   4.866  17.909  0.00  0.00    +0.000 Cl
ATOM     23  C   UNL     1       2.410   6.533  19.840  0.00  0.00    +0.000 A 
ATOM     24  C   UNL     1       1.852   7.738  20.301  0.00  0.00    +0.000 A 
ENDBRANCH  14  18
BRANCH   1  28
ATOM     25  C   UNL     1       1.242  16.955  18.232  0.00  0.00    +0.000 A 
ATOM     26  C   UNL     1       2.216  16.194  18.868  0.00  0.00    +0.000 A 
ATOM     27  C   UNL     1       1.863  15.035  19.563  0.00  0.00    +0.000 A 
ATOM     28  C   UNL     1       0.521  14.614  19.668  0.00  0.00    +0.000 A 
ATOM     29  C   UNL     1      -0.450  15.412  19.049  0.00  0.00    +0.000 A 
ATOM     30  C   UNL     1      -0.093  16.568  18.334  0.00  0.00    +0.000 A 
BRANCH  25  32
ATOM     31  C   UNL     1       0.812  18.630  16.628  0.00  0.00    +0.000 C 
ATOM     32  O   UNL     1       1.698  18.074  17.592  0.00  0.00    +0.000 OA
ENDBRANCH  25  32
ENDBRANCH   1  28
TORSDOF 3
ENDMDL
MODEL 3
REMARK VINA RESULT:      -7.3      2.802      3.989
REMARK  Name = 
REMARK  4 active torsions:
REMARK  status: ('A' for Active; 'I' for Inactive)
REMARK    1  A    between atoms: C_1  and  O_2
REMARK    2  A    between atoms: O_2  and  C_3
REMARK    3  A    between atoms: C_6  and  C_7
REMARK    4  A    between atoms: N_20  and  C_21
REMARK                            x       y       z     vdW  Elec       q    Type
REMARK                         _______ _______ _______ _____ _____    ______ ____
ROOT
ATOM      1  C   UNL     1      -0.142  12.003  18.614  0.00  0.00    +0.000 C 
ATOM      2  C   UNL     1      -1.636  11.871  18.363  0.00  0.00    +0.000 A 
ATOM      3  S   UNL     1      -2.321  11.386  16.827  0.00  0.00    +0.000 S 
ATOM      4  C   UNL     1      -3.966  11.445  17.488  0.00  0.00    +0.000 A 
ATOM      5  O   UNL     1      -4.982  11.169  16.880  0.00  0.00    +0.000 OA
ATOM      6  N   UNL     1      -3.863  11.880  18.787  0.00  0.00    +0.000 N 
ATOM      7  C   UNL     1      -2.603  12.107  19.256  0.00  0.00    +0.000 A 
ATOM      8  S   UNL     1      -2.396  12.634  20.860  0.00  0.00    +0.000 S 
ATOM      9  C   UNL     1      -0.653  13.196  20.889  0.00  0.00    +0.000 C 
ATOM     10  C   UNL     1       0.114  13.243  19.538  0.00  0.00    +0.000 C 
ATOM     11  C   UNL     1      -0.334  14.492  18.763  0.00  0.00    +0.000 C 
ATOM     12  C   UNL     1       0.347  15.550  19.545  0.00  0.00    +0.000 C 
ATOM     13  O   UNL     1      -0.220  16.560  19.929  0.00  0.00    +0.000 OA
ATOM     14  N   UNL     1       1.616  15.097  19.756  0.00  0.00    +0.000 N 
ATOM     15  C   UNL     1       1.595  13.687  19.746  0.00  0.00    +0.000 C 
ATOM     16  O   UNL     1       2.534  12.929  19.926  0.00  0.00    +0.000 OA
ATOM     17  H   UNL     1      -4.688  11.985  19.362  0.00  0.00    +0.000 HD
ENDROOT
BRANCH  14  18
ATOM     18  C   UNL     1       2.727  15.993  19.640  0.00  0.00    +0.000 A 
ATOM     19  C   UNL     1       3.508  15.973  18.459  0.00  0.00    +0.000 A 
ATOM     20  C   UNL     1       4.802  16.494  18.404  0.00  0.00    +0.000 A 
ATOM     21  C   UNL     1       5.332  17.104  19.527  0.00  0.00    +0.000 A 
ATOM     22 CL   UNL     1       6.977  17.616  19.510  0.00  0.00    +0.000 Cl
ATOM     23  C   UNL     1       4.541  17.260  20.663  0.00  0.00    +0.000 A 
ATOM     24  C   UNL     1       3.240  16.730  20.720  0.00  0.00    +0.000 A 
ENDBRANCH  14  18
BRANCH   1  28
ATOM     25  C   UNL     1       1.604   8.202  19.839  0.00  0.00    +0.000 A 
ATOM     26  C   UNL     1       0.803   8.945  20.697  0.00  0.00    +0.000 A 
ATOM     27  C   UNL     1       0.192  10.119  20.251  0.00  0.00    +0.000 A 
ATOM     28  C   UNL     1       0.385  10.603  18.939  0.00  0.00    +0.000 A 
ATOM     29  C   UNL     1       1.222   9.857  18.100  0.00  0.00    +0.000 A 
ATOM     30  C   UNL     1       1.822   8.666  18.543  0.00  0.00    +0.000 A 
BRANCH  25  32
ATOM     31  C   UNL     1       2.662   6.129  19.449  0.00  0.00    +0.000 C 
ATOM     32  O   UNL     1       2.161   7.078  20.383  0.00  0.00    +0.000 OA
ENDBRANCH  25  32
ENDBRANCH   1  28
TORSDOF 3
ENDMDL
MODEL 4
REMARK VINA RESULT:      -7.2      1.041      1.418
REMARK  Name = 
REMARK  4 active torsions:
REMARK  status: ('A' for Active; 'I' for Inactive)
REMARK    1  A    between atoms: C_1  and  O_2
REMARK    2  A    between atoms: O_2  and  C_3
REMARK    3  A    between atoms: C_6  and  C_7
REMARK    4  A    between atoms: N_20  and  C_21
REMARK                            x       y       z     vdW  Elec       q    Type
REMARK                         _______ _______ _______ _____ _____    ______ ____
ROOT
ATOM      1  C   UNL     1      -0.513  12.665  19.938  0.00  0.00    +0.000 C 
ATOM      2  C   UNL     1      -1.245  12.283  21.214  0.00  0.00    +0.000 A 
ATOM      3  S   UNL     1      -2.762  13.000  21.712  0.00  0.00    +0.000 S 
ATOM      4  C   UNL     1      -2.843  11.954  23.142  0.00  0.00    +0.000 A 
ATOM      5  O   UNL     1      -3.744  11.939  23.958  0.00  0.00    +0.000 OA
ATOM      6  N   UNL     1      -1.695  11.198  23.154  0.00  0.00    +0.000 N 
ATOM      7  C   UNL     1      -0.836  11.378  22.111  0.00  0.00    +0.000 A 
ATOM      8  S   UNL     1       0.600  10.468  22.050  0.00  0.00    +0.000 S 
ATOM      9  C   UNL     1       1.583  11.331  20.768  0.00  0.00    +0.000 C 
ATOM     10  C   UNL     1       1.029  12.674  20.215  0.00  0.00    +0.000 C 
ATOM     11  C   UNL     1       1.302  13.780  21.247  0.00  0.00    +0.000 C 
ATOM     12  C   UNL     1       2.763  13.950  21.077  0.00  0.00    +0.000 C 
ATOM     13  O   UNL     1       3.542  13.983  22.016  0.00  0.00    +0.000 OA
ATOM     14  N   UNL     1       2.978  13.981  19.730  0.00  0.00    +0.000 N 
ATOM     15  C   UNL     1       1.955  13.247  19.097  0.00  0.00    +0.000 C 
ATOM     16  O   UNL     1       1.825  13.031  17.903  0.00  0.00    +0.000 OA
ATOM     17  H   UNL     1      -1.531  10.522  23.887  0.00  0.00    +0.000 HD
ENDROOT
BRANCH  14  18
ATOM     18  C   UNL     1       3.908  14.916  19.173  0.00  0.00    +0.000 A 
ATOM     19  C   UNL     1       4.957  14.437  18.351  0.00  0.00    +0.000 A 
ATOM     20  C   UNL     1       6.111  15.180  18.094  0.00  0.00    +0.000 A 
ATOM     21  C   UNL     1       6.221  16.457  18.615  0.00  0.00    +0.000 A 
ATOM     22 CL   UNL     1       7.701  17.320  18.426  0.00  0.00    +0.000 Cl
ATOM     23  C   UNL     1       5.150  17.008  19.315  0.00  0.00    +0.000 A 
ATOM     24  C   UNL     1       3.991  16.258  19.578  0.00  0.00    +0.000 A 
ENDBRANCH  14  18
BRANCH   1  28
ATOM     25  C   UNL     1      -2.642  10.292  16.964  0.00  0.00    +0.000 A 
ATOM     26  C   UNL     1      -3.153  11.494  17.438  0.00  0.00    +0.000 A 
ATOM     27  C   UNL     1      -2.411  12.272  18.330  0.00  0.00    +0.000 A 
ATOM     28  C   UNL     1      -1.146  11.860  18.799  0.00  0.00    +0.000 A 
ATOM     29  C   UNL     1      -0.664  10.629  18.337  0.00  0.00    +0.000 A 
ATOM     30  C   UNL     1      -1.401   9.855  17.424  0.00  0.00    +0.000 A 
BRANCH  25  32
ATOM     31  C   UNL     1      -3.493  10.103  14.772  0.00  0.00    +0.000 C 
ATOM     32  O   UNL     1      -3.456   9.607  16.105  0.00  0.00    +0.000 OA
ENDBRANCH  25  32
ENDBRANCH   1  28
TORSDOF 3
ENDMDL
MODEL 5
REMARK VINA RESULT:      -6.9      4.194      5.771
REMARK  Name = 
REMARK  4 active torsions:
REMARK  status: ('A' for Active; 'I' for Inactive)
REMARK    1  A    between atoms: C_1  and  O_2
REMARK    2  A    between atoms: O_2  and  C_3
REMARK    3  A    between atoms: C_6  and  C_7
REMARK    4  A    between atoms: N_20  and  C_21
REMARK                            x       y       z     vdW  Elec       q    Type
REMARK                         _______ _______ _______ _____ _____    ______ ____
ROOT
ATOM      1  C   UNL     1      -0.999  12.186  19.989  0.00  0.00    +0.000 C 
ATOM      2  C   UNL     1      -0.928  13.455  20.823  0.00  0.00    +0.000 A 
ATOM      3  S   UNL     1      -0.431  15.007  20.183  0.00  0.00    +0.000 S 
ATOM      4  C   UNL     1      -0.719  15.797  21.746  0.00  0.00    +0.000 A 
ATOM      5  O   UNL     1      -0.574  16.981  21.976  0.00  0.00    +0.000 OA
ATOM      6  N   UNL     1      -1.107  14.816  22.627  0.00  0.00    +0.000 N 
ATOM      7  C   UNL     1      -1.220  13.554  22.125  0.00  0.00    +0.000 A 
ATOM      8  S   UNL     1      -1.708  12.291  23.153  0.00  0.00    +0.000 S 
ATOM      9  C   UNL     1      -1.308  10.789  22.184  0.00  0.00    +0.000 C 
ATOM     10  C   UNL     1      -0.517  10.974  20.859  0.00  0.00    +0.000 C 
ATOM     11  C   UNL     1       0.962  11.216  21.200  0.00  0.00    +0.000 C 
ATOM     12  C   UNL     1       1.367   9.854  21.617  0.00  0.00    +0.000 C 
ATOM     13  O   UNL     1       1.990   9.631  22.643  0.00  0.00    +0.000 OA
ATOM     14  N   UNL     1       0.843   9.009  20.683  0.00  0.00    +0.000 N 
ATOM     15  C   UNL     1      -0.308   9.609  20.132  0.00  0.00    +0.000 C 
ATOM     16  O   UNL     1      -1.056   9.145  19.287  0.00  0.00    +0.000 OA
ATOM     17  H   UNL     1      -1.329  15.045  23.586  0.00  0.00    +0.000 HD
ENDROOT
BRANCH  14  18
ATOM     18  C   UNL     1       1.616   7.906  20.199  0.00  0.00    +0.000 A 
ATOM     19  C   UNL     1       2.208   7.991  18.915  0.00  0.00    +0.000 A 
ATOM     20  C   UNL     1       2.627   6.865  18.203  0.00  0.00    +0.000 A 
ATOM     21  C   UNL     1       2.513   5.617  18.788  0.00  0.00    +0.000 A 
ATOM     22 CL   UNL     1       2.890   4.214  17.860  0.00  0.00    +0.000 Cl
ATOM     23  C   UNL     1       2.059   5.511  20.101  0.00  0.00    +0.000 A 
ATOM     24  C   UNL     1       1.632   6.644  20.815  0.00  0.00    +0.000 A 
ENDBRANCH  14  18
BRANCH   1  28
ATOM     25  C   UNL     1      -4.976  11.951  18.218  0.00  0.00    +0.000 A 
ATOM     26  C   UNL     1      -4.772  12.494  19.481  0.00  0.00    +0.000 A 
ATOM     27  C   UNL     1      -3.478  12.629  19.990  0.00  0.00    +0.000 A 
ATOM     28  C   UNL     1      -2.348  12.201  19.263  0.00  0.00    +0.000 A 
ATOM     29  C   UNL     1      -2.576  11.625  18.007  0.00  0.00    +0.000 A 
ATOM     30  C   UNL     1      -3.876  11.506  17.487  0.00  0.00    +0.000 A 
BRANCH  25  32
ATOM     31  C   UNL     1      -6.786  12.971  17.101  0.00  0.00    +0.000 C 
ATOM     32  O   UNL     1      -6.282  11.855  17.826  0.00  0.00    +0.000 OA
ENDBRANCH  25  32
ENDBRANCH   1  28
TORSDOF 3
ENDMDL
MODEL 6
REMARK VINA RESULT:      -6.8      3.858      6.077
REMARK  Name = 
REMARK  4 active torsions:
REMARK  status: ('A' for Active; 'I' for Inactive)
REMARK    1  A    between atoms: C_1  and  O_2
REMARK    2  A    between atoms: O_2  and  C_3
REMARK    3  A    between atoms: C_6  and  C_7
REMARK    4  A    between atoms: N_20  and  C_21
REMARK                            x       y       z     vdW  Elec       q    Type
REMARK                         _______ _______ _______ _____ _____    ______ ____
ROOT
ATOM      1  C   UNL     1      -0.076  13.515  21.095  0.00  0.00    +0.000 C 
ATOM      2  C   UNL     1      -1.188  13.886  22.062  0.00  0.00    +0.000 A 
ATOM      3  S   UNL     1      -0.907  14.637  23.618  0.00  0.00    +0.000 S 
ATOM      4  C   UNL     1      -2.649  14.736  23.939  0.00  0.00    +0.000 A 
ATOM      5  O   UNL     1      -3.160  15.223  24.929  0.00  0.00    +0.000 OA
ATOM      6  N   UNL     1      -3.289  14.143  22.876  0.00  0.00    +0.000 N 
ATOM      7  C   UNL     1      -2.496  13.686  21.865  0.00  0.00    +0.000 A 
ATOM      8  S   UNL     1      -3.217  12.953  20.511  0.00  0.00    +0.000 S 
ATOM      9  C   UNL     1      -1.800  12.150  19.672  0.00  0.00    +0.000 C 
ATOM     10  C   UNL     1      -0.430  12.153  20.405  0.00  0.00    +0.000 C 
ATOM     11  C   UNL     1      -0.460  11.078  21.504  0.00  0.00    +0.000 C 
ATOM     12  C   UNL     1      -0.370   9.850  20.680  0.00  0.00    +0.000 C 
ATOM     13  O   UNL     1      -1.112   8.893  20.832  0.00  0.00    +0.000 OA
ATOM     14  N   UNL     1       0.609  10.092  19.760  0.00  0.00    +0.000 N 
ATOM     15  C   UNL     1       0.677  11.481  19.534  0.00  0.00    +0.000 C 
ATOM     16  O   UNL     1       1.412  12.073  18.761  0.00  0.00    +0.000 OA
ATOM     17  H   UNL     1      -4.298  14.090  22.847  0.00  0.00    +0.000 HD
ENDROOT
BRANCH  14  18
ATOM     18  C   UNL     1       1.552   9.067  19.431  0.00  0.00    +0.000 A 
ATOM     19  C   UNL     1       2.082   9.015  18.119  0.00  0.00    +0.000 A 
ATOM     20  C   UNL     1       2.675   7.866  17.592  0.00  0.00    +0.000 A 
ATOM     21  C   UNL     1       2.803   6.745  18.393  0.00  0.00    +0.000 A 
ATOM     22 CL   UNL     1       3.398   5.282  17.705  0.00  0.00    +0.000 Cl
ATOM     23  C   UNL     1       2.414   6.807  19.729  0.00  0.00    +0.000 A 
ATOM     24  C   UNL     1       1.812   7.961  20.258  0.00  0.00    +0.000 A 
ENDBRANCH  14  18
BRANCH   1  28
ATOM     25  C   UNL     1       0.841  16.886  18.487  0.00  0.00    +0.000 A 
ATOM     26  C   UNL     1      -0.436  16.339  18.549  0.00  0.00    +0.000 A 
ATOM     27  C   UNL     1      -0.719  15.312  19.453  0.00  0.00    +0.000 A 
ATOM     28  C   UNL     1       0.272  14.779  20.304  0.00  0.00    +0.000 A 
ATOM     29  C   UNL     1       1.560  15.320  20.203  0.00  0.00    +0.000 A 
ATOM     30  C   UNL     1       1.840  16.367  19.307  0.00  0.00    +0.000 A 
BRANCH  25  32
ATOM     31  C   UNL     1      -0.173  18.286  16.882  0.00  0.00    +0.000 C 
ATOM     32  O   UNL     1       1.009  17.877  17.560  0.00  0.00    +0.000 OA
ENDBRANCH  25  32
ENDBRANCH   1  28
TORSDOF 3
ENDMDL
MODEL 7
REMARK VINA RESULT:      -6.6      3.969      7.347
REMARK  Name = 
REMARK  4 active torsions:
REMARK  status: ('A' for Active; 'I' for Inactive)
REMARK    1  A    between atoms: C_1  and  O_2
REMARK    2  A    between atoms: O_2  and  C_3
REMARK    3  A    between atoms: C_6  and  C_7
REMARK    4  A    between atoms: N_20  and  C_21
REMARK                            x       y       z     vdW  Elec       q    Type
REMARK                         _______ _______ _______ _____ _____    ______ ____
ROOT
ATOM      1  C   UNL     1       1.966  14.484  20.450  0.00  0.00    +0.000 C 
ATOM      2  C   UNL     1       1.075  15.519  21.118  0.00  0.00    +0.000 A 
ATOM      3  S   UNL     1       1.377  16.170  22.715  0.00  0.00    +0.000 S 
ATOM      4  C   UNL     1      -0.026  17.249  22.592  0.00  0.00    +0.000 A 
ATOM      5  O   UNL     1      -0.378  18.050  23.436  0.00  0.00    +0.000 OA
ATOM      6  N   UNL     1      -0.633  16.986  21.388  0.00  0.00    +0.000 N 
ATOM      7  C   UNL     1      -0.035  16.051  20.595  0.00  0.00    +0.000 A 
ATOM      8  S   UNL     1      -0.721  15.682  19.084  0.00  0.00    +0.000 S 
ATOM      9  C   UNL     1       0.141  14.139  18.603  0.00  0.00    +0.000 C 
ATOM     10  C   UNL     1       1.070  13.473  19.656  0.00  0.00    +0.000 C 
ATOM     11  C   UNL     1       0.198  12.732  20.682  0.00  0.00    +0.000 C 
ATOM     12  C   UNL     1      -0.239  11.571  19.873  0.00  0.00    +0.000 C 
ATOM     13  O   UNL     1      -1.402  11.207  19.808  0.00  0.00    +0.000 OA
ATOM     14  N   UNL     1       0.880  11.122  19.234  0.00  0.00    +0.000 N 
ATOM     15  C   UNL     1       1.767  12.205  19.071  0.00  0.00    +0.000 C 
ATOM     16  O   UNL     1       2.857  12.196  18.522  0.00  0.00    +0.000 OA
ATOM     17  H   UNL     1      -1.459  17.494  21.105  0.00  0.00    +0.000 HD
ENDROOT
BRANCH  14  18
ATOM     18  C   UNL     1       1.127   9.716  19.123  0.00  0.00    +0.000 A 
ATOM     19  C   UNL     1       1.154   8.927  20.299  0.00  0.00    +0.000 A 
ATOM     20  C   UNL     1       1.762   7.671  20.348  0.00  0.00    +0.000 A 
ATOM     21  C   UNL     1       2.316   7.144  19.196  0.00  0.00    +0.000 A 
ATOM     22 CL   UNL     1       3.194   5.664  19.283  0.00  0.00    +0.000 Cl
ATOM     23  C   UNL     1       2.188   7.835  17.993  0.00  0.00    +0.000 A 
ATOM     24  C   UNL     1       1.582   9.102  17.945  0.00  0.00    +0.000 A 
ENDBRANCH  14  18
BRANCH   1  28
ATOM     25  C   UNL     1       5.254  16.920  18.945  0.00  0.00    +0.000 A 
ATOM     26  C   UNL     1       5.355  16.218  20.140  0.00  0.00    +0.000 A 
ATOM     27  C   UNL     1       4.316  15.382  20.557  0.00  0.00    +0.000 A 
ATOM     28  C   UNL     1       3.130  15.243  19.806  0.00  0.00    +0.000 A 
ATOM     29  C   UNL     1       3.033  15.985  18.622  0.00  0.00    +0.000 A 
ATOM     30  C   UNL     1       4.086  16.811  18.193  0.00  0.00    +0.000 A 
BRANCH  25  32
ATOM     31  C   UNL     1       7.576  17.049  18.553  0.00  0.00    +0.000 C 
ATOM     32  O   UNL     1       6.323  17.716  18.640  0.00  0.00    +0.000 OA
ENDBRANCH  25  32
ENDBRANCH   1  28
TORSDOF 3
ENDMDL
MODEL 8
REMARK VINA RESULT:      -6.6      2.709      3.916
REMARK  Name = 
REMARK  4 active torsions:
REMARK  status: ('A' for Active; 'I' for Inactive)
REMARK    1  A    between atoms: C_1  and  O_2
REMARK    2  A    between atoms: O_2  and  C_3
REMARK    3  A    between atoms: C_6  and  C_7
REMARK    4  A    between atoms: N_20  and  C_21
REMARK                            x       y       z     vdW  Elec       q    Type
REMARK                         _______ _______ _______ _____ _____    ______ ____
ROOT
ATOM      1  C   UNL     1       0.284  12.389  19.673  0.00  0.00    +0.000 C 
ATOM      2  C   UNL     1      -1.198  12.261  19.360  0.00  0.00    +0.000 A 
ATOM      3  S   UNL     1      -1.819  11.763  17.800  0.00  0.00    +0.000 S 
ATOM      4  C   UNL     1      -3.491  11.838  18.388  0.00  0.00    +0.000 A 
ATOM      5  O   UNL     1      -4.481  11.560  17.740  0.00  0.00    +0.000 OA
ATOM      6  N   UNL     1      -3.442  12.286  19.687  0.00  0.00    +0.000 N 
ATOM      7  C   UNL     1      -2.202  12.512  20.207  0.00  0.00    +0.000 A 
ATOM      8  S   UNL     1      -2.062  13.056  21.812  0.00  0.00    +0.000 S 
ATOM      9  C   UNL     1      -0.318  13.608  21.912  0.00  0.00    +0.000 C 
ATOM     10  C   UNL     1       0.506  13.636  20.595  0.00  0.00    +0.000 C 
ATOM     11  C   UNL     1       0.100  14.880  19.787  0.00  0.00    +0.000 C 
ATOM     12  C   UNL     1       0.752  15.943  20.587  0.00  0.00    +0.000 C 
ATOM     13  O   UNL     1       0.175  16.960  20.935  0.00  0.00    +0.000 OA
ATOM     14  N   UNL     1       2.008  15.485  20.857  0.00  0.00    +0.000 N 
ATOM     15  C   UNL     1       1.980  14.076  20.862  0.00  0.00    +0.000 C 
ATOM     16  O   UNL     1       2.906  13.315  21.090  0.00  0.00    +0.000 OA
ATOM     17  H   UNL     1      -4.291  12.401  20.224  0.00  0.00    +0.000 HD
ENDROOT
BRANCH  14  18
ATOM     18  C   UNL     1       3.128  16.374  20.781  0.00  0.00    +0.000 A 
ATOM     19  C   UNL     1       3.797  16.534  19.543  0.00  0.00    +0.000 A 
ATOM     20  C   UNL     1       5.094  17.041  19.448  0.00  0.00    +0.000 A 
ATOM     21  C   UNL     1       5.741  17.456  20.598  0.00  0.00    +0.000 A 
ATOM     22 CL   UNL     1       7.391  17.944  20.507  0.00  0.00    +0.000 Cl
ATOM     23  C   UNL     1       5.062  17.438  21.814  0.00  0.00    +0.000 A 
ATOM     24  C   UNL     1       3.758  16.921  21.910  0.00  0.00    +0.000 A 
ENDBRANCH  14  18
BRANCH   1  28
ATOM     25  C   UNL     1       1.405   8.250  20.459  0.00  0.00    +0.000 A 
ATOM     26  C   UNL     1       1.510   8.804  19.189  0.00  0.00    +0.000 A 
ATOM     27  C   UNL     1       1.219  10.155  18.983  0.00  0.00    +0.000 A 
ATOM     28  C   UNL     1       0.788  10.989  20.036  0.00  0.00    +0.000 A 
ATOM     29  C   UNL     1       0.656  10.404  21.302  0.00  0.00    +0.000 A 
ATOM     30  C   UNL     1       0.966   9.049  21.512  0.00  0.00    +0.000 A 
BRANCH  25  32
ATOM     31  C   UNL     1       2.725   6.463  19.666  0.00  0.00    +0.000 C 
ATOM     32  O   UNL     1       1.702   6.918  20.543  0.00  0.00    +0.000 OA
ENDBRANCH  25  32
ENDBRANCH   1  28
TORSDOF 3
ENDMDL
MODEL 9
REMARK VINA RESULT:      -6.5      3.559      6.868
REMARK  Name = 
REMARK  4 active torsions:
REMARK  status: ('A' for Active; 'I' for Inactive)
REMARK    1  A    between atoms: C_1  and  O_2
REMARK    2  A    between atoms: O_2  and  C_3
REMARK    3  A    between atoms: C_6  and  C_7
REMARK    4  A    between atoms: N_20  and  C_21
REMARK                            x       y       z     vdW  Elec       q    Type
REMARK                         _______ _______ _______ _____ _____    ______ ____
ROOT
ATOM      1  C   UNL     1      -0.811  13.040  19.842  0.00  0.00    +0.000 C 
ATOM      2  C   UNL     1      -1.136  11.801  19.024  0.00  0.00    +0.000 A 
ATOM      3  S   UNL     1      -1.845  11.855  17.424  0.00  0.00    +0.000 S 
ATOM      4  C   UNL     1      -1.778  10.088  17.282  0.00  0.00    +0.000 A 
ATOM      5  O   UNL     1      -2.128   9.443  16.313  0.00  0.00    +0.000 OA
ATOM      6  N   UNL     1      -1.282   9.607  18.471  0.00  0.00    +0.000 N 
ATOM      7  C   UNL     1      -0.937  10.535  19.408  0.00  0.00    +0.000 A 
ATOM      8  S   UNL     1      -0.305  10.015  20.898  0.00  0.00    +0.000 S 
ATOM      9  C   UNL     1      -0.399  11.522  21.936  0.00  0.00    +0.000 C 
ATOM     10  C   UNL     1      -1.135  12.758  21.349  0.00  0.00    +0.000 C 
ATOM     11  C   UNL     1      -2.651  12.523  21.455  0.00  0.00    +0.000 C 
ATOM     12  C   UNL     1      -2.848  12.704  22.912  0.00  0.00    +0.000 C 
ATOM     13  O   UNL     1      -3.482  11.920  23.599  0.00  0.00    +0.000 OA
ATOM     14  N   UNL     1      -2.142  13.823  23.246  0.00  0.00    +0.000 N 
ATOM     15  C   UNL     1      -1.077  13.968  22.333  0.00  0.00    +0.000 C 
ATOM     16  O   UNL     1      -0.217  14.834  22.327  0.00  0.00    +0.000 OA
ATOM     17  H   UNL     1      -1.155   8.614  18.611  0.00  0.00    +0.000 HD
ENDROOT
BRANCH  14  18
ATOM     18  C   UNL     1      -2.695  14.775  24.159  0.00  0.00    +0.000 A 
ATOM     19  C   UNL     1      -4.067  15.113  24.056  0.00  0.00    +0.000 A 
ATOM     20  C   UNL     1      -4.599  16.280  24.607  0.00  0.00    +0.000 A 
ATOM     21  C   UNL     1      -3.773  17.120  25.331  0.00  0.00    +0.000 A 
ATOM     22 CL   UNL     1      -4.387  18.631  25.888  0.00  0.00    +0.000 Cl
ATOM     23  C   UNL     1      -2.450  16.750  25.566  0.00  0.00    +0.000 A 
ATOM     24  C   UNL     1      -1.914  15.578  25.006  0.00  0.00    +0.000 A 
ENDBRANCH  14  18
BRANCH   1  28
ATOM     25  C   UNL     1       2.875  14.635  18.146  0.00  0.00    +0.000 A 
ATOM     26  C   UNL     1       1.840  15.469  18.554  0.00  0.00    +0.000 A 
ATOM     27  C   UNL     1       0.704  14.935  19.167  0.00  0.00    +0.000 A 
ATOM     28  C   UNL     1       0.554  13.546  19.368  0.00  0.00    +0.000 A 
ATOM     29  C   UNL     1       1.593  12.720  18.920  0.00  0.00    +0.000 A 
ATOM     30  C   UNL     1       2.743  13.259  18.320  0.00  0.00    +0.000 A 
BRANCH  25  32
ATOM     31  C   UNL     1       4.435  16.402  18.236  0.00  0.00    +0.000 C 
ATOM     32  O   UNL     1       3.932  15.263  17.548  0.00  0.00    +0.000 OA
ENDBRANCH  25  32
ENDBRANCH   1  28
TORSDOF 3
ENDMDL
