MODEL 1
REMARK VINA RESULT:      -7.2      0.000      0.000
REMARK  Name = 
REMARK  7 active torsions:
REMARK  status: ('A' for Active; 'I' for Inactive)
REMARK    1  A    between atoms: C_1  and  C_2
REMARK    2  A    between atoms: N_4  and  C_5
REMARK    3  A    between atoms: C_8  and  N_9
REMARK    4  A    between atoms: C_13  and  C_14
REMARK    5  A    between atoms: C_18  and  O_19
REMARK    6  A    between atoms: O_19  and  C_20
REMARK    7  A    between atoms: C_28  and  C_29
REMARK                            x       y       z     vdW  Elec       q    Type
REMARK                         _______ _______ _______ _____ _____    ______ ____
ROOT
ATOM      1  N   UNL     1      -1.617  13.325  22.175  0.00  0.00    +0.000 N 
ATOM      2  C   UNL     1      -2.964  13.230  22.505  0.00  0.00    +0.000 C 
ATOM      3  O   UNL     1      -3.611  12.192  22.550  0.00  0.00    +0.000 OA
ATOM      4  C   UNL     1      -3.523  14.581  22.767  0.00  0.00    +0.000 C 
ATOM      5  C   UNL     1      -4.827  14.883  22.781  0.00  0.00    +0.000 C 
ATOM      6  S   UNL     1      -2.278  15.756  22.989  0.00  0.00    +0.000 S 
ATOM      7  C   UNL     1      -0.984  14.619  22.339  0.00  0.00    +0.000 C 
ENDROOT
BRANCH   1  11
ATOM      8  C   UNL     1       0.304  10.178  20.130  0.00  0.00    +0.000 A 
ATOM      9  C   UNL     1       0.537  10.404  21.484  0.00  0.00    +0.000 A 
ATOM     10  C   UNL     1      -0.092  11.458  22.139  0.00  0.00    +0.000 A 
ATOM     11  C   UNL     1      -1.001  12.278  21.459  0.00  0.00    +0.000 A 
ATOM     12  C   UNL     1      -1.257  12.053  20.114  0.00  0.00    +0.000 A 
ATOM     13  C   UNL     1      -0.569  11.030  19.439  0.00  0.00    +0.000 A 
BRANCH   8  17
ATOM     14  C   UNL     1       2.220   7.991  17.735  0.00  0.00    +0.000 C 
ATOM     15  C   UNL     1       1.807   9.300  18.353  0.00  0.00    +0.000 C 
ATOM     16  O   UNL     1       2.232  10.359  17.900  0.00  0.00    +0.000 OA
ATOM     17  N   UNL     1       0.944   9.140  19.423  0.00  0.00    +0.000 N 
ATOM     18  H   UNL     1       0.823   8.204  19.789  0.00  0.00    +0.000 HD
ENDBRANCH   8  17
ENDBRANCH   1  11
BRANCH   5  19
ATOM     19  C   UNL     1      -5.911  13.899  22.768  0.00  0.00    +0.000 A 
ATOM     20  C   UNL     1      -6.375  13.225  23.896  0.00  0.00    +0.000 A 
ATOM     21  C   UNL     1      -7.397  12.276  23.768  0.00  0.00    +0.000 A 
ATOM     22  C   UNL     1      -7.913  11.965  22.505  0.00  0.00    +0.000 A 
ATOM     23  C   UNL     1      -7.429  12.619  21.376  0.00  0.00    +0.000 A 
ATOM     24  C   UNL     1      -6.488  13.641  21.523  0.00  0.00    +0.000 A 
BRANCH  23  25
ATOM     25  O   UNL     1      -7.916  12.229  20.148  0.00  0.00    +0.000 OA
BRANCH  25  26
ATOM     26  C   UNL     1      -7.015  12.068  19.112  0.00  0.00    +0.000 A 
ATOM     27  C   UNL     1      -6.026  11.077  19.083  0.00  0.00    +0.000 A 
ATOM     28  C   UNL     1      -5.106  11.029  18.036  0.00  0.00    +0.000 A 
ATOM     29  C   UNL     1      -5.212  11.930  16.979  0.00  0.00    +0.000 A 
ATOM     30  C   UNL     1      -6.238  12.878  16.970  0.00  0.00    +0.000 A 
ATOM     31  C   UNL     1      -7.137  12.949  18.037  0.00  0.00    +0.000 A 
ENDBRANCH  25  26
ENDBRANCH  23  25
ENDBRANCH   5  19
BRANCH   7  32
ATOM     32  C   UNL     1      -0.376  15.218  21.079  0.00  0.00    +0.000 A 
ATOM     33  C   UNL     1       1.022  15.292  20.949  0.00  0.00    +0.000 A 
ATOM     34  C   UNL     1       1.604  15.899  19.832  0.00  0.00    +0.000 A 
ATOM     35  C   UNL     1       0.800  16.442  18.833  0.00  0.00    +0.000 A 
ATOM     36  C   UNL     1      -0.586  16.366  18.938  0.00  0.00    +0.000 A 
ATOM     37  C   UNL     1      -1.170  15.750  20.046  0.00  0.00    +0.000 A 
ENDBRANCH   7  32
TORSDOF 6
ENDMDL
MODEL 2
REMARK VINA RESULT:      -7.0      1.672      2.601
REMARK  Name = 
REMARK  7 active torsions:
REMARK  status: ('A' for Active; 'I' for Inactive)
REMARK    1  A    between atoms: C_1  and  C_2
REMARK    2  A    between atoms: N_4  and  C_5
REMARK    3  A    between atoms: C_8  and  N_9
REMARK    4  A    between atoms: C_13  and  C_14
REMARK    5  A    between atoms: C_18  and  O_19
REMARK    6  A    between atoms: O_19  and  C_20
REMARK    7  A    between atoms: C_28  and  C_29
REMARK                            x       y       z     vdW  Elec       q    Type
REMARK                         _______ _______ _______ _____ _____    ______ ____
ROOT
ATOM      1  N   UNL     1      -0.690  12.476  21.605  0.00  0.00    +0.000 N 
ATOM      2  C   UNL     1      -2.075  12.554  21.529  0.00  0.00    +0.000 C 
ATOM      3  O   UNL     1      -2.835  11.598  21.443  0.00  0.00    +0.000 OA
ATOM      4  C   UNL     1      -2.509  13.975  21.534  0.00  0.00    +0.000 C 
ATOM      5  C   UNL     1      -3.713  14.412  21.144  0.00  0.00    +0.000 C 
ATOM      6  S   UNL     1      -1.240  15.029  22.042  0.00  0.00    +0.000 S 
ATOM      7  C   UNL     1       0.030  13.707  21.872  0.00  0.00    +0.000 C 
ENDROOT
BRANCH   1  11
ATOM      8  C   UNL     1       1.222   9.000  20.180  0.00  0.00    +0.000 A 
ATOM      9  C   UNL     1       0.656   9.920  19.302  0.00  0.00    +0.000 A 
ATOM     10  C   UNL     1       0.013  11.053  19.791  0.00  0.00    +0.000 A 
ATOM     11  C   UNL     1      -0.034  11.308  21.167  0.00  0.00    +0.000 A 
ATOM     12  C   UNL     1       0.543  10.408  22.053  0.00  0.00    +0.000 A 
ATOM     13  C   UNL     1       1.132   9.231  21.560  0.00  0.00    +0.000 A 
BRANCH   8  17
ATOM     14  C   UNL     1       2.926   6.240  18.264  0.00  0.00    +0.000 C 
ATOM     15  C   UNL     1       2.452   7.650  18.490  0.00  0.00    +0.000 C 
ATOM     16  O   UNL     1       2.613   8.503  17.622  0.00  0.00    +0.000 OA
ATOM     17  N   UNL     1       1.856   7.825  19.727  0.00  0.00    +0.000 N 
ATOM     18  H   UNL     1       1.954   7.076  20.402  0.00  0.00    +0.000 HD
ENDBRANCH   8  17
ENDBRANCH   1  11
BRANCH   5  19
ATOM     19  C   UNL     1      -4.864  13.550  20.871  0.00  0.00    +0.000 A 
ATOM     20  C   UNL     1      -5.823  13.194  21.818  0.00  0.00    +0.000 A 
ATOM     21  C   UNL     1      -6.869  12.334  21.461  0.00  0.00    +0.000 A 
ATOM     22  C   UNL     1      -6.922  11.790  20.173  0.00  0.00    +0.000 A 
ATOM     23  C   UNL     1      -5.948  12.123  19.236  0.00  0.00    +0.000 A 
ATOM     24  C   UNL     1      -4.971  13.065  19.566  0.00  0.00    +0.000 A 
BRANCH  23  25
ATOM     25  O   UNL     1      -6.000  11.508  18.006  0.00  0.00    +0.000 OA
BRANCH  25  26
ATOM     26  C   UNL     1      -4.813  11.086  17.437  0.00  0.00    +0.000 A 
ATOM     27  C   UNL     1      -4.347  11.520  16.190  0.00  0.00    +0.000 A 
ATOM     28  C   UNL     1      -3.176  10.988  15.651  0.00  0.00    +0.000 A 
ATOM     29  C   UNL     1      -2.429  10.071  16.386  0.00  0.00    +0.000 A 
ATOM     30  C   UNL     1      -2.854   9.686  17.660  0.00  0.00    +0.000 A 
ATOM     31  C   UNL     1      -4.046  10.191  18.184  0.00  0.00    +0.000 A 
ENDBRANCH  25  26
ENDBRANCH  23  25
ENDBRANCH   5  19
BRANCH   7  32
ATOM     32  C   UNL     1       1.043  14.117  20.813  0.00  0.00    +0.000 A 
ATOM     33  C   UNL     1       0.603  14.741  19.633  0.00  0.00    +0.000 A 
ATOM     34  C   UNL     1       1.507  15.065  18.617  0.00  0.00    +0.000 A 
ATOM     35  C   UNL     1       2.859  14.770  18.764  0.00  0.00    +0.000 A 
ATOM     36  C   UNL     1       3.317  14.165  19.931  0.00  0.00    +0.000 A 
ATOM     37  C   UNL     1       2.419  13.850  20.953  0.00  0.00    +0.000 A 
ENDBRANCH   7  32
TORSDOF 6
ENDMDL
MODEL 3
REMARK VINA RESULT:      -7.0      0.357      1.178
REMARK  Name = 
REMARK  7 active torsions:
REMARK  status: ('A' for Active; 'I' for Inactive)
REMARK    1  A    between atoms: C_1  and  C_2
REMARK    2  A    between atoms: N_4  and  C_5
REMARK    3  A    between atoms: C_8  and  N_9
REMARK    4  A    between atoms: C_13  and  C_14
REMARK    5  A    between atoms: C_18  and  O_19
REMARK    6  A    between atoms: O_19  and  C_20
REMARK    7  A    between atoms: C_28  and  C_29
REMARK                            x       y       z     vdW  Elec       q    Type
REMARK                         _______ _______ _______ _____ _____    ______ ____
ROOT
ATOM      1  N   UNL     1      -1.692  13.441  21.974  0.00  0.00    +0.000 N 
ATOM      2  C   UNL     1      -3.042  13.290  22.269  0.00  0.00    +0.000 C 
ATOM      3  O   UNL     1      -3.642  12.224  22.315  0.00  0.00    +0.000 OA
ATOM      4  C   UNL     1      -3.669  14.619  22.490  0.00  0.00    +0.000 C 
ATOM      5  C   UNL     1      -4.985  14.860  22.461  0.00  0.00    +0.000 C 
ATOM      6  S   UNL     1      -2.485  15.853  22.723  0.00  0.00    +0.000 S 
ATOM      7  C   UNL     1      -1.123  14.766  22.131  0.00  0.00    +0.000 C 
ENDROOT
BRANCH   1  11
ATOM      8  C   UNL     1       0.252  10.349  19.869  0.00  0.00    +0.000 A 
ATOM      9  C   UNL     1      -0.888  10.961  19.356  0.00  0.00    +0.000 A 
ATOM     10  C   UNL     1      -1.527  11.968  20.072  0.00  0.00    +0.000 A 
ATOM     11  C   UNL     1      -1.009  12.411  21.296  0.00  0.00    +0.000 A 
ATOM     12  C   UNL     1       0.138  11.822  21.810  0.00  0.00    +0.000 A 
ATOM     13  C   UNL     1       0.742  10.760  21.116  0.00  0.00    +0.000 A 
BRANCH   8  17
ATOM     14  C   UNL     1       2.239   8.144  17.549  0.00  0.00    +0.000 C 
ATOM     15  C   UNL     1       1.809   9.457  18.145  0.00  0.00    +0.000 C 
ATOM     16  O   UNL     1       2.251  10.513  17.701  0.00  0.00    +0.000 OA
ATOM     17  N   UNL     1       0.912   9.305  19.188  0.00  0.00    +0.000 N 
ATOM     18  H   UNL     1       0.777   8.371  19.555  0.00  0.00    +0.000 HD
ENDBRANCH   8  17
ENDBRANCH   1  11
BRANCH   5  19
ATOM     19  C   UNL     1      -6.022  13.827  22.437  0.00  0.00    +0.000 A 
ATOM     20  C   UNL     1      -6.535  13.201  23.571  0.00  0.00    +0.000 A 
ATOM     21  C   UNL     1      -7.504  12.198  23.435  0.00  0.00    +0.000 A 
ATOM     22  C   UNL     1      -7.916  11.789  22.162  0.00  0.00    +0.000 A 
ATOM     23  C   UNL     1      -7.383  12.396  21.029  0.00  0.00    +0.000 A 
ATOM     24  C   UNL     1      -6.499  13.468  21.175  0.00  0.00    +0.000 A 
BRANCH  23  25
ATOM     25  O   UNL     1      -7.765  11.911  19.798  0.00  0.00    +0.000 OA
BRANCH  25  26
ATOM     26  C   UNL     1      -6.822  11.885  18.787  0.00  0.00    +0.000 A 
ATOM     27  C   UNL     1      -6.846  12.734  17.674  0.00  0.00    +0.000 A 
ATOM     28  C   UNL     1      -5.902  12.592  16.659  0.00  0.00    +0.000 A 
ATOM     29  C   UNL     1      -4.887  11.646  16.783  0.00  0.00    +0.000 A 
ATOM     30  C   UNL     1      -4.819  10.842  17.923  0.00  0.00    +0.000 A 
ATOM     31  C   UNL     1      -5.787  10.959  18.924  0.00  0.00    +0.000 A 
ENDBRANCH  25  26
ENDBRANCH  23  25
ENDBRANCH   5  19
BRANCH   7  32
ATOM     32  C   UNL     1      -0.507  15.369  20.878  0.00  0.00    +0.000 A 
ATOM     33  C   UNL     1       0.891  15.396  20.733  0.00  0.00    +0.000 A 
ATOM     34  C   UNL     1       1.482  16.005  19.622  0.00  0.00    +0.000 A 
ATOM     35  C   UNL     1       0.688  16.599  18.644  0.00  0.00    +0.000 A 
ATOM     36  C   UNL     1      -0.699  16.571  18.764  0.00  0.00    +0.000 A 
ATOM     37  C   UNL     1      -1.293  15.952  19.865  0.00  0.00    +0.000 A 
ENDBRANCH   7  32
TORSDOF 6
ENDMDL
MODEL 4
REMARK VINA RESULT:      -6.9      1.824      2.384
REMARK  Name = 
REMARK  7 active torsions:
REMARK  status: ('A' for Active; 'I' for Inactive)
REMARK    1  A    between atoms: C_1  and  C_2
REMARK    2  A    between atoms: N_4  and  C_5
REMARK    3  A    between atoms: C_8  and  N_9
REMARK    4  A    between atoms: C_13  and  C_14
REMARK    5  A    between atoms: C_18  and  O_19
REMARK    6  A    between atoms: O_19  and  C_20
REMARK    7  A    between atoms: C_28  and  C_29
REMARK                            x       y       z     vdW  Elec       q    Type
REMARK                         _______ _______ _______ _____ _____    ______ ____
ROOT
ATOM      1  N   UNL     1      -0.747  12.455  21.737  0.00  0.00    +0.000 N 
ATOM      2  C   UNL     1      -2.124  12.587  21.606  0.00  0.00    +0.000 C 
ATOM      3  O   UNL     1      -2.926  11.662  21.589  0.00  0.00    +0.000 OA
ATOM      4  C   UNL     1      -2.490  14.019  21.453  0.00  0.00    +0.000 C 
ATOM      5  C   UNL     1      -3.660  14.466  20.981  0.00  0.00    +0.000 C 
ATOM      6  S   UNL     1      -1.188  15.061  21.897  0.00  0.00    +0.000 S 
ATOM      7  C   UNL     1       0.022  13.674  21.904  0.00  0.00    +0.000 C 
ENDROOT
BRANCH   1  11
ATOM      8  C   UNL     1       1.119   8.754  20.970  0.00  0.00    +0.000 A 
ATOM      9  C   UNL     1       0.884   9.184  22.273  0.00  0.00    +0.000 A 
ATOM     10  C   UNL     1       0.284  10.417  22.508  0.00  0.00    +0.000 A 
ATOM     11  C   UNL     1      -0.135  11.221  21.440  0.00  0.00    +0.000 A 
ATOM     12  C   UNL     1       0.077  10.796  20.136  0.00  0.00    +0.000 A 
ATOM     13  C   UNL     1       0.744   9.582  19.903  0.00  0.00    +0.000 A 
BRANCH   8  17
ATOM     14  C   UNL     1       2.847   5.760  19.472  0.00  0.00    +0.000 C 
ATOM     15  C   UNL     1       2.385   7.192  19.504  0.00  0.00    +0.000 C 
ATOM     16  O   UNL     1       2.584   7.928  18.542  0.00  0.00    +0.000 OA
ATOM     17  N   UNL     1       1.752   7.526  20.689  0.00  0.00    +0.000 N 
ATOM     18  H   UNL     1       1.819   6.868  21.455  0.00  0.00    +0.000 HD
ENDBRANCH   8  17
ENDBRANCH   1  11
BRANCH   5  19
ATOM     19  C   UNL     1      -4.842  13.633  20.756  0.00  0.00    +0.000 A 
ATOM     20  C   UNL     1      -5.839  13.410  21.703  0.00  0.00    +0.000 A 
ATOM     21  C   UNL     1      -6.914  12.565  21.397  0.00  0.00    +0.000 A 
ATOM     22  C   UNL     1      -6.959  11.905  20.164  0.00  0.00    +0.000 A 
ATOM     23  C   UNL     1      -5.948  12.107  19.229  0.00  0.00    +0.000 A 
ATOM     24  C   UNL     1      -4.937  13.033  19.498  0.00  0.00    +0.000 A 
BRANCH  23  25
ATOM     25  O   UNL     1      -5.998  11.381  18.060  0.00  0.00    +0.000 OA
BRANCH  25  26
ATOM     26  C   UNL     1      -4.806  10.935  17.520  0.00  0.00    +0.000 A 
ATOM     27  C   UNL     1      -3.949  10.030  18.159  0.00  0.00    +0.000 A 
ATOM     28  C   UNL     1      -2.727   9.689  17.581  0.00  0.00    +0.000 A 
ATOM     29  C   UNL     1      -2.387  10.196  16.329  0.00  0.00    +0.000 A 
ATOM     30  C   UNL     1      -3.268  11.045  15.657  0.00  0.00    +0.000 A 
ATOM     31  C   UNL     1      -4.476  11.417  16.253  0.00  0.00    +0.000 A 
ENDBRANCH  25  26
ENDBRANCH  23  25
ENDBRANCH   5  19
BRANCH   7  32
ATOM     32  C   UNL     1       1.085  13.930  20.846  0.00  0.00    +0.000 A 
ATOM     33  C   UNL     1       2.445  13.799  21.180  0.00  0.00    +0.000 A 
ATOM     34  C   UNL     1       3.441  14.094  20.244  0.00  0.00    +0.000 A 
ATOM     35  C   UNL     1       3.095  14.526  18.967  0.00  0.00    +0.000 A 
ATOM     36  C   UNL     1       1.754  14.649  18.614  0.00  0.00    +0.000 A 
ATOM     37  C   UNL     1       0.756  14.344  19.541  0.00  0.00    +0.000 A 
ENDBRANCH   7  32
TORSDOF 6
ENDMDL
MODEL 5
REMARK VINA RESULT:      -6.9      2.007      2.671
REMARK  Name = 
REMARK  7 active torsions:
REMARK  status: ('A' for Active; 'I' for Inactive)
REMARK    1  A    between atoms: C_1  and  C_2
REMARK    2  A    between atoms: N_4  and  C_5
REMARK    3  A    between atoms: C_8  and  N_9
REMARK    4  A    between atoms: C_13  and  C_14
REMARK    5  A    between atoms: C_18  and  O_19
REMARK    6  A    between atoms: O_19  and  C_20
REMARK    7  A    between atoms: C_28  and  C_29
REMARK                            x       y       z     vdW  Elec       q    Type
REMARK                         _______ _______ _______ _____ _____    ______ ____
ROOT
ATOM      1  N   UNL     1      -0.458  12.335  21.318  0.00  0.00    +0.000 N 
ATOM      2  C   UNL     1      -1.846  12.413  21.313  0.00  0.00    +0.000 C 
ATOM      3  O   UNL     1      -2.608  11.464  21.182  0.00  0.00    +0.000 OA
ATOM      4  C   UNL     1      -2.281  13.826  21.457  0.00  0.00    +0.000 C 
ATOM      5  C   UNL     1      -3.502  14.287  21.161  0.00  0.00    +0.000 C 
ATOM      6  S   UNL     1      -0.990  14.840  21.993  0.00  0.00    +0.000 S 
ATOM      7  C   UNL     1       0.272  13.543  21.654  0.00  0.00    +0.000 C 
ENDROOT
BRANCH   1  11
ATOM      8  C   UNL     1       1.488   8.944  19.743  0.00  0.00    +0.000 A 
ATOM      9  C   UNL     1       1.324   9.105  21.116  0.00  0.00    +0.000 A 
ATOM     10  C   UNL     1       0.695  10.240  21.620  0.00  0.00    +0.000 A 
ATOM     11  C   UNL     1       0.178  11.211  20.754  0.00  0.00    +0.000 A 
ATOM     12  C   UNL     1       0.318  11.054  19.382  0.00  0.00    +0.000 A 
ATOM     13  C   UNL     1       1.013   9.940  18.880  0.00  0.00    +0.000 A 
BRANCH   8  17
ATOM     14  C   UNL     1       3.086   5.617  18.988  0.00  0.00    +0.000 C 
ATOM     15  C   UNL     1       2.198   6.559  19.754  0.00  0.00    +0.000 C 
ATOM     16  O   UNL     1       1.611   6.174  20.762  0.00  0.00    +0.000 OA
ATOM     17  N   UNL     1       2.146   7.824  19.194  0.00  0.00    +0.000 N 
ATOM     18  H   UNL     1       2.540   7.941  18.270  0.00  0.00    +0.000 HD
ENDBRANCH   8  17
ENDBRANCH   1  11
BRANCH   5  19
ATOM     19  C   UNL     1      -4.663  13.445  20.870  0.00  0.00    +0.000 A 
ATOM     20  C   UNL     1      -5.600  13.041  21.820  0.00  0.00    +0.000 A 
ATOM     21  C   UNL     1      -6.658  12.204  21.442  0.00  0.00    +0.000 A 
ATOM     22  C   UNL     1      -6.745  11.733  20.128  0.00  0.00    +0.000 A 
ATOM     23  C   UNL     1      -5.794  12.115  19.186  0.00  0.00    +0.000 A 
ATOM     24  C   UNL     1      -4.805  13.034  19.543  0.00  0.00    +0.000 A 
BRANCH  23  25
ATOM     25  O   UNL     1      -5.880  11.569  17.925  0.00  0.00    +0.000 OA
BRANCH  25  26
ATOM     26  C   UNL     1      -4.719  11.104  17.336  0.00  0.00    +0.000 A 
ATOM     27  C   UNL     1      -4.268  11.508  16.074  0.00  0.00    +0.000 A 
ATOM     28  C   UNL     1      -3.126  10.934  15.516  0.00  0.00    +0.000 A 
ATOM     29  C   UNL     1      -2.392  10.003  16.246  0.00  0.00    +0.000 A 
ATOM     30  C   UNL     1      -2.799   9.647  17.534  0.00  0.00    +0.000 A 
ATOM     31  C   UNL     1      -3.964  10.194  18.078  0.00  0.00    +0.000 A 
ENDBRANCH  25  26
ENDBRANCH  23  25
ENDBRANCH   5  19
BRANCH   7  32
ATOM     32  C   UNL     1       1.235  14.046  20.588  0.00  0.00    +0.000 A 
ATOM     33  C   UNL     1       2.617  13.851  20.752  0.00  0.00    +0.000 A 
ATOM     34  C   UNL     1       3.526  14.363  19.821  0.00  0.00    +0.000 A 
ATOM     35  C   UNL     1       3.068  15.078  18.718  0.00  0.00    +0.000 A 
ATOM     36  C   UNL     1       1.702  15.271  18.531  0.00  0.00    +0.000 A 
ATOM     37  C   UNL     1       0.791  14.750  19.452  0.00  0.00    +0.000 A 
ENDBRANCH   7  32
TORSDOF 6
ENDMDL
MODEL 6
REMARK VINA RESULT:      -6.9      2.841      8.126
REMARK  Name = 
REMARK  7 active torsions:
REMARK  status: ('A' for Active; 'I' for Inactive)
REMARK    1  A    between atoms: C_1  and  C_2
REMARK    2  A    between atoms: N_4  and  C_5
REMARK    3  A    between atoms: C_8  and  N_9
REMARK    4  A    between atoms: C_13  and  C_14
REMARK    5  A    between atoms: C_18  and  O_19
REMARK    6  A    between atoms: O_19  and  C_20
REMARK    7  A    between atoms: C_28  and  C_29
REMARK                            x       y       z     vdW  Elec       q    Type
REMARK                         _______ _______ _______ _____ _____    ______ ____
ROOT
ATOM      1  N   UNL     1      -0.143  11.967  20.242  0.00  0.00    +0.000 N 
ATOM      2  C   UNL     1       0.945  12.827  20.157  0.00  0.00    +0.000 C 
ATOM      3  O   UNL     1       1.171  13.761  20.915  0.00  0.00    +0.000 OA
ATOM      4  C   UNL     1       1.788  12.473  18.985  0.00  0.00    +0.000 C 
ATOM      5  C   UNL     1       2.701  13.276  18.425  0.00  0.00    +0.000 C 
ATOM      6  S   UNL     1       1.403  10.906  18.373  0.00  0.00    +0.000 S 
ATOM      7  C   UNL     1      -0.151  10.818  19.356  0.00  0.00    +0.000 C 
ENDROOT
BRANCH   1  11
ATOM      8  C   UNL     1      -3.556  13.060  22.461  0.00  0.00    +0.000 A 
ATOM      9  C   UNL     1      -2.648  12.126  22.953  0.00  0.00    +0.000 A 
ATOM     10  C   UNL     1      -1.537  11.764  22.199  0.00  0.00    +0.000 A 
ATOM     11  C   UNL     1      -1.290  12.365  20.958  0.00  0.00    +0.000 A 
ATOM     12  C   UNL     1      -2.177  13.311  20.464  0.00  0.00    +0.000 A 
ATOM     13  C   UNL     1      -3.334  13.625  21.198  0.00  0.00    +0.000 A 
BRANCH   8  17
ATOM     14  C   UNL     1      -7.023  13.627  23.822  0.00  0.00    +0.000 C 
ATOM     15  C   UNL     1      -5.986  12.933  22.982  0.00  0.00    +0.000 C 
ATOM     16  O   UNL     1      -6.312  12.026  22.221  0.00  0.00    +0.000 OA
ATOM     17  N   UNL     1      -4.710  13.432  23.180  0.00  0.00    +0.000 N 
ATOM     18  H   UNL     1      -4.571  14.058  23.965  0.00  0.00    +0.000 HD
ENDBRANCH   8  17
ENDBRANCH   1  11
BRANCH   5  19
ATOM     19  C   UNL     1       3.176  14.532  19.008  0.00  0.00    +0.000 A 
ATOM     20  C   UNL     1       4.145  14.619  20.006  0.00  0.00    +0.000 A 
ATOM     21  C   UNL     1       4.504  15.872  20.520  0.00  0.00    +0.000 A 
ATOM     22  C   UNL     1       3.855  17.027  20.072  0.00  0.00    +0.000 A 
ATOM     23  C   UNL     1       2.868  16.936  19.095  0.00  0.00    +0.000 A 
ATOM     24  C   UNL     1       2.591  15.698  18.510  0.00  0.00    +0.000 A 
BRANCH  23  25
ATOM     25  O   UNL     1       2.207  18.090  18.738  0.00  0.00    +0.000 OA
BRANCH  25  26
ATOM     26  C   UNL     1       0.824  18.077  18.742  0.00  0.00    +0.000 A 
ATOM     27  C   UNL     1       0.037  18.323  17.610  0.00  0.00    +0.000 A 
ATOM     28  C   UNL     1      -1.352  18.368  17.714  0.00  0.00    +0.000 A 
ATOM     29  C   UNL     1      -1.965  18.099  18.936  0.00  0.00    +0.000 A 
ATOM     30  C   UNL     1      -1.187  17.786  20.053  0.00  0.00    +0.000 A 
ATOM     31  C   UNL     1       0.207  17.778  19.957  0.00  0.00    +0.000 A 
ENDBRANCH  25  26
ENDBRANCH  23  25
ENDBRANCH   5  19
BRANCH   7  32
ATOM     32  C   UNL     1      -1.339  10.726  18.410  0.00  0.00    +0.000 A 
ATOM     33  C   UNL     1      -2.265   9.678  18.556  0.00  0.00    +0.000 A 
ATOM     34  C   UNL     1      -3.327   9.534  17.659  0.00  0.00    +0.000 A 
ATOM     35  C   UNL     1      -3.477  10.429  16.603  0.00  0.00    +0.000 A 
ATOM     36  C   UNL     1      -2.578  11.481  16.450  0.00  0.00    +0.000 A 
ATOM     37  C   UNL     1      -1.524  11.636  17.351  0.00  0.00    +0.000 A 
ENDBRANCH   7  32
TORSDOF 6
ENDMDL
MODEL 7
REMARK VINA RESULT:      -6.9      2.831      8.113
REMARK  Name = 
REMARK  7 active torsions:
REMARK  status: ('A' for Active; 'I' for Inactive)
REMARK    1  A    between atoms: C_1  and  C_2
REMARK    2  A    between atoms: N_4  and  C_5
REMARK    3  A    between atoms: C_8  and  N_9
REMARK    4  A    between atoms: C_13  and  C_14
REMARK    5  A    between atoms: C_18  and  O_19
REMARK    6  A    between atoms: O_19  and  C_20
REMARK    7  A    between atoms: C_28  and  C_29
REMARK                            x       y       z     vdW  Elec       q    Type
REMARK                         _______ _______ _______ _____ _____    ______ ____
ROOT
ATOM      1  N   UNL     1      -0.149  11.872  20.282  0.00  0.00    +0.000 N 
ATOM      2  C   UNL     1       0.934  12.738  20.191  0.00  0.00    +0.000 C 
ATOM      3  O   UNL     1       1.158  13.673  20.948  0.00  0.00    +0.000 OA
ATOM      4  C   UNL     1       1.773  12.389  19.015  0.00  0.00    +0.000 C 
ATOM      5  C   UNL     1       2.678  13.198  18.451  0.00  0.00    +0.000 C 
ATOM      6  S   UNL     1       1.393  10.820  18.404  0.00  0.00    +0.000 S 
ATOM      7  C   UNL     1      -0.155  10.723  19.395  0.00  0.00    +0.000 C 
ENDROOT
BRANCH   1  11
ATOM      8  C   UNL     1      -3.550  12.952  22.526  0.00  0.00    +0.000 A 
ATOM      9  C   UNL     1      -2.579  12.105  23.055  0.00  0.00    +0.000 A 
ATOM     10  C   UNL     1      -1.472  11.745  22.293  0.00  0.00    +0.000 A 
ATOM     11  C   UNL     1      -1.294  12.263  21.004  0.00  0.00    +0.000 A 
ATOM     12  C   UNL     1      -2.245  13.123  20.472  0.00  0.00    +0.000 A 
ATOM     13  C   UNL     1      -3.395  13.431  21.218  0.00  0.00    +0.000 A 
BRANCH   8  17
ATOM     14  C   UNL     1      -7.015  13.555  23.877  0.00  0.00    +0.000 C 
ATOM     15  C   UNL     1      -5.991  12.881  23.004  0.00  0.00    +0.000 C 
ATOM     16  O   UNL     1      -6.337  12.041  22.179  0.00  0.00    +0.000 OA
ATOM     17  N   UNL     1      -4.701  13.317  23.254  0.00  0.00    +0.000 N 
ATOM     18  H   UNL     1      -4.551  13.882  24.081  0.00  0.00    +0.000 HD
ENDBRANCH   8  17
ENDBRANCH   1  11
BRANCH   5  19
ATOM     19  C   UNL     1       3.149  14.456  19.031  0.00  0.00    +0.000 A 
ATOM     20  C   UNL     1       4.041  14.544  20.098  0.00  0.00    +0.000 A 
ATOM     21  C   UNL     1       4.402  15.801  20.602  0.00  0.00    +0.000 A 
ATOM     22  C   UNL     1       3.829  16.961  20.070  0.00  0.00    +0.000 A 
ATOM     23  C   UNL     1       2.917  16.870  19.023  0.00  0.00    +0.000 A 
ATOM     24  C   UNL     1       2.644  15.623  18.455  0.00  0.00    +0.000 A 
BRANCH  23  25
ATOM     25  O   UNL     1       2.324  18.032  18.582  0.00  0.00    +0.000 OA
BRANCH  25  26
ATOM     26  C   UNL     1       0.945  18.117  18.626  0.00  0.00    +0.000 A 
ATOM     27  C   UNL     1       0.183  17.870  19.774  0.00  0.00    +0.000 A 
ATOM     28  C   UNL     1      -1.210  17.902  19.717  0.00  0.00    +0.000 A 
ATOM     29  C   UNL     1      -1.846  18.248  18.527  0.00  0.00    +0.000 A 
ATOM     30  C   UNL     1      -1.089  18.562  17.396  0.00  0.00    +0.000 A 
ATOM     31  C   UNL     1       0.306  18.493  17.444  0.00  0.00    +0.000 A 
ENDBRANCH  25  26
ENDBRANCH  23  25
ENDBRANCH   5  19
BRANCH   7  32
ATOM     32  C   UNL     1      -1.348  10.625  18.456  0.00  0.00    +0.000 A 
ATOM     33  C   UNL     1      -1.531  11.600  17.460  0.00  0.00    +0.000 A 
ATOM     34  C   UNL     1      -2.655  11.570  16.629  0.00  0.00    +0.000 A 
ATOM     35  C   UNL     1      -3.611  10.569  16.783  0.00  0.00    +0.000 A 
ATOM     36  C   UNL     1      -3.440   9.587  17.754  0.00  0.00    +0.000 A 
ATOM     37  C   UNL     1      -2.313   9.607  18.578  0.00  0.00    +0.000 A 
ENDBRANCH   7  32
TORSDOF 6
ENDMDL
MODEL 8
REMARK VINA RESULT:      -6.9      1.135      1.620
REMARK  Name = 
REMARK  7 active torsions:
REMARK  status: ('A' for Active; 'I' for Inactive)
REMARK    1  A    between atoms: C_1  and  C_2
REMARK    2  A    between atoms: N_4  and  C_5
REMARK    3  A    between atoms: C_8  and  N_9
REMARK    4  A    between atoms: C_13  and  C_14
REMARK    5  A    between atoms: C_18  and  O_19
REMARK    6  A    between atoms: O_19  and  C_20
REMARK    7  A    between atoms: C_28  and  C_29
REMARK                            x       y       z     vdW  Elec       q    Type
REMARK                         _______ _______ _______ _____ _____    ______ ____
ROOT
ATOM      1  N   UNL     1      -1.907  14.318  21.892  0.00  0.00    +0.000 N 
ATOM      2  C   UNL     1      -3.188  13.967  22.300  0.00  0.00    +0.000 C 
ATOM      3  O   UNL     1      -3.645  12.832  22.301  0.00  0.00    +0.000 OA
ATOM      4  C   UNL     1      -3.945  15.178  22.709  0.00  0.00    +0.000 C 
ATOM      5  C   UNL     1      -5.276  15.247  22.832  0.00  0.00    +0.000 C 
ATOM      6  S   UNL     1      -2.902  16.534  22.945  0.00  0.00    +0.000 S 
ATOM      7  C   UNL     1      -1.490  15.689  22.121  0.00  0.00    +0.000 C 
ENDROOT
BRANCH   1  11
ATOM      8  C   UNL     1       0.158  11.690  19.323  0.00  0.00    +0.000 A 
ATOM      9  C   UNL     1      -1.130  12.124  19.022  0.00  0.00    +0.000 A 
ATOM     10  C   UNL     1      -1.803  12.978  19.890  0.00  0.00    +0.000 A 
ATOM     11  C   UNL     1      -1.181  13.448  21.054  0.00  0.00    +0.000 A 
ATOM     12  C   UNL     1       0.110  13.037  21.356  0.00  0.00    +0.000 A 
ATOM     13  C   UNL     1       0.762  12.122  20.512  0.00  0.00    +0.000 A 
BRANCH   8  17
ATOM     14  C   UNL     1       2.116   8.880  17.753  0.00  0.00    +0.000 C 
ATOM     15  C   UNL     1       1.273   9.522  18.821  0.00  0.00    +0.000 C 
ATOM     16  O   UNL     1       1.015   8.914  19.855  0.00  0.00    +0.000 OA
ATOM     17  N   UNL     1       0.863  10.802  18.485  0.00  0.00    +0.000 N 
ATOM     18  H   UNL     1       1.006  11.101  17.529  0.00  0.00    +0.000 HD
ENDBRANCH   8  17
ENDBRANCH   1  11
BRANCH   5  19
ATOM     19  C   UNL     1      -6.176  14.092  22.808  0.00  0.00    +0.000 A 
ATOM     20  C   UNL     1      -6.496  13.321  23.924  0.00  0.00    +0.000 A 
ATOM     21  C   UNL     1      -7.343  12.214  23.785  0.00  0.00    +0.000 A 
ATOM     22  C   UNL     1      -7.822  11.851  22.523  0.00  0.00    +0.000 A 
ATOM     23  C   UNL     1      -7.480  12.605  21.404  0.00  0.00    +0.000 A 
ATOM     24  C   UNL     1      -6.725  13.769  21.565  0.00  0.00    +0.000 A 
BRANCH  23  25
ATOM     25  O   UNL     1      -7.916  12.168  20.174  0.00  0.00    +0.000 OA
BRANCH  25  26
ATOM     26  C   UNL     1      -7.006  12.134  19.134  0.00  0.00    +0.000 A 
ATOM     27  C   UNL     1      -7.080  12.959  18.005  0.00  0.00    +0.000 A 
ATOM     28  C   UNL     1      -6.166  12.811  16.962  0.00  0.00    +0.000 A 
ATOM     29  C   UNL     1      -5.133  11.883  17.073  0.00  0.00    +0.000 A 
ATOM     30  C   UNL     1      -5.014  11.105  18.227  0.00  0.00    +0.000 A 
ATOM     31  C   UNL     1      -5.952  11.228  19.256  0.00  0.00    +0.000 A 
ENDBRANCH  25  26
ENDBRANCH  23  25
ENDBRANCH   5  19
BRANCH   7  32
ATOM     32  C   UNL     1      -1.092  16.471  20.878  0.00  0.00    +0.000 A 
ATOM     33  C   UNL     1       0.261  16.779  20.653  0.00  0.00    +0.000 A 
ATOM     34  C   UNL     1       0.644  17.554  19.555  0.00  0.00    +0.000 A 
ATOM     35  C   UNL     1      -0.317  18.034  18.669  0.00  0.00    +0.000 A 
ATOM     36  C   UNL     1      -1.661  17.729  18.867  0.00  0.00    +0.000 A 
ATOM     37  C   UNL     1      -2.045  16.945  19.956  0.00  0.00    +0.000 A 
ENDBRANCH   7  32
TORSDOF 6
ENDMDL
MODEL 9
REMARK VINA RESULT:      -6.9      1.942      2.659
REMARK  Name = 
REMARK  7 active torsions:
REMARK  status: ('A' for Active; 'I' for Inactive)
REMARK    1  A    between atoms: C_1  and  C_2
REMARK    2  A    between atoms: N_4  and  C_5
REMARK    3  A    between atoms: C_8  and  N_9
REMARK    4  A    between atoms: C_13  and  C_14
REMARK    5  A    between atoms: C_18  and  O_19
REMARK    6  A    between atoms: O_19  and  C_20
REMARK    7  A    between atoms: C_28  and  C_29
REMARK                            x       y       z     vdW  Elec       q    Type
REMARK                         _______ _______ _______ _____ _____    ______ ____
ROOT
ATOM      1  N   UNL     1      -0.295  12.300  21.115  0.00  0.00    +0.000 N 
ATOM      2  C   UNL     1      -1.679  12.395  21.190  0.00  0.00    +0.000 C 
ATOM      3  O   UNL     1      -2.465  11.481  20.974  0.00  0.00    +0.000 OA
ATOM      4  C   UNL     1      -2.080  13.783  21.539  0.00  0.00    +0.000 C 
ATOM      5  C   UNL     1      -3.304  14.294  21.368  0.00  0.00    +0.000 C 
ATOM      6  S   UNL     1      -0.745  14.700  22.138  0.00  0.00    +0.000 S 
ATOM      7  C   UNL     1       0.474  13.444  21.569  0.00  0.00    +0.000 C 
ENDROOT
BRANCH   1  11
ATOM      8  C   UNL     1       1.502   9.117  19.014  0.00  0.00    +0.000 A 
ATOM      9  C   UNL     1       1.348   9.070  20.397  0.00  0.00    +0.000 A 
ATOM     10  C   UNL     1       0.769  10.137  21.077  0.00  0.00    +0.000 A 
ATOM     11  C   UNL     1       0.292  11.252  20.377  0.00  0.00    +0.000 A 
ATOM     12  C   UNL     1       0.422  11.305  18.996  0.00  0.00    +0.000 A 
ATOM     13  C   UNL     1       1.068  10.255  18.321  0.00  0.00    +0.000 A 
BRANCH   8  17
ATOM     14  C   UNL     1       3.306   6.036  17.813  0.00  0.00    +0.000 C 
ATOM     15  C   UNL     1       2.600   6.893  18.829  0.00  0.00    +0.000 C 
ATOM     16  O   UNL     1       2.508   6.519  19.995  0.00  0.00    +0.000 OA
ATOM     17  N   UNL     1       2.110   8.070  18.292  0.00  0.00    +0.000 N 
ATOM     18  H   UNL     1       2.108   8.158  17.283  0.00  0.00    +0.000 HD
ENDBRANCH   8  17
ENDBRANCH   1  11
BRANCH   5  19
ATOM     19  C   UNL     1      -4.494  13.513  21.027  0.00  0.00    +0.000 A 
ATOM     20  C   UNL     1      -5.446  13.086  21.952  0.00  0.00    +0.000 A 
ATOM     21  C   UNL     1      -6.533  12.312  21.525  0.00  0.00    +0.000 A 
ATOM     22  C   UNL     1      -6.634  11.924  20.185  0.00  0.00    +0.000 A 
ATOM     23  C   UNL     1      -5.668  12.327  19.268  0.00  0.00    +0.000 A 
ATOM     24  C   UNL     1      -4.647  13.187  19.678  0.00  0.00    +0.000 A 
BRANCH  23  25
ATOM     25  O   UNL     1      -5.771  11.860  17.977  0.00  0.00    +0.000 OA
BRANCH  25  26
ATOM     26  C   UNL     1      -4.686  11.195  17.436  0.00  0.00    +0.000 A 
ATOM     27  C   UNL     1      -3.956  10.211  18.114  0.00  0.00    +0.000 A 
ATOM     28  C   UNL     1      -2.827   9.642  17.528  0.00  0.00    +0.000 A 
ATOM     29  C   UNL     1      -2.461  10.004  16.234  0.00  0.00    +0.000 A 
ATOM     30  C   UNL     1      -3.225  10.935  15.527  0.00  0.00    +0.000 A 
ATOM     31  C   UNL     1      -4.336  11.533  16.128  0.00  0.00    +0.000 A 
ENDBRANCH  25  26
ENDBRANCH  23  25
ENDBRANCH   5  19
BRANCH   7  32
ATOM     32  C   UNL     1       1.394  14.070  20.532  0.00  0.00    +0.000 A 
ATOM     33  C   UNL     1       0.855  14.908  19.540  0.00  0.00    +0.000 A 
ATOM     34  C   UNL     1       1.670  15.441  18.536  0.00  0.00    +0.000 A 
ATOM     35  C   UNL     1       3.029  15.143  18.507  0.00  0.00    +0.000 A 
ATOM     36  C   UNL     1       3.584  14.326  19.489  0.00  0.00    +0.000 A 
ATOM     37  C   UNL     1       2.776  13.802  20.500  0.00  0.00    +0.000 A 
ENDBRANCH   7  32
TORSDOF 6
ENDMDL
