MODEL 1
REMARK VINA RESULT:      -8.0      0.000      0.000
REMARK  Name = 
REMARK  2 active torsions:
REMARK  status: ('A' for Active; 'I' for Inactive)
REMARK    1  A    between atoms: C_5  and  O_6
REMARK    2  A    between atoms: O_6  and  C_7
REMARK                            x       y       z     vdW  Elec       q    Type
REMARK                         _______ _______ _______ _____ _____    ______ ____
ROOT
ATOM      1  O   UNL     1       3.438   5.017  17.671  0.00  0.00    +0.000 OA
ENDROOT
BRANCH   1   2
ATOM      2  C   UNL     1       4.819   5.093  17.788  0.00  0.00    +0.000 A 
ATOM      3  N   UNL     1       5.395   5.415  18.980  0.00  0.00    +0.000 NA
ATOM      4  C   UNL     1       6.745   5.476  19.074  0.00  0.00    +0.000 A 
ATOM      5  C   UNL     1       7.625   5.244  18.033  0.00  0.00    +0.000 A 
ATOM      6  C   UNL     1       7.000   4.954  16.831  0.00  0.00    +0.000 A 
ATOM      7  O   UNL     1       7.634   4.699  15.653  0.00  0.00    +0.000 OA
ATOM      8  C   UNL     1       6.668   4.467  14.725  0.00  0.00    +0.000 A 
ATOM      9  C   UNL     1       5.419   4.566  15.293  0.00  0.00    +0.000 A 
ATOM     10  C   UNL     1       5.624   4.878  16.664  0.00  0.00    +0.000 A 
ENDBRANCH   1   2
BRANCH   1  15
ATOM     11  F   UNL     1       0.779   2.533  21.788  0.00  0.00    +0.000 F 
ATOM     12  C   UNL     1       1.415   3.155  20.788  0.00  0.00    +0.000 A 
ATOM     13  C   UNL     1       1.466   4.545  20.770  0.00  0.00    +0.000 A 
ATOM     14  C   UNL     1       2.135   5.200  19.735  0.00  0.00    +0.000 A 
ATOM     15  C   UNL     1       2.724   4.458  18.705  0.00  0.00    +0.000 A 
ATOM     16  C   UNL     1       2.679   3.062  18.759  0.00  0.00    +0.000 A 
ATOM     17  F   UNL     1       3.282   2.332  17.808  0.00  0.00    +0.000 F 
ATOM     18  C   UNL     1       2.025   2.402  19.793  0.00  0.00    +0.000 A 
ENDBRANCH   1  15
TORSDOF 2
ENDMDL
MODEL 2
REMARK VINA RESULT:      -8.0      1.130      1.427
REMARK  Name = 
REMARK  2 active torsions:
REMARK  status: ('A' for Active; 'I' for Inactive)
REMARK    1  A    between atoms: C_5  and  O_6
REMARK    2  A    between atoms: O_6  and  C_7
REMARK                            x       y       z     vdW  Elec       q    Type
REMARK                         _______ _______ _______ _____ _____    ______ ____
ROOT
ATOM      1  O   UNL     1       4.269   3.214  17.877  0.00  0.00    +0.000 OA
ENDROOT
BRANCH   1   2
ATOM      2  C   UNL     1       5.323   4.117  17.907  0.00  0.00    +0.000 A 
ATOM      3  N   UNL     1       5.710   4.689  19.082  0.00  0.00    +0.000 NA
ATOM      4  C   UNL     1       6.746   5.560  19.090  0.00  0.00    +0.000 A 
ATOM      5  C   UNL     1       7.468   5.948  17.976  0.00  0.00    +0.000 A 
ATOM      6  C   UNL     1       7.023   5.371  16.798  0.00  0.00    +0.000 A 
ATOM      7  O   UNL     1       7.549   5.593  15.562  0.00  0.00    +0.000 OA
ATOM      8  C   UNL     1       6.830   4.845  14.684  0.00  0.00    +0.000 A 
ATOM      9  C   UNL     1       5.847   4.141  15.341  0.00  0.00    +0.000 A 
ATOM     10  C   UNL     1       5.967   4.473  16.718  0.00  0.00    +0.000 A 
ENDBRANCH   1   2
BRANCH   1  15
ATOM     11  F   UNL     1       0.816   2.754  22.127  0.00  0.00    +0.000 F 
ATOM     12  C   UNL     1       1.674   2.865  21.105  0.00  0.00    +0.000 A 
ATOM     13  C   UNL     1       2.970   2.377  21.243  0.00  0.00    +0.000 A 
ATOM     14  C   UNL     1       3.866   2.483  20.178  0.00  0.00    +0.000 A 
ATOM     15  C   UNL     1       3.468   3.106  18.990  0.00  0.00    +0.000 A 
ATOM     16  C   UNL     1       2.154   3.566  18.868  0.00  0.00    +0.000 A 
ATOM     17  F   UNL     1       1.739   4.120  17.719  0.00  0.00    +0.000 F 
ATOM     18  C   UNL     1       1.252   3.454  19.920  0.00  0.00    +0.000 A 
ENDBRANCH   1  15
TORSDOF 2
ENDMDL
MODEL 3
REMARK VINA RESULT:      -7.9      1.080      1.569
REMARK  Name = 
REMARK  2 active torsions:
REMARK  status: ('A' for Active; 'I' for Inactive)
REMARK    1  A    between atoms: C_5  and  O_6
REMARK    2  A    between atoms: O_6  and  C_7
REMARK                            x       y       z     vdW  Elec       q    Type
REMARK                         _______ _______ _______ _____ _____    ______ ____
ROOT
ATOM      1  O   UNL     1       3.463   4.874  17.742  0.00  0.00    +0.000 OA
ENDROOT
BRANCH   1   2
ATOM      2  C   UNL     1       4.842   5.016  17.803  0.00  0.00    +0.000 A 
ATOM      3  N   UNL     1       5.446   5.407  18.960  0.00  0.00    +0.000 NA
ATOM      4  C   UNL     1       6.794   5.531  19.000  0.00  0.00    +0.000 A 
ATOM      5  C   UNL     1       7.645   5.301  17.934  0.00  0.00    +0.000 A 
ATOM      6  C   UNL     1       6.990   4.939  16.769  0.00  0.00    +0.000 A 
ATOM      7  O   UNL     1       7.591   4.669  15.577  0.00  0.00    +0.000 OA
ATOM      8  C   UNL     1       6.604   4.360  14.695  0.00  0.00    +0.000 A 
ATOM      9  C   UNL     1       5.373   4.424  15.307  0.00  0.00    +0.000 A 
ATOM     10  C   UNL     1       5.614   4.796  16.657  0.00  0.00    +0.000 A 
ENDBRANCH   1   2
BRANCH   1  15
ATOM     11  F   UNL     1       0.712   2.530  21.881  0.00  0.00    +0.000 F 
ATOM     12  C   UNL     1       1.393   3.084  20.870  0.00  0.00    +0.000 A 
ATOM     13  C   UNL     1       1.992   2.263  19.919  0.00  0.00    +0.000 A 
ATOM     14  C   UNL     1       2.698   2.835  18.859  0.00  0.00    +0.000 A 
ATOM     15  C   UNL     1       2.825   4.226  18.774  0.00  0.00    +0.000 A 
ATOM     16  C   UNL     1       2.194   5.028  19.728  0.00  0.00    +0.000 A 
ATOM     17  F   UNL     1       2.261   6.364  19.635  0.00  0.00    +0.000 F 
ATOM     18  C   UNL     1       1.480   4.467  20.781  0.00  0.00    +0.000 A 
ENDBRANCH   1  15
TORSDOF 2
ENDMDL
MODEL 4
REMARK VINA RESULT:      -7.9      1.769      1.861
REMARK  Name = 
REMARK  2 active torsions:
REMARK  status: ('A' for Active; 'I' for Inactive)
REMARK    1  A    between atoms: C_5  and  O_6
REMARK    2  A    between atoms: O_6  and  C_7
REMARK                            x       y       z     vdW  Elec       q    Type
REMARK                         _______ _______ _______ _____ _____    ______ ____
ROOT
ATOM      1  O   UNL     1       3.488   3.199  17.405  0.00  0.00    +0.000 OA
ENDROOT
BRANCH   1   2
ATOM      2  C   UNL     1       4.027   4.451  17.146  0.00  0.00    +0.000 A 
ATOM      3  N   UNL     1       3.500   5.564  17.729  0.00  0.00    +0.000 NA
ATOM      4  C   UNL     1       4.047   6.775  17.471  0.00  0.00    +0.000 A 
ATOM      5  C   UNL     1       5.123   6.998  16.630  0.00  0.00    +0.000 A 
ATOM      6  C   UNL     1       5.608   5.847  16.032  0.00  0.00    +0.000 A 
ATOM      7  O   UNL     1       6.649   5.792  15.155  0.00  0.00    +0.000 OA
ATOM      8  C   UNL     1       6.801   4.488  14.803  0.00  0.00    +0.000 A 
ATOM      9  C   UNL     1       5.873   3.702  15.445  0.00  0.00    +0.000 A 
ATOM     10  C   UNL     1       5.094   4.577  16.250  0.00  0.00    +0.000 A 
ENDBRANCH   1   2
BRANCH   1  15
ATOM     11  F   UNL     1       0.928   2.591  22.229  0.00  0.00    +0.000 F 
ATOM     12  C   UNL     1       1.534   2.733  21.044  0.00  0.00    +0.000 A 
ATOM     13  C   UNL     1       0.768   2.992  19.911  0.00  0.00    +0.000 A 
ATOM     14  C   UNL     1       1.395   3.150  18.673  0.00  0.00    +0.000 A 
ATOM     15  C   UNL     1       2.785   3.017  18.573  0.00  0.00    +0.000 A 
ATOM     16  C   UNL     1       3.533   2.780  19.729  0.00  0.00    +0.000 A 
ATOM     17  F   UNL     1       4.870   2.701  19.661  0.00  0.00    +0.000 F 
ATOM     18  C   UNL     1       2.917   2.634  20.967  0.00  0.00    +0.000 A 
ENDBRANCH   1  15
TORSDOF 2
ENDMDL
MODEL 5
REMARK VINA RESULT:      -7.8      1.422      1.482
REMARK  Name = 
REMARK  2 active torsions:
REMARK  status: ('A' for Active; 'I' for Inactive)
REMARK    1  A    between atoms: C_5  and  O_6
REMARK    2  A    between atoms: O_6  and  C_7
REMARK                            x       y       z     vdW  Elec       q    Type
REMARK                         _______ _______ _______ _____ _____    ______ ____
ROOT
ATOM      1  O   UNL     1       5.398   3.402  19.147  0.00  0.00    +0.000 OA
ENDROOT
BRANCH   1   2
ATOM      2  C   UNL     1       6.056   4.459  18.534  0.00  0.00    +0.000 A 
ATOM      3  N   UNL     1       6.838   5.302  19.265  0.00  0.00    +0.000 NA
ATOM      4  C   UNL     1       7.479   6.322  18.646  0.00  0.00    +0.000 A 
ATOM      5  C   UNL     1       7.402   6.605  17.294  0.00  0.00    +0.000 A 
ATOM      6  C   UNL     1       6.572   5.746  16.593  0.00  0.00    +0.000 A 
ATOM      7  O   UNL     1       6.314   5.813  15.258  0.00  0.00    +0.000 OA
ATOM      8  C   UNL     1       5.455   4.800  14.969  0.00  0.00    +0.000 A 
ATOM      9  C   UNL     1       5.159   4.079  16.102  0.00  0.00    +0.000 A 
ATOM     10  C   UNL     1       5.885   4.684  17.164  0.00  0.00    +0.000 A 
ENDBRANCH   1   2
BRANCH   1  15
ATOM     11  F   UNL     1      -0.049   3.435  19.871  0.00  0.00    +0.000 F 
ATOM     12  C   UNL     1       1.278   3.447  19.694  0.00  0.00    +0.000 A 
ATOM     13  C   UNL     1       2.011   4.557  20.104  0.00  0.00    +0.000 A 
ATOM     14  C   UNL     1       3.397   4.573  19.930  0.00  0.00    +0.000 A 
ATOM     15  C   UNL     1       4.036   3.489  19.318  0.00  0.00    +0.000 A 
ATOM     16  C   UNL     1       3.280   2.377  18.938  0.00  0.00    +0.000 A 
ATOM     17  F   UNL     1       3.881   1.307  18.397  0.00  0.00    +0.000 F 
ATOM     18  C   UNL     1       1.902   2.348  19.118  0.00  0.00    +0.000 A 
ENDBRANCH   1  15
TORSDOF 2
ENDMDL
MODEL 6
REMARK VINA RESULT:      -7.8      1.722      1.897
REMARK  Name = 
REMARK  2 active torsions:
REMARK  status: ('A' for Active; 'I' for Inactive)
REMARK    1  A    between atoms: C_5  and  O_6
REMARK    2  A    between atoms: O_6  and  C_7
REMARK                            x       y       z     vdW  Elec       q    Type
REMARK                         _______ _______ _______ _____ _____    ______ ____
ROOT
ATOM      1  O   UNL     1       3.454   3.341  17.470  0.00  0.00    +0.000 OA
ENDROOT
BRANCH   1   2
ATOM      2  C   UNL     1       4.081   4.547  17.188  0.00  0.00    +0.000 A 
ATOM      3  N   UNL     1       3.669   5.697  17.791  0.00  0.00    +0.000 NA
ATOM      4  C   UNL     1       4.300   6.861  17.509  0.00  0.00    +0.000 A 
ATOM      5  C   UNL     1       5.354   7.000  16.625  0.00  0.00    +0.000 A 
ATOM      6  C   UNL     1       5.721   5.815  16.008  0.00  0.00    +0.000 A 
ATOM      7  O   UNL     1       6.717   5.679  15.089  0.00  0.00    +0.000 OA
ATOM      8  C   UNL     1       6.750   4.368  14.732  0.00  0.00    +0.000 A 
ATOM      9  C   UNL     1       5.789   3.657  15.413  0.00  0.00    +0.000 A 
ATOM     10  C   UNL     1       5.116   4.589  16.249  0.00  0.00    +0.000 A 
ENDBRANCH   1   2
BRANCH   1  15
ATOM     11  F   UNL     1       1.010   2.540  22.326  0.00  0.00    +0.000 F 
ATOM     12  C   UNL     1       1.623   2.738  21.152  0.00  0.00    +0.000 A 
ATOM     13  C   UNL     1       2.991   2.502  21.047  0.00  0.00    +0.000 A 
ATOM     14  C   UNL     1       3.635   2.699  19.825  0.00  0.00    +0.000 A 
ATOM     15  C   UNL     1       2.911   3.161  18.720  0.00  0.00    +0.000 A 
ATOM     16  C   UNL     1       1.535   3.368  18.846  0.00  0.00    +0.000 A 
ATOM     17  F   UNL     1       0.814   3.763  17.785  0.00  0.00    +0.000 F 
ATOM     18  C   UNL     1       0.883   3.163  20.057  0.00  0.00    +0.000 A 
ENDBRANCH   1  15
TORSDOF 2
ENDMDL
MODEL 7
REMARK VINA RESULT:      -7.7      1.420      1.584
REMARK  Name = 
REMARK  2 active torsions:
REMARK  status: ('A' for Active; 'I' for Inactive)
REMARK    1  A    between atoms: C_5  and  O_6
REMARK    2  A    between atoms: O_6  and  C_7
REMARK                            x       y       z     vdW  Elec       q    Type
REMARK                         _______ _______ _______ _____ _____    ______ ____
ROOT
ATOM      1  O   UNL     1       4.993   3.072  18.184  0.00  0.00    +0.000 OA
ENDROOT
BRANCH   1   2
ATOM      2  C   UNL     1       5.860   4.145  18.032  0.00  0.00    +0.000 A 
ATOM      3  N   UNL     1       6.262   4.867  19.115  0.00  0.00    +0.000 NA
ATOM      4  C   UNL     1       7.115   5.905  18.945  0.00  0.00    +0.000 A 
ATOM      5  C   UNL     1       7.627   6.322  17.730  0.00  0.00    +0.000 A 
ATOM      6  C   UNL     1       7.169   5.584  16.652  0.00  0.00    +0.000 A 
ATOM      7  O   UNL     1       7.507   5.796  15.349  0.00  0.00    +0.000 OA
ATOM      8  C   UNL     1       6.845   4.866  14.612  0.00  0.00    +0.000 A 
ATOM      9  C   UNL     1       6.086   4.056  15.424  0.00  0.00    +0.000 A 
ATOM     10  C   UNL     1       6.293   4.512  16.754  0.00  0.00    +0.000 A 
ENDBRANCH   1   2
BRANCH   1  15
ATOM     11  F   UNL     1       0.067   4.055  20.413  0.00  0.00    +0.000 F 
ATOM     12  C   UNL     1       1.259   3.817  19.851  0.00  0.00    +0.000 A 
ATOM     13  C   UNL     1       1.515   4.288  18.566  0.00  0.00    +0.000 A 
ATOM     14  C   UNL     1       2.758   4.050  17.978  0.00  0.00    +0.000 A 
ATOM     15  C   UNL     1       3.729   3.315  18.668  0.00  0.00    +0.000 A 
ATOM     16  C   UNL     1       3.455   2.874  19.966  0.00  0.00    +0.000 A 
ATOM     17  F   UNL     1       4.390   2.213  20.664  0.00  0.00    +0.000 F 
ATOM     18  C   UNL     1       2.223   3.117  20.563  0.00  0.00    +0.000 A 
ENDBRANCH   1  15
TORSDOF 2
ENDMDL
MODEL 8
REMARK VINA RESULT:      -7.7      1.411      1.533
REMARK  Name = 
REMARK  2 active torsions:
REMARK  status: ('A' for Active; 'I' for Inactive)
REMARK    1  A    between atoms: C_5  and  O_6
REMARK    2  A    between atoms: O_6  and  C_7
REMARK                            x       y       z     vdW  Elec       q    Type
REMARK                         _______ _______ _______ _____ _____    ______ ____
ROOT
ATOM      1  O   UNL     1       4.465   2.940  16.904  0.00  0.00    +0.000 OA
ENDROOT
BRANCH   1   2
ATOM      2  C   UNL     1       5.398   3.960  17.017  0.00  0.00    +0.000 A 
ATOM      3  N   UNL     1       5.607   4.577  18.214  0.00  0.00    +0.000 NA
ATOM      4  C   UNL     1       6.529   5.564  18.304  0.00  0.00    +0.000 A 
ATOM      5  C   UNL     1       7.299   6.031  17.255  0.00  0.00    +0.000 A 
ATOM      6  C   UNL     1       7.033   5.403  16.049  0.00  0.00    +0.000 A 
ATOM      7  O   UNL     1       7.641   5.682  14.862  0.00  0.00    +0.000 OA
ATOM      8  C   UNL     1       7.097   4.853  13.933  0.00  0.00    +0.000 A 
ATOM      9  C   UNL     1       6.147   4.040  14.508  0.00  0.00    +0.000 A 
ATOM     10  C   UNL     1       6.101   4.387  15.886  0.00  0.00    +0.000 A 
ENDBRANCH   1   2
BRANCH   1  15
ATOM     11  F   UNL     1       0.014   3.069  20.125  0.00  0.00    +0.000 F 
ATOM     12  C   UNL     1       1.090   3.051  19.328  0.00  0.00    +0.000 A 
ATOM     13  C   UNL     1       1.358   4.150  18.517  0.00  0.00    +0.000 A 
ATOM     14  C   UNL     1       2.482   4.141  17.689  0.00  0.00    +0.000 A 
ATOM     15  C   UNL     1       3.315   3.017  17.655  0.00  0.00    +0.000 A 
ATOM     16  C   UNL     1       3.037   1.937  18.496  0.00  0.00    +0.000 A 
ATOM     17  F   UNL     1       3.853   0.872  18.516  0.00  0.00    +0.000 F 
ATOM     18  C   UNL     1       1.926   1.943  19.333  0.00  0.00    +0.000 A 
ENDBRANCH   1  15
TORSDOF 2
ENDMDL
MODEL 9
REMARK VINA RESULT:      -7.6      1.760      2.414
REMARK  Name = 
REMARK  2 active torsions:
REMARK  status: ('A' for Active; 'I' for Inactive)
REMARK    1  A    between atoms: C_5  and  O_6
REMARK    2  A    between atoms: O_6  and  C_7
REMARK                            x       y       z     vdW  Elec       q    Type
REMARK                         _______ _______ _______ _____ _____    ______ ____
ROOT
ATOM      1  O   UNL     1       3.224   5.562  17.450  0.00  0.00    +0.000 OA
ENDROOT
BRANCH   1   2
ATOM      2  C   UNL     1       4.435   5.167  16.901  0.00  0.00    +0.000 A 
ATOM      3  N   UNL     1       4.555   3.954  16.293  0.00  0.00    +0.000 NA
ATOM      4  C   UNL     1       5.743   3.591  15.755  0.00  0.00    +0.000 A 
ATOM      5  C   UNL     1       6.893   4.360  15.777  0.00  0.00    +0.000 A 
ATOM      6  C   UNL     1       6.739   5.570  16.433  0.00  0.00    +0.000 A 
ATOM      7  O   UNL     1       7.716   6.503  16.606  0.00  0.00    +0.000 OA
ATOM      8  C   UNL     1       7.161   7.533  17.298  0.00  0.00    +0.000 A 
ATOM      9  C   UNL     1       5.837   7.276  17.570  0.00  0.00    +0.000 A 
ATOM     10  C   UNL     1       5.552   6.002  17.007  0.00  0.00    +0.000 A 
ENDBRANCH   1   2
BRANCH   1  15
ATOM     11  F   UNL     1       0.920   2.554  21.430  0.00  0.00    +0.000 F 
ATOM     12  C   UNL     1       1.476   3.272  20.446  0.00  0.00    +0.000 A 
ATOM     13  C   UNL     1       1.027   3.105  19.140  0.00  0.00    +0.000 A 
ATOM     14  C   UNL     1       1.597   3.857  18.111  0.00  0.00    +0.000 A 
ATOM     15  C   UNL     1       2.636   4.751  18.393  0.00  0.00    +0.000 A 
ATOM     16  C   UNL     1       3.052   4.918  19.716  0.00  0.00    +0.000 A 
ATOM     17  F   UNL     1       4.011   5.808  20.013  0.00  0.00    +0.000 F 
ATOM     18  C   UNL     1       2.482   4.181  20.748  0.00  0.00    +0.000 A 
ENDBRANCH   1  15
TORSDOF 2
ENDMDL
