MODEL 1
REMARK VINA RESULT:      -8.0      0.000      0.000
REMARK  Name = 
REMARK  5 active torsions:
REMARK  status: ('A' for Active; 'I' for Inactive)
REMARK    1  A    between atoms: C_1  and  C_2
REMARK    2  A    between atoms: C_5  and  N_6
REMARK    3  A    between atoms: C_7  and  C_9
REMARK    4  A    between atoms: N_17  and  C_18
REMARK    5  A    between atoms: C_25  and  C_26
REMARK                            x       y       z     vdW  Elec       q    Type
REMARK                         _______ _______ _______ _____ _____    ______ ____
ROOT
ATOM      1  C   UNL     1       7.364   6.765  17.944  0.00  0.00    +0.000 A 
ATOM      2  C   UNL     1       7.747   6.130  16.758  0.00  0.00    +0.000 A 
ATOM      3  C   UNL     1       6.748   5.785  15.842  0.00  0.00    +0.000 A 
ATOM      4  C   UNL     1       5.410   6.114  16.111  0.00  0.00    +0.000 A 
ATOM      5  C   UNL     1       5.071   6.589  17.383  0.00  0.00    +0.000 A 
ATOM      6  C   UNL     1       6.046   6.518  18.363  0.00  0.00    +0.000 A 
ATOM      7  C   UNL     1       5.488   5.251  19.057  0.00  0.00    +0.000 C 
ATOM      8  O   UNL     1       6.181   4.377  19.547  0.00  0.00    +0.000 OA
ATOM      9  N   UNL     1       4.068   5.232  18.861  0.00  0.00    +0.000 N 
ATOM     10  C   UNL     1       3.758   6.385  18.050  0.00  0.00    +0.000 C 
ENDROOT
BRANCH   9  11
ATOM     11  C   UNL     1       3.168   4.058  18.673  0.00  0.00    +0.000 C 
ATOM     12  C   UNL     1       3.432   2.770  19.455  0.00  0.00    +0.000 C 
ATOM     13  C   UNL     1       3.104   2.886  20.938  0.00  0.00    +0.000 C 
ATOM     14  C   UNL     1       1.701   3.432  21.204  0.00  0.00    +0.000 C 
ATOM     15  C   UNL     1       1.354   4.655  20.362  0.00  0.00    +0.000 C 
ATOM     16  C   UNL     1       1.683   4.449  18.886  0.00  0.00    +0.000 C 
ENDBRANCH   9  11
BRANCH   1  18
ATOM     17  N   UNL     1       8.636   8.779  18.864  0.00  0.00    +0.000 N 
ATOM     18  C   UNL     1       7.691   8.289  17.946  0.00  0.00    +0.000 C 
ATOM     19  O   UNL     1       7.122   8.995  17.115  0.00  0.00    +0.000 OA
ATOM     20  H   UNL     1       8.902   8.165  19.616  0.00  0.00    +0.000 HD
BRANCH  17  25
ATOM     21  C   UNL     1      11.577  13.803  18.931  0.00  0.00    +0.000 C 
ATOM     22  C   UNL     1      10.776  12.532  18.886  0.00  0.00    +0.000 A 
ATOM     23  C   UNL     1      10.589  11.811  17.704  0.00  0.00    +0.000 A 
ATOM     24  C   UNL     1       9.861  10.604  17.695  0.00  0.00    +0.000 A 
ATOM     25  C   UNL     1       9.286  10.062  18.852  0.00  0.00    +0.000 A 
ATOM     26  C   UNL     1       9.442  10.814  20.048  0.00  0.00    +0.000 A 
ATOM     27  C   UNL     1       8.818  10.462  21.372  0.00  0.00    +0.000 C 
ATOM     28  C   UNL     1      10.182  12.028  20.042  0.00  0.00    +0.000 A 
ENDBRANCH  17  25
ENDBRANCH   1  18
TORSDOF 3
ENDMDL
MODEL 2
REMARK VINA RESULT:      -7.7      8.230     10.634
REMARK  Name = 
REMARK  5 active torsions:
REMARK  status: ('A' for Active; 'I' for Inactive)
REMARK    1  A    between atoms: C_1  and  C_2
REMARK    2  A    between atoms: C_5  and  N_6
REMARK    3  A    between atoms: C_7  and  C_9
REMARK    4  A    between atoms: N_17  and  C_18
REMARK    5  A    between atoms: C_25  and  C_26
REMARK                            x       y       z     vdW  Elec       q    Type
REMARK                         _______ _______ _______ _____ _____    ______ ____
ROOT
ATOM      1  C   UNL     1      -1.367  12.103  18.936  0.00  0.00    +0.000 A 
ATOM      2  C   UNL     1      -0.594  13.253  18.745  0.00  0.00    +0.000 A 
ATOM      3  C   UNL     1      -0.044  13.873  19.872  0.00  0.00    +0.000 A 
ATOM      4  C   UNL     1      -0.246  13.315  21.144  0.00  0.00    +0.000 A 
ATOM      5  C   UNL     1      -1.166  12.270  21.288  0.00  0.00    +0.000 A 
ATOM      6  C   UNL     1      -1.970  11.984  20.199  0.00  0.00    +0.000 A 
ATOM      7  C   UNL     1      -3.228  12.716  20.728  0.00  0.00    +0.000 C 
ATOM      8  O   UNL     1      -4.009  13.332  20.023  0.00  0.00    +0.000 OA
ATOM      9  N   UNL     1      -3.193  12.670  22.160  0.00  0.00    +0.000 N 
ATOM     10  C   UNL     1      -1.965  11.999  22.512  0.00  0.00    +0.000 C 
ENDROOT
BRANCH   9  11
ATOM     11  C   UNL     1      -3.665  13.692  23.138  0.00  0.00    +0.000 C 
ATOM     12  C   UNL     1      -4.909  14.524  22.820  0.00  0.00    +0.000 C 
ATOM     13  C   UNL     1      -6.205  13.729  22.904  0.00  0.00    +0.000 C 
ATOM     14  C   UNL     1      -6.359  12.961  24.217  0.00  0.00    +0.000 C 
ATOM     15  C   UNL     1      -5.102  12.204  24.629  0.00  0.00    +0.000 C 
ATOM     16  C   UNL     1      -3.852  13.076  24.549  0.00  0.00    +0.000 C 
ENDBRANCH   9  11
BRANCH   1  18
ATOM     17  N   UNL     1       0.688  10.590  19.009  0.00  0.00    +0.000 N 
ATOM     18  C   UNL     1      -0.618  10.798  18.531  0.00  0.00    +0.000 C 
ATOM     19  O   UNL     1      -1.222   9.989  17.830  0.00  0.00    +0.000 OA
ATOM     20  H   UNL     1       1.158  11.382  19.414  0.00  0.00    +0.000 HD
BRANCH  17  25
ATOM     21  C   UNL     1       3.415   5.447  18.873  0.00  0.00    +0.000 C 
ATOM     22  C   UNL     1       2.761   6.800  18.912  0.00  0.00    +0.000 A 
ATOM     23  C   UNL     1       2.826   7.690  17.836  0.00  0.00    +0.000 A 
ATOM     24  C   UNL     1       2.176   8.940  17.885  0.00  0.00    +0.000 A 
ATOM     25  C   UNL     1       1.439   9.363  18.999  0.00  0.00    +0.000 A 
ATOM     26  C   UNL     1       1.404   8.476  20.109  0.00  0.00    +0.000 A 
ATOM     27  C   UNL     1       0.757   8.782  21.433  0.00  0.00    +0.000 C 
ATOM     28  C   UNL     1       2.062   7.217  20.044  0.00  0.00    +0.000 A 
ENDBRANCH  17  25
ENDBRANCH   1  18
TORSDOF 3
ENDMDL
MODEL 3
REMARK VINA RESULT:      -7.6      6.267      9.769
REMARK  Name = 
REMARK  5 active torsions:
REMARK  status: ('A' for Active; 'I' for Inactive)
REMARK    1  A    between atoms: C_1  and  C_2
REMARK    2  A    between atoms: C_5  and  N_6
REMARK    3  A    between atoms: C_7  and  C_9
REMARK    4  A    between atoms: N_17  and  C_18
REMARK    5  A    between atoms: C_25  and  C_26
REMARK                            x       y       z     vdW  Elec       q    Type
REMARK                         _______ _______ _______ _____ _____    ______ ____
ROOT
ATOM      1  C   UNL     1       1.591   9.624  20.994  0.00  0.00    +0.000 A 
ATOM      2  C   UNL     1       1.321   9.273  22.321  0.00  0.00    +0.000 A 
ATOM      3  C   UNL     1       0.027   9.484  22.809  0.00  0.00    +0.000 A 
ATOM      4  C   UNL     1      -0.964   9.999  21.959  0.00  0.00    +0.000 A 
ATOM      5  C   UNL     1      -0.592  10.490  20.703  0.00  0.00    +0.000 A 
ATOM      6  C   UNL     1       0.763  10.621  20.453  0.00  0.00    +0.000 A 
ATOM      7  C   UNL     1       0.826  12.149  20.695  0.00  0.00    +0.000 C 
ATOM      8  O   UNL     1       1.767  12.721  21.218  0.00  0.00    +0.000 OA
ATOM      9  N   UNL     1      -0.452  12.701  20.356  0.00  0.00    +0.000 N 
ATOM     10  C   UNL     1      -1.284  11.585  19.975  0.00  0.00    +0.000 C 
ENDROOT
BRANCH   9  11
ATOM     11  C   UNL     1      -1.169  13.848  20.983  0.00  0.00    +0.000 C 
ATOM     12  C   UNL     1      -2.695  13.923  20.900  0.00  0.00    +0.000 C 
ATOM     13  C   UNL     1      -3.399  12.898  21.779  0.00  0.00    +0.000 C 
ATOM     14  C   UNL     1      -2.911  12.909  23.228  0.00  0.00    +0.000 C 
ATOM     15  C   UNL     1      -1.392  12.946  23.357  0.00  0.00    +0.000 C 
ATOM     16  C   UNL     1      -0.765  14.018  22.471  0.00  0.00    +0.000 C 
ENDBRANCH   9  11
BRANCH   1  18
ATOM     17  N   UNL     1       2.207   7.184  20.565  0.00  0.00    +0.000 N 
ATOM     18  C   UNL     1       1.694   8.387  20.051  0.00  0.00    +0.000 C 
ATOM     19  O   UNL     1       1.289   8.516  18.897  0.00  0.00    +0.000 OA
ATOM     20  H   UNL     1       2.678   7.230  21.452  0.00  0.00    +0.000 HD
BRANCH  17  25
ATOM     21  C   UNL     1       2.176   1.786  18.382  0.00  0.00    +0.000 C 
ATOM     22  C   UNL     1       2.134   3.188  18.922  0.00  0.00    +0.000 A 
ATOM     23  C   UNL     1       1.273   3.562  19.957  0.00  0.00    +0.000 A 
ATOM     24  C   UNL     1       1.276   4.876  20.468  0.00  0.00    +0.000 A 
ATOM     25  C   UNL     1       2.127   5.874  19.974  0.00  0.00    +0.000 A 
ATOM     26  C   UNL     1       2.976   5.506  18.895  0.00  0.00    +0.000 A 
ATOM     27  C   UNL     1       3.886   6.451  18.157  0.00  0.00    +0.000 C 
ATOM     28  C   UNL     1       2.963   4.176  18.393  0.00  0.00    +0.000 A 
ENDBRANCH  17  25
ENDBRANCH   1  18
TORSDOF 3
ENDMDL
MODEL 4
REMARK VINA RESULT:      -7.4      8.128     10.456
REMARK  Name = 
REMARK  5 active torsions:
REMARK  status: ('A' for Active; 'I' for Inactive)
REMARK    1  A    between atoms: C_1  and  C_2
REMARK    2  A    between atoms: C_5  and  N_6
REMARK    3  A    between atoms: C_7  and  C_9
REMARK    4  A    between atoms: N_17  and  C_18
REMARK    5  A    between atoms: C_25  and  C_26
REMARK                            x       y       z     vdW  Elec       q    Type
REMARK                         _______ _______ _______ _____ _____    ______ ____
ROOT
ATOM      1  C   UNL     1      -0.562  12.442  19.168  0.00  0.00    +0.000 A 
ATOM      2  C   UNL     1      -0.302  13.712  18.646  0.00  0.00    +0.000 A 
ATOM      3  C   UNL     1      -0.116  14.770  19.543  0.00  0.00    +0.000 A 
ATOM      4  C   UNL     1      -0.157  14.527  20.925  0.00  0.00    +0.000 A 
ATOM      5  C   UNL     1      -0.591  13.278  21.382  0.00  0.00    +0.000 A 
ATOM      6  C   UNL     1      -1.145  12.422  20.447  0.00  0.00    +0.000 A 
ATOM      7  C   UNL     1      -2.620  12.698  20.826  0.00  0.00    +0.000 C 
ATOM      8  O   UNL     1      -3.537  12.744  20.023  0.00  0.00    +0.000 OA
ATOM      9  N   UNL     1      -2.659  13.042  22.216  0.00  0.00    +0.000 N 
ATOM     10  C   UNL     1      -1.290  13.036  22.671  0.00  0.00    +0.000 C 
ENDROOT
BRANCH   9  11
ATOM     11  C   UNL     1      -3.560  14.004  22.914  0.00  0.00    +0.000 C 
ATOM     12  C   UNL     1      -5.000  14.180  22.429  0.00  0.00    +0.000 C 
ATOM     13  C   UNL     1      -5.894  12.989  22.747  0.00  0.00    +0.000 C 
ATOM     14  C   UNL     1      -5.840  12.569  24.216  0.00  0.00    +0.000 C 
ATOM     15  C   UNL     1      -4.423  12.488  24.773  0.00  0.00    +0.000 C 
ATOM     16  C   UNL     1      -3.602  13.730  24.440  0.00  0.00    +0.000 C 
ENDBRANCH   9  11
BRANCH   1  18
ATOM     17  N   UNL     1       0.490  10.123  19.360  0.00  0.00    +0.000 N 
ATOM     18  C   UNL     1       0.669  11.490  19.084  0.00  0.00    +0.000 C 
ATOM     19  O   UNL     1       1.746  11.980  18.748  0.00  0.00    +0.000 OA
ATOM     20  H   UNL     1      -0.373   9.856  19.802  0.00  0.00    +0.000 HD
BRANCH  17  25
ATOM     21  C   UNL     1       3.868   5.550  18.105  0.00  0.00    +0.000 C 
ATOM     22  C   UNL     1       3.042   6.762  18.431  0.00  0.00    +0.000 A 
ATOM     23  C   UNL     1       2.832   7.791  17.509  0.00  0.00    +0.000 A 
ATOM     24  C   UNL     1       2.026   8.902  17.827  0.00  0.00    +0.000 A 
ATOM     25  C   UNL     1       1.398   9.045  19.072  0.00  0.00    +0.000 A 
ATOM     26  C   UNL     1       1.641   8.019  20.025  0.00  0.00    +0.000 A 
ATOM     27  C   UNL     1       1.146   8.032  21.446  0.00  0.00    +0.000 C 
ATOM     28  C   UNL     1       2.454   6.902  19.687  0.00  0.00    +0.000 A 
ENDBRANCH  17  25
ENDBRANCH   1  18
TORSDOF 3
ENDMDL
MODEL 5
REMARK VINA RESULT:      -7.3      8.864     11.253
REMARK  Name = 
REMARK  5 active torsions:
REMARK  status: ('A' for Active; 'I' for Inactive)
REMARK    1  A    between atoms: C_1  and  C_2
REMARK    2  A    between atoms: C_5  and  N_6
REMARK    3  A    between atoms: C_7  and  C_9
REMARK    4  A    between atoms: N_17  and  C_18
REMARK    5  A    between atoms: C_25  and  C_26
REMARK                            x       y       z     vdW  Elec       q    Type
REMARK                         _______ _______ _______ _____ _____    ______ ____
ROOT
ATOM      1  C   UNL     1      -0.854  12.951  20.775  0.00  0.00    +0.000 A 
ATOM      2  C   UNL     1      -0.271  14.182  21.095  0.00  0.00    +0.000 A 
ATOM      3  C   UNL     1      -0.457  14.685  22.387  0.00  0.00    +0.000 A 
ATOM      4  C   UNL     1      -1.180  13.936  23.329  0.00  0.00    +0.000 A 
ATOM      5  C   UNL     1      -1.880  12.803  22.903  0.00  0.00    +0.000 A 
ATOM      6  C   UNL     1      -1.981  12.601  21.537  0.00  0.00    +0.000 A 
ATOM      7  C   UNL     1      -3.428  13.133  21.399  0.00  0.00    +0.000 C 
ATOM      8  O   UNL     1      -3.836  13.769  20.443  0.00  0.00    +0.000 OA
ATOM      9  N   UNL     1      -4.106  12.889  22.638  0.00  0.00    +0.000 N 
ATOM     10  C   UNL     1      -3.132  12.289  23.519  0.00  0.00    +0.000 C 
ENDROOT
BRANCH   9  11
ATOM     11  C   UNL     1      -5.150  13.715  23.309  0.00  0.00    +0.000 C 
ATOM     12  C   UNL     1      -6.119  14.543  22.462  0.00  0.00    +0.000 C 
ATOM     13  C   UNL     1      -7.148  13.698  21.723  0.00  0.00    +0.000 C 
ATOM     14  C   UNL     1      -7.889  12.717  22.633  0.00  0.00    +0.000 C 
ATOM     15  C   UNL     1      -6.968  11.948  23.574  0.00  0.00    +0.000 C 
ATOM     16  C   UNL     1      -5.989  12.867  24.299  0.00  0.00    +0.000 C 
ENDBRANCH   9  11
BRANCH   1  18
ATOM     17  N   UNL     1      -0.091  10.677  19.902  0.00  0.00    +0.000 N 
ATOM     18  C   UNL     1       0.184  11.790  20.715  0.00  0.00    +0.000 C 
ATOM     19  O   UNL     1       1.218  11.916  21.367  0.00  0.00    +0.000 OA
ATOM     20  H   UNL     1      -1.033  10.582  19.561  0.00  0.00    +0.000 HD
BRANCH  17  25
ATOM     21  C   UNL     1       3.327   6.301  18.150  0.00  0.00    +0.000 C 
ATOM     22  C   UNL     1       2.489   7.465  18.599  0.00  0.00    +0.000 A 
ATOM     23  C   UNL     1       2.111   8.491  17.729  0.00  0.00    +0.000 A 
ATOM     24  C   UNL     1       1.297   9.555  18.166  0.00  0.00    +0.000 A 
ATOM     25  C   UNL     1       0.826   9.651  19.482  0.00  0.00    +0.000 A 
ATOM     26  C   UNL     1       1.239   8.629  20.379  0.00  0.00    +0.000 A 
ATOM     27  C   UNL     1       0.929   8.600  21.852  0.00  0.00    +0.000 C 
ATOM     28  C   UNL     1       2.059   7.560  19.922  0.00  0.00    +0.000 A 
ENDBRANCH  17  25
ENDBRANCH   1  18
TORSDOF 3
ENDMDL
MODEL 6
REMARK VINA RESULT:      -7.3      8.670     11.015
REMARK  Name = 
REMARK  5 active torsions:
REMARK  status: ('A' for Active; 'I' for Inactive)
REMARK    1  A    between atoms: C_1  and  C_2
REMARK    2  A    between atoms: C_5  and  N_6
REMARK    3  A    between atoms: C_7  and  C_9
REMARK    4  A    between atoms: N_17  and  C_18
REMARK    5  A    between atoms: C_25  and  C_26
REMARK                            x       y       z     vdW  Elec       q    Type
REMARK                         _______ _______ _______ _____ _____    ______ ____
ROOT
ATOM      1  C   UNL     1      -1.692  12.349  19.416  0.00  0.00    +0.000 A 
ATOM      2  C   UNL     1      -0.839  13.447  19.264  0.00  0.00    +0.000 A 
ATOM      3  C   UNL     1      -0.287  14.018  20.415  0.00  0.00    +0.000 A 
ATOM      4  C   UNL     1      -0.567  13.462  21.673  0.00  0.00    +0.000 A 
ATOM      5  C   UNL     1      -1.558  12.480  21.775  0.00  0.00    +0.000 A 
ATOM      6  C   UNL     1      -2.344  12.258  20.657  0.00  0.00    +0.000 A 
ATOM      7  C   UNL     1      -3.567  13.067  21.153  0.00  0.00    +0.000 C 
ATOM      8  O   UNL     1      -4.282  13.740  20.431  0.00  0.00    +0.000 OA
ATOM      9  N   UNL     1      -3.583  13.005  22.585  0.00  0.00    +0.000 N 
ATOM     10  C   UNL     1      -2.414  12.250  22.969  0.00  0.00    +0.000 C 
ENDROOT
BRANCH   9  11
ATOM     11  C   UNL     1      -4.019  14.047  23.559  0.00  0.00    +0.000 C 
ATOM     12  C   UNL     1      -3.243  14.234  24.864  0.00  0.00    +0.000 C 
ATOM     13  C   UNL     1      -1.876  14.876  24.667  0.00  0.00    +0.000 C 
ATOM     14  C   UNL     1      -1.927  16.167  23.850  0.00  0.00    +0.000 C 
ATOM     15  C   UNL     1      -2.783  16.057  22.593  0.00  0.00    +0.000 C 
ATOM     16  C   UNL     1      -4.147  15.434  22.878  0.00  0.00    +0.000 C 
ENDBRANCH   9  11
BRANCH   1  18
ATOM     17  N   UNL     1       0.368  10.855  19.207  0.00  0.00    +0.000 N 
ATOM     18  C   UNL     1      -1.018  11.001  19.021  0.00  0.00    +0.000 C 
ATOM     19  O   UNL     1      -1.742  10.107  18.586  0.00  0.00    +0.000 OA
ATOM     20  H   UNL     1       0.895  11.693  19.389  0.00  0.00    +0.000 HD
BRANCH  17  25
ATOM     21  C   UNL     1       3.142   5.738  19.053  0.00  0.00    +0.000 C 
ATOM     22  C   UNL     1       2.475   7.085  19.090  0.00  0.00    +0.000 A 
ATOM     23  C   UNL     1       2.416   7.917  17.970  0.00  0.00    +0.000 A 
ATOM     24  C   UNL     1       1.756   9.162  18.021  0.00  0.00    +0.000 A 
ATOM     25  C   UNL     1       1.132   9.636  19.183  0.00  0.00    +0.000 A 
ATOM     26  C   UNL     1       1.225   8.809  20.334  0.00  0.00    +0.000 A 
ATOM     27  C   UNL     1       0.714   9.178  21.702  0.00  0.00    +0.000 C 
ATOM     28  C   UNL     1       1.891   7.554  20.266  0.00  0.00    +0.000 A 
ENDBRANCH  17  25
ENDBRANCH   1  18
TORSDOF 3
ENDMDL
MODEL 7
REMARK VINA RESULT:      -7.2     10.359     13.113
REMARK  Name = 
REMARK  5 active torsions:
REMARK  status: ('A' for Active; 'I' for Inactive)
REMARK    1  A    between atoms: C_1  and  C_2
REMARK    2  A    between atoms: C_5  and  N_6
REMARK    3  A    between atoms: C_7  and  C_9
REMARK    4  A    between atoms: N_17  and  C_18
REMARK    5  A    between atoms: C_25  and  C_26
REMARK                            x       y       z     vdW  Elec       q    Type
REMARK                         _______ _______ _______ _____ _____    ______ ____
ROOT
ATOM      1  C   UNL     1      -0.668  12.770  21.503  0.00  0.00    +0.000 A 
ATOM      2  C   UNL     1      -0.561  11.619  22.291  0.00  0.00    +0.000 A 
ATOM      3  C   UNL     1      -1.628  11.297  23.136  0.00  0.00    +0.000 A 
ATOM      4  C   UNL     1      -2.778  12.101  23.146  0.00  0.00    +0.000 A 
ATOM      5  C   UNL     1      -2.755  13.326  22.470  0.00  0.00    +0.000 A 
ATOM      6  C   UNL     1      -1.530  13.763  21.998  0.00  0.00    +0.000 A 
ATOM      7  C   UNL     1      -1.264  14.772  23.142  0.00  0.00    +0.000 C 
ATOM      8  O   UNL     1      -0.164  14.993  23.619  0.00  0.00    +0.000 OA
ATOM      9  N   UNL     1      -2.532  15.240  23.618  0.00  0.00    +0.000 N 
ATOM     10  C   UNL     1      -3.534  14.531  22.859  0.00  0.00    +0.000 C 
ENDROOT
BRANCH   9  11
ATOM     11  C   UNL     1      -2.927  15.613  25.007  0.00  0.00    +0.000 C 
ATOM     12  C   UNL     1      -1.897  16.251  25.941  0.00  0.00    +0.000 C 
ATOM     13  C   UNL     1      -1.553  17.687  25.568  0.00  0.00    +0.000 C 
ATOM     14  C   UNL     1      -2.783  18.577  25.392  0.00  0.00    +0.000 C 
ATOM     15  C   UNL     1      -3.884  17.932  24.556  0.00  0.00    +0.000 C 
ATOM     16  C   UNL     1      -4.193  16.509  25.010  0.00  0.00    +0.000 C 
ENDBRANCH   9  11
BRANCH   1  18
ATOM     17  N   UNL     1      -1.589  11.238  19.680  0.00  0.00    +0.000 N 
ATOM     18  C   UNL     1      -0.959  12.452  20.005  0.00  0.00    +0.000 C 
ATOM     19  O   UNL     1      -0.646  13.299  19.172  0.00  0.00    +0.000 OA
ATOM     20  H   UNL     1      -1.634  10.539  20.403  0.00  0.00    +0.000 HD
BRANCH  17  25
ATOM     21  C   UNL     1      -3.930  10.092  14.473  0.00  0.00    +0.000 C 
ATOM     22  C   UNL     1      -3.334  10.334  15.832  0.00  0.00    +0.000 A 
ATOM     23  C   UNL     1      -2.090   9.819  16.203  0.00  0.00    +0.000 A 
ATOM     24  C   UNL     1      -1.538  10.089  17.472  0.00  0.00    +0.000 A 
ATOM     25  C   UNL     1      -2.197  10.874  18.428  0.00  0.00    +0.000 A 
ATOM     26  C   UNL     1      -3.480  11.367  18.067  0.00  0.00    +0.000 A 
ATOM     27  C   UNL     1      -4.391  12.140  18.982  0.00  0.00    +0.000 C 
ATOM     28  C   UNL     1      -4.021  11.089  16.782  0.00  0.00    +0.000 A 
ENDBRANCH  17  25
ENDBRANCH   1  18
TORSDOF 3
ENDMDL
MODEL 8
REMARK VINA RESULT:      -7.2      6.734      9.571
REMARK  Name = 
REMARK  5 active torsions:
REMARK  status: ('A' for Active; 'I' for Inactive)
REMARK    1  A    between atoms: C_1  and  C_2
REMARK    2  A    between atoms: C_5  and  N_6
REMARK    3  A    between atoms: C_7  and  C_9
REMARK    4  A    between atoms: N_17  and  C_18
REMARK    5  A    between atoms: C_25  and  C_26
REMARK                            x       y       z     vdW  Elec       q    Type
REMARK                         _______ _______ _______ _____ _____    ______ ____
ROOT
ATOM      1  C   UNL     1       0.189  10.149  19.604  0.00  0.00    +0.000 A 
ATOM      2  C   UNL     1      -1.031  10.441  18.984  0.00  0.00    +0.000 A 
ATOM      3  C   UNL     1      -1.198  11.710  18.422  0.00  0.00    +0.000 A 
ATOM      4  C   UNL     1      -0.142  12.634  18.458  0.00  0.00    +0.000 A 
ATOM      5  C   UNL     1       0.983  12.348  19.239  0.00  0.00    +0.000 A 
ATOM      6  C   UNL     1       0.901  11.259  20.089  0.00  0.00    +0.000 A 
ATOM      7  C   UNL     1       0.632  12.076  21.376  0.00  0.00    +0.000 C 
ATOM      8  O   UNL     1      -0.108  11.715  22.275  0.00  0.00    +0.000 OA
ATOM      9  N   UNL     1       1.261  13.355  21.223  0.00  0.00    +0.000 N 
ATOM     10  C   UNL     1       1.843  13.363  19.903  0.00  0.00    +0.000 C 
ENDROOT
BRANCH   9  11
ATOM     11  C   UNL     1       0.809  14.683  21.730  0.00  0.00    +0.000 C 
ATOM     12  C   UNL     1       1.104  15.944  20.916  0.00  0.00    +0.000 C 
ATOM     13  C   UNL     1       0.267  16.053  19.648  0.00  0.00    +0.000 C 
ATOM     14  C   UNL     1      -1.232  15.880  19.898  0.00  0.00    +0.000 C 
ATOM     15  C   UNL     1      -1.564  14.695  20.798  0.00  0.00    +0.000 C 
ATOM     16  C   UNL     1      -0.706  14.673  22.060  0.00  0.00    +0.000 C 
ENDBRANCH   9  11
BRANCH   1  18
ATOM     17  N   UNL     1       1.978   8.339  19.400  0.00  0.00    +0.000 N 
ATOM     18  C   UNL     1       1.095   9.216  18.746  0.00  0.00    +0.000 C 
ATOM     19  O   UNL     1       0.972   9.270  17.523  0.00  0.00    +0.000 OA
ATOM     20  H   UNL     1       2.138   8.500  20.380  0.00  0.00    +0.000 HD
BRANCH  17  25
ATOM     21  C   UNL     1       4.514   3.733  16.899  0.00  0.00    +0.000 C 
ATOM     22  C   UNL     1       3.909   4.936  17.566  0.00  0.00    +0.000 A 
ATOM     23  C   UNL     1       4.156   6.237  17.121  0.00  0.00    +0.000 A 
ATOM     24  C   UNL     1       3.550   7.348  17.743  0.00  0.00    +0.000 A 
ATOM     25  C   UNL     1       2.679   7.218  18.833  0.00  0.00    +0.000 A 
ATOM     26  C   UNL     1       2.456   5.899  19.312  0.00  0.00    +0.000 A 
ATOM     27  C   UNL     1       1.640   5.552  20.529  0.00  0.00    +0.000 C 
ATOM     28  C   UNL     1       3.072   4.788  18.672  0.00  0.00    +0.000 A 
ENDBRANCH  17  25
ENDBRANCH   1  18
TORSDOF 3
ENDMDL
MODEL 9
REMARK VINA RESULT:      -7.2      6.180      9.984
REMARK  Name = 
REMARK  5 active torsions:
REMARK  status: ('A' for Active; 'I' for Inactive)
REMARK    1  A    between atoms: C_1  and  C_2
REMARK    2  A    between atoms: C_5  and  N_6
REMARK    3  A    between atoms: C_7  and  C_9
REMARK    4  A    between atoms: N_17  and  C_18
REMARK    5  A    between atoms: C_25  and  C_26
REMARK                            x       y       z     vdW  Elec       q    Type
REMARK                         _______ _______ _______ _____ _____    ______ ____
ROOT
ATOM      1  C   UNL     1       0.626  11.051  21.338  0.00  0.00    +0.000 A 
ATOM      2  C   UNL     1      -0.726  11.158  21.000  0.00  0.00    +0.000 A 
ATOM      3  C   UNL     1      -1.051  11.569  19.703  0.00  0.00    +0.000 A 
ATOM      4  C   UNL     1      -0.029  11.823  18.774  0.00  0.00    +0.000 A 
ATOM      5  C   UNL     1       1.296  11.867  19.220  0.00  0.00    +0.000 A 
ATOM      6  C   UNL     1       1.502  11.854  20.589  0.00  0.00    +0.000 A 
ATOM      7  C   UNL     1       1.758  13.375  20.730  0.00  0.00    +0.000 C 
ATOM      8  O   UNL     1       1.396  14.045  21.681  0.00  0.00    +0.000 OA
ATOM      9  N   UNL     1       2.325  13.841  19.498  0.00  0.00    +0.000 N 
ATOM     10  C   UNL     1       2.373  12.697  18.619  0.00  0.00    +0.000 C 
ENDROOT
BRANCH   9  11
ATOM     11  C   UNL     1       2.136  15.157  18.825  0.00  0.00    +0.000 C 
ATOM     12  C   UNL     1       2.137  16.440  19.658  0.00  0.00    +0.000 C 
ATOM     13  C   UNL     1       3.515  16.817  20.186  0.00  0.00    +0.000 C 
ATOM     14  C   UNL     1       4.590  16.849  19.099  0.00  0.00    +0.000 C 
ATOM     15  C   UNL     1       4.554  15.637  18.174  0.00  0.00    +0.000 C 
ATOM     16  C   UNL     1       3.147  15.344  17.663  0.00  0.00    +0.000 C 
ENDBRANCH   9  11
BRANCH   1  18
ATOM     17  N   UNL     1       1.004   8.769  20.258  0.00  0.00    +0.000 N 
ATOM     18  C   UNL     1       1.117   9.573  21.406  0.00  0.00    +0.000 C 
ATOM     19  O   UNL     1       1.613   9.185  22.462  0.00  0.00    +0.000 OA
ATOM     20  H   UNL     1       0.422   9.114  19.514  0.00  0.00    +0.000 HD
BRANCH  17  25
ATOM     21  C   UNL     1       3.872   3.771  19.423  0.00  0.00    +0.000 C 
ATOM     22  C   UNL     1       3.084   5.035  19.625  0.00  0.00    +0.000 A 
ATOM     23  C   UNL     1       2.207   5.203  20.699  0.00  0.00    +0.000 A 
ATOM     24  C   UNL     1       1.504   6.411  20.883  0.00  0.00    +0.000 A 
ATOM     25  C   UNL     1       1.637   7.500  20.012  0.00  0.00    +0.000 A 
ATOM     26  C   UNL     1       2.499   7.318  18.897  0.00  0.00    +0.000 A 
ATOM     27  C   UNL     1       2.701   8.322  17.794  0.00  0.00    +0.000 C 
ATOM     28  C   UNL     1       3.203   6.095  18.726  0.00  0.00    +0.000 A 
ENDBRANCH  17  25
ENDBRANCH   1  18
TORSDOF 3
ENDMDL
