MODEL 1
REMARK VINA RESULT:      -9.4      0.000      0.000
REMARK  Name = 
REMARK  7 active torsions:
REMARK  status: ('A' for Active; 'I' for Inactive)
REMARK    1  A    between atoms: C_1  and  N_2
REMARK    2  A    between atoms: N_2  and  C_3
REMARK    3  A    between atoms: N_2  and  C_4
REMARK    4  A    between atoms: C_7  and  C_8
REMARK    5  A    between atoms: C_17  and  C_18
REMARK    6  A    between atoms: N_20  and  C_21
REMARK    7  A    between atoms: C_21  and  C_22
REMARK                            x       y       z     vdW  Elec       q    Type
REMARK                         _______ _______ _______ _____ _____    ______ ____
ROOT
ATOM      1  C   UNL     1       0.700   8.556  20.873  0.00  0.00    +0.000 C 
ATOM      2  O   UNL     1       0.108   7.712  21.555  0.00  0.00    +0.000 OA
ATOM      3  N   UNL     1       1.771   8.246  19.951  0.00  0.00    +0.000 N 
ATOM      4  C   UNL     1       2.247   6.897  19.796  0.00  0.00    +0.000 A 
ATOM      5  N   UNL     1       1.743   6.002  20.651  0.00  0.00    +0.000 NA
ATOM      6  N   UNL     1       2.158   4.820  20.278  0.00  0.00    +0.000 N 
ATOM      7  C   UNL     1       3.018   4.828  19.232  0.00  0.00    +0.000 A 
ATOM      8  C   UNL     1       3.605   3.721  18.621  0.00  0.00    +0.000 A 
ATOM      9  C   UNL     1       4.507   3.934  17.593  0.00  0.00    +0.000 A 
ATOM     10  C   UNL     1       4.841   5.222  17.162  0.00  0.00    +0.000 A 
ATOM     11  C   UNL     1       4.198   6.360  17.816  0.00  0.00    +0.000 A 
ATOM     12  C   UNL     1       3.214   6.174  18.883  0.00  0.00    +0.000 A 
ATOM     13  H   UNL     1       2.170   8.949  19.355  0.00  0.00    +0.000 HD
ATOM     14  H   UNL     1       1.822   4.016  20.793  0.00  0.00    +0.000 HD
ENDROOT
BRANCH   1  18
ATOM     15  C   UNL     1      -1.022  12.583  21.784  0.00  0.00    +0.000 A 
ATOM     16  C   UNL     1      -0.863  11.576  22.735  0.00  0.00    +0.000 A 
ATOM     17  C   UNL     1      -0.308  10.313  22.402  0.00  0.00    +0.000 A 
ATOM     18  C   UNL     1       0.144   9.963  21.098  0.00  0.00    +0.000 A 
ATOM     19  C   UNL     1       0.014  10.967  20.149  0.00  0.00    +0.000 A 
ATOM     20  C   UNL     1      -0.555  12.233  20.496  0.00  0.00    +0.000 A 
BRANCH  15  22
ATOM     21  C   UNL     1      -1.687  14.353  23.437  0.00  0.00    +0.000 C 
ATOM     22  N   UNL     1      -1.588  13.822  22.076  0.00  0.00    +0.000 N 
ATOM     23  C   UNL     1      -2.308  14.563  21.046  0.00  0.00    +0.000 C 
ENDBRANCH  15  22
ENDBRANCH   1  18
BRANCH  10  24
ATOM     24  C   UNL     1       5.848   5.282  16.064  0.00  0.00    +0.000 A 
ATOM     25  C   UNL     1       5.697   4.756  14.780  0.00  0.00    +0.000 A 
ATOM     26  N   UNL     1       6.895   4.974  14.141  0.00  0.00    +0.000 N 
ATOM     27  N   UNL     1       7.734   5.632  14.976  0.00  0.00    +0.000 NA
ATOM     28  N   UNL     1       7.114   5.806  16.149  0.00  0.00    +0.000 NA
BRANCH  26  29
ATOM     29  C   UNL     1       7.185   4.857  12.705  0.00  0.00    +0.000 C 
BRANCH  29  30
ATOM     30  C   UNL     1       6.688   3.600  12.008  0.00  0.00    +0.000 A 
ATOM     31  C   UNL     1       7.587   2.592  11.602  0.00  0.00    +0.000 A 
ATOM     32  C   UNL     1       7.126   1.380  11.066  0.00  0.00    +0.000 A 
ATOM     33  C   UNL     1       5.760   1.150  10.936  0.00  0.00    +0.000 A 
ATOM     34  C   UNL     1       4.859   2.128  11.347  0.00  0.00    +0.000 A 
ATOM     35  C   UNL     1       5.316   3.338  11.880  0.00  0.00    +0.000 A 
ENDBRANCH  29  30
ENDBRANCH  26  29
ENDBRANCH  10  24
TORSDOF 5
ENDMDL
MODEL 2
REMARK VINA RESULT:      -9.0      0.652      1.364
REMARK  Name = 
REMARK  7 active torsions:
REMARK  status: ('A' for Active; 'I' for Inactive)
REMARK    1  A    between atoms: C_1  and  N_2
REMARK    2  A    between atoms: N_2  and  C_3
REMARK    3  A    between atoms: N_2  and  C_4
REMARK    4  A    between atoms: C_7  and  C_8
REMARK    5  A    between atoms: C_17  and  C_18
REMARK    6  A    between atoms: N_20  and  C_21
REMARK    7  A    between atoms: C_21  and  C_22
REMARK                            x       y       z     vdW  Elec       q    Type
REMARK                         _______ _______ _______ _____ _____    ______ ____
ROOT
ATOM      1  C   UNL     1       0.467   8.793  21.028  0.00  0.00    +0.000 C 
ATOM      2  O   UNL     1      -0.178   7.975  21.691  0.00  0.00    +0.000 OA
ATOM      3  N   UNL     1       1.554   8.440  20.141  0.00  0.00    +0.000 N 
ATOM      4  C   UNL     1       1.983   7.073  20.004  0.00  0.00    +0.000 A 
ATOM      5  N   UNL     1       1.418   6.201  20.843  0.00  0.00    +0.000 NA
ATOM      6  N   UNL     1       1.798   5.003  20.485  0.00  0.00    +0.000 N 
ATOM      7  C   UNL     1       2.691   4.975  19.467  0.00  0.00    +0.000 A 
ATOM      8  C   UNL     1       3.255   3.844  18.877  0.00  0.00    +0.000 A 
ATOM      9  C   UNL     1       4.196   4.020  17.879  0.00  0.00    +0.000 A 
ATOM     10  C   UNL     1       4.593   5.294  17.456  0.00  0.00    +0.000 A 
ATOM     11  C   UNL     1       3.974   6.457  18.088  0.00  0.00    +0.000 A 
ATOM     12  C   UNL     1       2.950   6.312  19.123  0.00  0.00    +0.000 A 
ATOM     13  H   UNL     1       2.000   9.126  19.558  0.00  0.00    +0.000 HD
ATOM     14  H   UNL     1       1.415   4.214  20.989  0.00  0.00    +0.000 HD
ENDROOT
BRANCH   1  18
ATOM     15  C   UNL     1      -0.918  13.034  21.367  0.00  0.00    +0.000 A 
ATOM     16  C   UNL     1      -0.503  12.448  20.172  0.00  0.00    +0.000 A 
ATOM     17  C   UNL     1      -0.074  11.097  20.109  0.00  0.00    +0.000 A 
ATOM     18  C   UNL     1      -0.041  10.222  21.233  0.00  0.00    +0.000 A 
ATOM     19  C   UNL     1      -0.477  10.787  22.423  0.00  0.00    +0.000 A 
ATOM     20  C   UNL     1      -0.898  12.154  22.473  0.00  0.00    +0.000 A 
BRANCH  15  22
ATOM     21  C   UNL     1      -2.555  14.781  22.126  0.00  0.00    +0.000 C 
ATOM     22  N   UNL     1      -1.318  14.365  21.462  0.00  0.00    +0.000 N 
ATOM     23  C   UNL     1      -0.617  15.400  20.710  0.00  0.00    +0.000 C 
ENDBRANCH  15  22
ENDBRANCH   1  18
BRANCH  10  24
ATOM     24  C   UNL     1       5.637   5.312  16.391  0.00  0.00    +0.000 A 
ATOM     25  C   UNL     1       5.626   4.559  15.217  0.00  0.00    +0.000 A 
ATOM     26  N   UNL     1       6.814   4.836  14.581  0.00  0.00    +0.000 N 
ATOM     27  N   UNL     1       7.509   5.741  15.309  0.00  0.00    +0.000 NA
ATOM     28  N   UNL     1       6.813   6.021  16.416  0.00  0.00    +0.000 NA
BRANCH  26  29
ATOM     29  C   UNL     1       7.189   4.521  13.195  0.00  0.00    +0.000 C 
BRANCH  29  30
ATOM     30  C   UNL     1       6.281   3.560  12.443  0.00  0.00    +0.000 A 
ATOM     31  C   UNL     1       4.957   3.918  12.119  0.00  0.00    +0.000 A 
ATOM     32  C   UNL     1       4.152   3.087  11.324  0.00  0.00    +0.000 A 
ATOM     33  C   UNL     1       4.662   1.889  10.831  0.00  0.00    +0.000 A 
ATOM     34  C   UNL     1       5.973   1.529  11.128  0.00  0.00    +0.000 A 
ATOM     35  C   UNL     1       6.776   2.355  11.922  0.00  0.00    +0.000 A 
ENDBRANCH  29  30
ENDBRANCH  26  29
ENDBRANCH  10  24
TORSDOF 5
ENDMDL
MODEL 3
REMARK VINA RESULT:      -8.9      0.674      1.111
REMARK  Name = 
REMARK  7 active torsions:
REMARK  status: ('A' for Active; 'I' for Inactive)
REMARK    1  A    between atoms: C_1  and  N_2
REMARK    2  A    between atoms: N_2  and  C_3
REMARK    3  A    between atoms: N_2  and  C_4
REMARK    4  A    between atoms: C_7  and  C_8
REMARK    5  A    between atoms: C_17  and  C_18
REMARK    6  A    between atoms: N_20  and  C_21
REMARK    7  A    between atoms: C_21  and  C_22
REMARK                            x       y       z     vdW  Elec       q    Type
REMARK                         _______ _______ _______ _____ _____    ______ ____
ROOT
ATOM      1  C   UNL     1       0.407   8.654  21.071  0.00  0.00    +0.000 C 
ATOM      2  O   UNL     1      -0.258   7.864  21.748  0.00  0.00    +0.000 OA
ATOM      3  N   UNL     1       1.507   8.263  20.216  0.00  0.00    +0.000 N 
ATOM      4  C   UNL     1       1.925   6.888  20.131  0.00  0.00    +0.000 A 
ATOM      5  N   UNL     1       1.336   6.049  20.987  0.00  0.00    +0.000 NA
ATOM      6  N   UNL     1       1.711   4.836  20.675  0.00  0.00    +0.000 N 
ATOM      7  C   UNL     1       2.622   4.767  19.675  0.00  0.00    +0.000 A 
ATOM      8  C   UNL     1       3.186   3.613  19.133  0.00  0.00    +0.000 A 
ATOM      9  C   UNL     1       4.148   3.748  18.147  0.00  0.00    +0.000 A 
ATOM     10  C   UNL     1       4.565   5.003  17.692  0.00  0.00    +0.000 A 
ATOM     11  C   UNL     1       3.945   6.192  18.274  0.00  0.00    +0.000 A 
ATOM     12  C   UNL     1       2.900   6.090  19.293  0.00  0.00    +0.000 A 
ATOM     13  H   UNL     1       1.970   8.925  19.620  0.00  0.00    +0.000 HD
ATOM     14  H   UNL     1       1.311   4.067  21.197  0.00  0.00    +0.000 HD
ENDROOT
BRANCH   1  18
ATOM     15  C   UNL     1      -0.971  12.907  21.235  0.00  0.00    +0.000 A 
ATOM     16  C   UNL     1      -0.657  12.241  20.052  0.00  0.00    +0.000 A 
ATOM     17  C   UNL     1      -0.226  10.889  20.046  0.00  0.00    +0.000 A 
ATOM     18  C   UNL     1      -0.090  10.093  21.220  0.00  0.00    +0.000 A 
ATOM     19  C   UNL     1      -0.426  10.739  22.401  0.00  0.00    +0.000 A 
ATOM     20  C   UNL     1      -0.851  12.106  22.394  0.00  0.00    +0.000 A 
BRANCH  15  22
ATOM     21  C   UNL     1      -0.444  15.358  21.070  0.00  0.00    +0.000 C 
ATOM     22  N   UNL     1      -1.370  14.242  21.273  0.00  0.00    +0.000 N 
ATOM     23  C   UNL     1      -2.709  14.597  21.732  0.00  0.00    +0.000 C 
ENDBRANCH  15  22
ENDBRANCH   1  18
BRANCH  10  24
ATOM     24  C   UNL     1       5.628   4.978  16.647  0.00  0.00    +0.000 A 
ATOM     25  C   UNL     1       5.429   4.820  15.275  0.00  0.00    +0.000 A 
ATOM     26  N   UNL     1       6.684   4.778  14.714  0.00  0.00    +0.000 N 
ATOM     27  N   UNL     1       7.613   4.937  15.687  0.00  0.00    +0.000 NA
ATOM     28  N   UNL     1       6.983   5.040  16.863  0.00  0.00    +0.000 NA
BRANCH  26  29
ATOM     29  C   UNL     1       7.041   4.892  13.293  0.00  0.00    +0.000 C 
BRANCH  29  30
ATOM     30  C   UNL     1       6.627   3.740  12.391  0.00  0.00    +0.000 A 
ATOM     31  C   UNL     1       7.591   2.887  11.816  0.00  0.00    +0.000 A 
ATOM     32  C   UNL     1       7.213   1.753  11.080  0.00  0.00    +0.000 A 
ATOM     33  C   UNL     1       5.866   1.447  10.915  0.00  0.00    +0.000 A 
ATOM     34  C   UNL     1       4.901   2.269  11.491  0.00  0.00    +0.000 A 
ATOM     35  C   UNL     1       5.276   3.401  12.224  0.00  0.00    +0.000 A 
ENDBRANCH  29  30
ENDBRANCH  26  29
ENDBRANCH  10  24
TORSDOF 5
ENDMDL
MODEL 4
REMARK VINA RESULT:      -8.9      1.030      1.421
REMARK  Name = 
REMARK  7 active torsions:
REMARK  status: ('A' for Active; 'I' for Inactive)
REMARK    1  A    between atoms: C_1  and  N_2
REMARK    2  A    between atoms: N_2  and  C_3
REMARK    3  A    between atoms: N_2  and  C_4
REMARK    4  A    between atoms: C_7  and  C_8
REMARK    5  A    between atoms: C_17  and  C_18
REMARK    6  A    between atoms: N_20  and  C_21
REMARK    7  A    between atoms: C_21  and  C_22
REMARK                            x       y       z     vdW  Elec       q    Type
REMARK                         _______ _______ _______ _____ _____    ______ ____
ROOT
ATOM      1  C   UNL     1       0.565   9.430  20.474  0.00  0.00    +0.000 C 
ATOM      2  O   UNL     1      -0.067   8.749  21.288  0.00  0.00    +0.000 OA
ATOM      3  N   UNL     1       1.644   8.920  19.656  0.00  0.00    +0.000 N 
ATOM      4  C   UNL     1       2.079   7.553  19.774  0.00  0.00    +0.000 A 
ATOM      5  N   UNL     1       1.529   6.853  20.769  0.00  0.00    +0.000 NA
ATOM      6  N   UNL     1       1.913   5.610  20.639  0.00  0.00    +0.000 N 
ATOM      7  C   UNL     1       2.793   5.394  19.633  0.00  0.00    +0.000 A 
ATOM      8  C   UNL     1       3.357   4.175  19.260  0.00  0.00    +0.000 A 
ATOM      9  C   UNL     1       4.286   4.162  18.235  0.00  0.00    +0.000 A 
ATOM     10  C   UNL     1       4.670   5.334  17.575  0.00  0.00    +0.000 A 
ATOM     11  C   UNL     1       4.051   6.594  17.984  0.00  0.00    +0.000 A 
ATOM     12  C   UNL     1       3.040   6.643  19.040  0.00  0.00    +0.000 A 
ATOM     13  H   UNL     1       2.078   9.484  18.948  0.00  0.00    +0.000 HD
ATOM     14  H   UNL     1       1.540   4.929  21.288  0.00  0.00    +0.000 HD
ENDROOT
BRANCH   1  18
ATOM     15  C   UNL     1      -0.682  13.717  20.197  0.00  0.00    +0.000 A 
ATOM     16  C   UNL     1       0.480  13.210  19.617  0.00  0.00    +0.000 A 
ATOM     17  C   UNL     1       0.836  11.841  19.727  0.00  0.00    +0.000 A 
ATOM     18  C   UNL     1       0.051  10.870  20.412  0.00  0.00    +0.000 A 
ATOM     19  C   UNL     1      -1.122  11.359  20.970  0.00  0.00    +0.000 A 
ATOM     20  C   UNL     1      -1.464  12.743  20.859  0.00  0.00    +0.000 A 
BRANCH  15  22
ATOM     21  C   UNL     1      -2.093  15.651  20.959  0.00  0.00    +0.000 C 
ATOM     22  N   UNL     1      -1.042  15.062  20.127  0.00  0.00    +0.000 N 
ATOM     23  C   UNL     1      -0.523  15.908  19.058  0.00  0.00    +0.000 C 
ENDBRANCH  15  22
ENDBRANCH   1  18
BRANCH  10  24
ATOM     24  C   UNL     1       5.701   5.155  16.512  0.00  0.00    +0.000 A 
ATOM     25  C   UNL     1       5.460   5.054  15.142  0.00  0.00    +0.000 A 
ATOM     26  N   UNL     1       6.684   4.820  14.560  0.00  0.00    +0.000 N 
ATOM     27  N   UNL     1       7.639   4.813  15.520  0.00  0.00    +0.000 NA
ATOM     28  N   UNL     1       7.051   4.996  16.707  0.00  0.00    +0.000 NA
BRANCH  26  29
ATOM     29  C   UNL     1       7.034   4.898  13.135  0.00  0.00    +0.000 C 
BRANCH  29  30
ATOM     30  C   UNL     1       6.667   3.699  12.275  0.00  0.00    +0.000 A 
ATOM     31  C   UNL     1       7.665   2.884  11.703  0.00  0.00    +0.000 A 
ATOM     32  C   UNL     1       7.335   1.710  11.008  0.00  0.00    +0.000 A 
ATOM     33  C   UNL     1       6.003   1.326  10.881  0.00  0.00    +0.000 A 
ATOM     34  C   UNL     1       5.007   2.110  11.455  0.00  0.00    +0.000 A 
ATOM     35  C   UNL     1       5.333   3.282  12.147  0.00  0.00    +0.000 A 
ENDBRANCH  29  30
ENDBRANCH  26  29
ENDBRANCH  10  24
TORSDOF 5
ENDMDL
MODEL 5
REMARK VINA RESULT:      -8.9      0.624      1.158
REMARK  Name = 
REMARK  7 active torsions:
REMARK  status: ('A' for Active; 'I' for Inactive)
REMARK    1  A    between atoms: C_1  and  N_2
REMARK    2  A    between atoms: N_2  and  C_3
REMARK    3  A    between atoms: N_2  and  C_4
REMARK    4  A    between atoms: C_7  and  C_8
REMARK    5  A    between atoms: C_17  and  C_18
REMARK    6  A    between atoms: N_20  and  C_21
REMARK    7  A    between atoms: C_21  and  C_22
REMARK                            x       y       z     vdW  Elec       q    Type
REMARK                         _______ _______ _______ _____ _____    ______ ____
ROOT
ATOM      1  C   UNL     1       0.656   8.546  20.846  0.00  0.00    +0.000 C 
ATOM      2  O   UNL     1       0.197   7.746  21.667  0.00  0.00    +0.000 OA
ATOM      3  N   UNL     1       1.716   8.231  19.913  0.00  0.00    +0.000 N 
ATOM      4  C   UNL     1       2.340   6.934  19.913  0.00  0.00    +0.000 A 
ATOM      5  N   UNL     1       1.981   6.117  20.907  0.00  0.00    +0.000 NA
ATOM      6  N   UNL     1       2.515   4.948  20.672  0.00  0.00    +0.000 N 
ATOM      7  C   UNL     1       3.323   4.904  19.586  0.00  0.00    +0.000 A 
ATOM      8  C   UNL     1       4.011   3.795  19.096  0.00  0.00    +0.000 A 
ATOM      9  C   UNL     1       4.837   3.961  17.999  0.00  0.00    +0.000 A 
ATOM     10  C   UNL     1       4.999   5.205  17.381  0.00  0.00    +0.000 A 
ATOM     11  C   UNL     1       4.256   6.345  17.913  0.00  0.00    +0.000 A 
ATOM     12  C   UNL     1       3.346   6.202  19.050  0.00  0.00    +0.000 A 
ATOM     13  H   UNL     1       2.006   8.884  19.207  0.00  0.00    +0.000 HD
ATOM     14  H   UNL     1       2.297   4.191  21.308  0.00  0.00    +0.000 HD
ENDROOT
BRANCH   1  18
ATOM     15  C   UNL     1      -1.433  12.473  21.321  0.00  0.00    +0.000 A 
ATOM     16  C   UNL     1      -0.910  11.741  22.386  0.00  0.00    +0.000 A 
ATOM     17  C   UNL     1      -0.251  10.500  22.189  0.00  0.00    +0.000 A 
ATOM     18  C   UNL     1      -0.051   9.901  20.912  0.00  0.00    +0.000 A 
ATOM     19  C   UNL     1      -0.544  10.635  19.842  0.00  0.00    +0.000 A 
ATOM     20  C   UNL     1      -1.215  11.881  20.056  0.00  0.00    +0.000 A 
BRANCH  15  22
ATOM     21  C   UNL     1      -3.453  13.923  20.961  0.00  0.00    +0.000 C 
ATOM     22  N   UNL     1      -2.109  13.681  21.488  0.00  0.00    +0.000 N 
ATOM     23  C   UNL     1      -1.411  14.846  22.022  0.00  0.00    +0.000 C 
ENDBRANCH  15  22
ENDBRANCH   1  18
BRANCH  10  24
ATOM     24  C   UNL     1       5.946   5.222  16.228  0.00  0.00    +0.000 A 
ATOM     25  C   UNL     1       5.879   4.407  15.098  0.00  0.00    +0.000 A 
ATOM     26  N   UNL     1       6.990   4.714  14.347  0.00  0.00    +0.000 N 
ATOM     27  N   UNL     1       7.690   5.693  14.965  0.00  0.00    +0.000 NA
ATOM     28  N   UNL     1       7.075   5.994  16.114  0.00  0.00    +0.000 NA
BRANCH  26  29
ATOM     29  C   UNL     1       7.264   4.344  12.951  0.00  0.00    +0.000 C 
BRANCH  29  30
ATOM     30  C   UNL     1       6.256   3.427  12.276  0.00  0.00    +0.000 A 
ATOM     31  C   UNL     1       4.955   3.877  11.974  0.00  0.00    +0.000 A 
ATOM     32  C   UNL     1       4.059   3.078  11.247  0.00  0.00    +0.000 A 
ATOM     33  C   UNL     1       4.452   1.819  10.801  0.00  0.00    +0.000 A 
ATOM     34  C   UNL     1       5.739   1.367  11.077  0.00  0.00    +0.000 A 
ATOM     35  C   UNL     1       6.633   2.161  11.803  0.00  0.00    +0.000 A 
ENDBRANCH  29  30
ENDBRANCH  26  29
ENDBRANCH  10  24
TORSDOF 5
ENDMDL
MODEL 6
REMARK VINA RESULT:      -8.6      0.889      1.120
REMARK  Name = 
REMARK  7 active torsions:
REMARK  status: ('A' for Active; 'I' for Inactive)
REMARK    1  A    between atoms: C_1  and  N_2
REMARK    2  A    between atoms: N_2  and  C_3
REMARK    3  A    between atoms: N_2  and  C_4
REMARK    4  A    between atoms: C_7  and  C_8
REMARK    5  A    between atoms: C_17  and  C_18
REMARK    6  A    between atoms: N_20  and  C_21
REMARK    7  A    between atoms: C_21  and  C_22
REMARK                            x       y       z     vdW  Elec       q    Type
REMARK                         _______ _______ _______ _____ _____    ______ ____
ROOT
ATOM      1  C   UNL     1       0.755   9.397  20.623  0.00  0.00    +0.000 C 
ATOM      2  O   UNL     1       0.029   8.687  21.326  0.00  0.00    +0.000 OA
ATOM      3  N   UNL     1       1.821   8.888  19.788  0.00  0.00    +0.000 N 
ATOM      4  C   UNL     1       2.128   7.483  19.754  0.00  0.00    +0.000 A 
ATOM      5  N   UNL     1       1.474   6.725  20.638  0.00  0.00    +0.000 NA
ATOM      6  N   UNL     1       1.752   5.476  20.372  0.00  0.00    +0.000 N 
ATOM      7  C   UNL     1       2.656   5.298  19.379  0.00  0.00    +0.000 A 
ATOM      8  C   UNL     1       3.126   4.084  18.881  0.00  0.00    +0.000 A 
ATOM      9  C   UNL     1       4.096   4.106  17.895  0.00  0.00    +0.000 A 
ATOM     10  C   UNL     1       4.612   5.306  17.395  0.00  0.00    +0.000 A 
ATOM     11  C   UNL     1       4.088   6.561  17.931  0.00  0.00    +0.000 A 
ATOM     12  C   UNL     1       3.038   6.580  18.950  0.00  0.00    +0.000 A 
ATOM     13  H   UNL     1       2.335   9.489  19.169  0.00  0.00    +0.000 HD
ATOM     14  H   UNL     1       1.292   4.761  20.921  0.00  0.00    +0.000 HD
ENDROOT
BRANCH   1  18
ATOM     15  C   UNL     1      -0.628  13.638  20.963  0.00  0.00    +0.000 A 
ATOM     16  C   UNL     1      -1.366  12.545  21.414  0.00  0.00    +0.000 A 
ATOM     17  C   UNL     1      -0.887  11.215  21.289  0.00  0.00    +0.000 A 
ATOM     18  C   UNL     1       0.373  10.876  20.717  0.00  0.00    +0.000 A 
ATOM     19  C   UNL     1       1.127  11.959  20.289  0.00  0.00    +0.000 A 
ATOM     20  C   UNL     1       0.628  13.294  20.414  0.00  0.00    +0.000 A 
BRANCH  15  22
ATOM     21  C   UNL     1      -1.035  15.889  19.925  0.00  0.00    +0.000 C 
ATOM     22  N   UNL     1      -1.086  14.951  21.049  0.00  0.00    +0.000 N 
ATOM     23  C   UNL     1      -1.448  15.521  22.342  0.00  0.00    +0.000 C 
ENDBRANCH  15  22
ENDBRANCH   1  18
BRANCH  10  24
ATOM     24  C   UNL     1       5.671   5.158  16.355  0.00  0.00    +0.000 A 
ATOM     25  C   UNL     1       5.461   4.955  14.991  0.00  0.00    +0.000 A 
ATOM     26  N   UNL     1       6.709   4.799  14.436  0.00  0.00    +0.000 N 
ATOM     27  N   UNL     1       7.647   4.932  15.404  0.00  0.00    +0.000 NA
ATOM     28  N   UNL     1       7.026   5.131  16.572  0.00  0.00    +0.000 NA
BRANCH  26  29
ATOM     29  C   UNL     1       7.073   4.823  13.013  0.00  0.00    +0.000 C 
BRANCH  29  30
ATOM     30  C   UNL     1       6.670   3.614  12.184  0.00  0.00    +0.000 A 
ATOM     31  C   UNL     1       7.639   2.715  11.693  0.00  0.00    +0.000 A 
ATOM     32  C   UNL     1       7.268   1.536  11.029  0.00  0.00    +0.000 A 
ATOM     33  C   UNL     1       5.922   1.230  10.853  0.00  0.00    +0.000 A 
ATOM     34  C   UNL     1       4.952   2.098  11.346  0.00  0.00    +0.000 A 
ATOM     35  C   UNL     1       5.320   3.275  12.007  0.00  0.00    +0.000 A 
ENDBRANCH  29  30
ENDBRANCH  26  29
ENDBRANCH  10  24
TORSDOF 5
ENDMDL
MODEL 7
REMARK VINA RESULT:      -8.5      2.942     11.813
REMARK  Name = 
REMARK  7 active torsions:
REMARK  status: ('A' for Active; 'I' for Inactive)
REMARK    1  A    between atoms: C_1  and  N_2
REMARK    2  A    between atoms: N_2  and  C_3
REMARK    3  A    between atoms: N_2  and  C_4
REMARK    4  A    between atoms: C_7  and  C_8
REMARK    5  A    between atoms: C_17  and  C_18
REMARK    6  A    between atoms: N_20  and  C_21
REMARK    7  A    between atoms: C_21  and  C_22
REMARK                            x       y       z     vdW  Elec       q    Type
REMARK                         _______ _______ _______ _____ _____    ______ ____
ROOT
ATOM      1  C   UNL     1       3.433   6.137  18.300  0.00  0.00    +0.000 C 
ATOM      2  O   UNL     1       3.374   5.338  19.240  0.00  0.00    +0.000 OA
ATOM      3  N   UNL     1       2.817   7.446  18.310  0.00  0.00    +0.000 N 
ATOM      4  C   UNL     1       2.045   7.892  19.439  0.00  0.00    +0.000 A 
ATOM      5  N   UNL     1       1.821   6.977  20.387  0.00  0.00    +0.000 NA
ATOM      6  N   UNL     1       1.247   7.581  21.394  0.00  0.00    +0.000 N 
ATOM      7  C   UNL     1       0.964   8.888  21.181  0.00  0.00    +0.000 A 
ATOM      8  C   UNL     1       0.368   9.774  22.078  0.00  0.00    +0.000 A 
ATOM      9  C   UNL     1       0.109  11.066  21.656  0.00  0.00    +0.000 A 
ATOM     10  C   UNL     1       0.424  11.497  20.363  0.00  0.00    +0.000 A 
ATOM     11  C   UNL     1       1.058  10.546  19.452  0.00  0.00    +0.000 A 
ATOM     12  C   UNL     1       1.380   9.181  19.872  0.00  0.00    +0.000 A 
ATOM     13  H   UNL     1       2.958   8.098  17.559  0.00  0.00    +0.000 HD
ATOM     14  H   UNL     1       1.055   7.037  22.225  0.00  0.00    +0.000 HD
ENDROOT
BRANCH   1  18
ATOM     15  C   UNL     1       5.859   4.801  14.787  0.00  0.00    +0.000 A 
ATOM     16  C   UNL     1       5.645   6.138  15.116  0.00  0.00    +0.000 A 
ATOM     17  C   UNL     1       4.871   6.518  16.243  0.00  0.00    +0.000 A 
ATOM     18  C   UNL     1       4.263   5.590  17.137  0.00  0.00    +0.000 A 
ATOM     19  C   UNL     1       4.491   4.256  16.833  0.00  0.00    +0.000 A 
ATOM     20  C   UNL     1       5.266   3.887  15.688  0.00  0.00    +0.000 A 
BRANCH  15  22
ATOM     21  C   UNL     1       7.809   5.084  13.228  0.00  0.00    +0.000 C 
ATOM     22  N   UNL     1       6.592   4.400  13.671  0.00  0.00    +0.000 N 
ATOM     23  C   UNL     1       6.054   3.396  12.760  0.00  0.00    +0.000 C 
ENDBRANCH  15  22
ENDBRANCH   1  18
BRANCH  10  24
ATOM     24  C   UNL     1       0.055  12.909  20.057  0.00  0.00    +0.000 A 
ATOM     25  C   UNL     1       0.580  14.047  20.670  0.00  0.00    +0.000 A 
ATOM     26  N   UNL     1      -0.102  15.113  20.132  0.00  0.00    +0.000 N 
ATOM     27  N   UNL     1      -0.982  14.659  19.208  0.00  0.00    +0.000 NA
ATOM     28  N   UNL     1      -0.906  13.325  19.169  0.00  0.00    +0.000 NA
BRANCH  26  29
ATOM     29  C   UNL     1       0.234  16.540  20.230  0.00  0.00    +0.000 C 
BRANCH  29  30
ATOM     30  C   UNL     1       0.387  17.297  18.920  0.00  0.00    +0.000 A 
ATOM     31  C   UNL     1       1.578  17.215  18.170  0.00  0.00    +0.000 A 
ATOM     32  C   UNL     1       1.684  17.815  16.905  0.00  0.00    +0.000 A 
ATOM     33  C   UNL     1       0.598  18.497  16.364  0.00  0.00    +0.000 A 
ATOM     34  C   UNL     1      -0.591  18.573  17.085  0.00  0.00    +0.000 A 
ATOM     35  C   UNL     1      -0.698  17.978  18.347  0.00  0.00    +0.000 A 
ENDBRANCH  29  30
ENDBRANCH  26  29
ENDBRANCH  10  24
TORSDOF 5
ENDMDL
MODEL 8
REMARK VINA RESULT:      -8.5      1.031      1.458
REMARK  Name = 
REMARK  7 active torsions:
REMARK  status: ('A' for Active; 'I' for Inactive)
REMARK    1  A    between atoms: C_1  and  N_2
REMARK    2  A    between atoms: N_2  and  C_3
REMARK    3  A    between atoms: N_2  and  C_4
REMARK    4  A    between atoms: C_7  and  C_8
REMARK    5  A    between atoms: C_17  and  C_18
REMARK    6  A    between atoms: N_20  and  C_21
REMARK    7  A    between atoms: C_21  and  C_22
REMARK                            x       y       z     vdW  Elec       q    Type
REMARK                         _______ _______ _______ _____ _____    ______ ____
ROOT
ATOM      1  C   UNL     1       0.607   9.405  20.604  0.00  0.00    +0.000 C 
ATOM      2  O   UNL     1      -0.067   8.744  21.401  0.00  0.00    +0.000 OA
ATOM      3  N   UNL     1       1.687   8.861  19.810  0.00  0.00    +0.000 N 
ATOM      4  C   UNL     1       2.074   7.480  19.934  0.00  0.00    +0.000 A 
ATOM      5  N   UNL     1       1.477   6.796  20.914  0.00  0.00    +0.000 NA
ATOM      6  N   UNL     1       1.822   5.542  20.789  0.00  0.00    +0.000 N 
ATOM      7  C   UNL     1       2.719   5.298  19.804  0.00  0.00    +0.000 A 
ATOM      8  C   UNL     1       3.250   4.062  19.441  0.00  0.00    +0.000 A 
ATOM      9  C   UNL     1       4.202   4.021  18.437  0.00  0.00    +0.000 A 
ATOM     10  C   UNL     1       4.640   5.181  17.790  0.00  0.00    +0.000 A 
ATOM     11  C   UNL     1       4.054   6.459  18.188  0.00  0.00    +0.000 A 
ATOM     12  C   UNL     1       3.021   6.540  19.220  0.00  0.00    +0.000 A 
ATOM     13  H   UNL     1       2.157   9.412  19.114  0.00  0.00    +0.000 HD
ATOM     14  H   UNL     1       1.412   4.872  21.428  0.00  0.00    +0.000 HD
ENDROOT
BRANCH   1  18
ATOM     15  C   UNL     1      -0.992  13.583  20.530  0.00  0.00    +0.000 A 
ATOM     16  C   UNL     1      -1.543  12.556  21.295  0.00  0.00    +0.000 A 
ATOM     17  C   UNL     1      -1.001  11.245  21.292  0.00  0.00    +0.000 A 
ATOM     18  C   UNL     1       0.143  10.861  20.534  0.00  0.00    +0.000 A 
ATOM     19  C   UNL     1       0.715  11.882  19.788  0.00  0.00    +0.000 A 
ATOM     20  C   UNL     1       0.153  13.198  19.795  0.00  0.00    +0.000 A 
BRANCH  15  22
ATOM     21  C   UNL     1      -2.767  15.243  21.166  0.00  0.00    +0.000 C 
ATOM     22  N   UNL     1      -1.520  14.872  20.494  0.00  0.00    +0.000 N 
ATOM     23  C   UNL     1      -0.954  15.874  19.597  0.00  0.00    +0.000 C 
ENDBRANCH  15  22
ENDBRANCH   1  18
BRANCH  10  24
ATOM     24  C   UNL     1       5.689   4.970  16.751  0.00  0.00    +0.000 A 
ATOM     25  C   UNL     1       5.467   4.689  15.403  0.00  0.00    +0.000 A 
ATOM     26  N   UNL     1       6.710   4.497  14.848  0.00  0.00    +0.000 N 
ATOM     27  N   UNL     1       7.657   4.684  15.798  0.00  0.00    +0.000 NA
ATOM     28  N   UNL     1       7.047   4.952  16.958  0.00  0.00    +0.000 NA
BRANCH  26  29
ATOM     29  C   UNL     1       7.061   4.438  13.422  0.00  0.00    +0.000 C 
BRANCH  29  30
ATOM     30  C   UNL     1       6.243   3.495  12.555  0.00  0.00    +0.000 A 
ATOM     31  C   UNL     1       4.909   3.800  12.211  0.00  0.00    +0.000 A 
ATOM     32  C   UNL     1       4.187   2.995  11.316  0.00  0.00    +0.000 A 
ATOM     33  C   UNL     1       4.788   1.878  10.742  0.00  0.00    +0.000 A 
ATOM     34  C   UNL     1       6.108   1.573  11.058  0.00  0.00    +0.000 A 
ATOM     35  C   UNL     1       6.830   2.373  11.952  0.00  0.00    +0.000 A 
ENDBRANCH  29  30
ENDBRANCH  26  29
ENDBRANCH  10  24
TORSDOF 5
ENDMDL
MODEL 9
REMARK VINA RESULT:      -8.3      1.425      2.107
REMARK  Name = 
REMARK  7 active torsions:
REMARK  status: ('A' for Active; 'I' for Inactive)
REMARK    1  A    between atoms: C_1  and  N_2
REMARK    2  A    between atoms: N_2  and  C_3
REMARK    3  A    between atoms: N_2  and  C_4
REMARK    4  A    between atoms: C_7  and  C_8
REMARK    5  A    between atoms: C_17  and  C_18
REMARK    6  A    between atoms: N_20  and  C_21
REMARK    7  A    between atoms: C_21  and  C_22
REMARK                            x       y       z     vdW  Elec       q    Type
REMARK                         _______ _______ _______ _____ _____    ______ ____
ROOT
ATOM      1  C   UNL     1       0.513  10.094  19.850  0.00  0.00    +0.000 C 
ATOM      2  O   UNL     1      -0.169   9.435  20.643  0.00  0.00    +0.000 OA
ATOM      3  N   UNL     1       1.613   9.552  19.083  0.00  0.00    +0.000 N 
ATOM      4  C   UNL     1       2.012   8.177  19.230  0.00  0.00    +0.000 A 
ATOM      5  N   UNL     1       1.404   7.499  20.207  0.00  0.00    +0.000 NA
ATOM      6  N   UNL     1       1.765   6.247  20.104  0.00  0.00    +0.000 N 
ATOM      7  C   UNL     1       2.682   6.001  19.139  0.00  0.00    +0.000 A 
ATOM      8  C   UNL     1       3.233   4.766  18.800  0.00  0.00    +0.000 A 
ATOM      9  C   UNL     1       4.204   4.724  17.815  0.00  0.00    +0.000 A 
ATOM     10  C   UNL     1       4.642   5.881  17.161  0.00  0.00    +0.000 A 
ATOM     11  C   UNL     1       4.035   7.157  17.533  0.00  0.00    +0.000 A 
ATOM     12  C   UNL     1       2.982   7.239  18.545  0.00  0.00    +0.000 A 
ATOM     13  H   UNL     1       2.089  10.100  18.389  0.00  0.00    +0.000 HD
ATOM     14  H   UNL     1       1.350   5.580  20.743  0.00  0.00    +0.000 HD
ENDROOT
BRANCH   1  18
ATOM     15  C   UNL     1      -0.621  14.407  19.492  0.00  0.00    +0.000 A 
ATOM     16  C   UNL     1       0.567  13.875  18.995  0.00  0.00    +0.000 A 
ATOM     17  C   UNL     1       0.886  12.499  19.127  0.00  0.00    +0.000 A 
ATOM     18  C   UNL     1       0.034  11.544  19.754  0.00  0.00    +0.000 A 
ATOM     19  C   UNL     1      -1.164  12.058  20.230  0.00  0.00    +0.000 A 
ATOM     20  C   UNL     1      -1.468  13.450  20.097  0.00  0.00    +0.000 A 
BRANCH  15  22
ATOM     21  C   UNL     1      -2.051  16.366  20.145  0.00  0.00    +0.000 C 
ATOM     22  N   UNL     1      -0.947  15.759  19.399  0.00  0.00    +0.000 N 
ATOM     23  C   UNL     1      -0.325  16.597  18.380  0.00  0.00    +0.000 C 
ENDBRANCH  15  22
ENDBRANCH   1  18
BRANCH  10  24
ATOM     24  C   UNL     1       5.712   5.668  16.145  0.00  0.00    +0.000 A 
ATOM     25  C   UNL     1       5.560   5.035  14.911  0.00  0.00    +0.000 A 
ATOM     26  N   UNL     1       6.815   4.998  14.350  0.00  0.00    +0.000 N 
ATOM     27  N   UNL     1       7.693   5.610  15.179  0.00  0.00    +0.000 NA
ATOM     28  N   UNL     1       7.037   6.002  16.277  0.00  0.00    +0.000 NA
BRANCH  26  29
ATOM     29  C   UNL     1       7.171   4.684  12.959  0.00  0.00    +0.000 C 
BRANCH  29  30
ATOM     30  C   UNL     1       6.386   3.568  12.288  0.00  0.00    +0.000 A 
ATOM     31  C   UNL     1       5.005   3.701  12.040  0.00  0.00    +0.000 A 
ATOM     32  C   UNL     1       4.298   2.727  11.316  0.00  0.00    +0.000 A 
ATOM     33  C   UNL     1       4.962   1.609  10.821  0.00  0.00    +0.000 A 
ATOM     34  C   UNL     1       6.329   1.471  11.043  0.00  0.00    +0.000 A 
ATOM     35  C   UNL     1       7.035   2.440  11.765  0.00  0.00    +0.000 A 
ENDBRANCH  29  30
ENDBRANCH  26  29
ENDBRANCH  10  24
TORSDOF 5
ENDMDL
