MODEL 1
REMARK VINA RESULT:      -6.8      0.000      0.000
REMARK  Name = 
REMARK  5 active torsions:
REMARK  status: ('A' for Active; 'I' for Inactive)
REMARK    1  A    between atoms: C_1  and  C_2
REMARK    2  A    between atoms: C_2  and  C_3
REMARK    3  A    between atoms: C_5  and  S_6
REMARK    4  A    between atoms: C_11  and  C_12
REMARK    5  A    between atoms: C_15  and  C_16
REMARK                            x       y       z     vdW  Elec       q    Type
REMARK                         _______ _______ _______ _____ _____    ______ ____
ROOT
ATOM      1  C   UNL     1       1.524   9.308  22.590  0.00  0.00    +0.000 C 
ATOM      2  C   UNL     1       0.500   9.288  21.446  0.00  0.00    +0.000 C 
ATOM      3  C   UNL     1      -0.604   8.257  21.714  0.00  0.00    +0.000 C 
ATOM      4  O   UNL     1      -0.145  10.580  21.480  0.00  0.00    +0.000 OA
ATOM      5  C   UNL     1      -0.173  11.363  20.379  0.00  0.00    +0.000 C 
ATOM      6  N   UNL     1       0.379  11.090  19.247  0.00  0.00    +0.000 NA
ATOM      7  C   UNL     1       1.078   9.898  19.100  0.00  0.00    +0.000 A 
ATOM      8  C   UNL     1       1.690   9.631  17.874  0.00  0.00    +0.000 A 
ATOM      9  C   UNL     1       2.404   8.450  17.677  0.00  0.00    +0.000 A 
ATOM     10  C   UNL     1       2.511   7.516  18.708  0.00  0.00    +0.000 A 
ATOM     11  C   UNL     1       1.893   7.780  19.934  0.00  0.00    +0.000 A 
ATOM     12  C   UNL     1       1.179   8.975  20.135  0.00  0.00    +0.000 A 
ENDROOT
BRANCH  10  13
ATOM     13  C   UNL     1       3.290   6.303  18.512  0.00  0.00    +0.000 A 
ATOM     14  C   UNL     1       4.071   6.091  17.393  0.00  0.00    +0.000 A 
ATOM     15  S   UNL     1       4.898   4.595  17.455  0.00  0.00    +0.000 S 
ATOM     16  C   UNL     1       4.220   4.210  18.973  0.00  0.00    +0.000 A 
ATOM     17  C   UNL     1       3.367   5.196  19.416  0.00  0.00    +0.000 A 
BRANCH  16  18
ATOM     18  C   UNL     1       4.513   3.010  19.691  0.00  0.00    +0.000 C 
ATOM     19  N   UNL     1       4.745   2.052  20.297  0.00  0.00    +0.000 NA
ENDBRANCH  16  18
ENDBRANCH  10  13
BRANCH   5  20
ATOM     20  S   UNL     1      -1.036  12.873  20.539  0.00  0.00    +0.000 S 
ATOM     21  H   UNL     1      -2.248  12.349  20.325  0.00  0.00    +0.000 HD
ENDBRANCH   5  20
TORSDOF 3
ENDMDL
MODEL 2
REMARK VINA RESULT:      -6.8      1.418      1.626
REMARK  Name = 
REMARK  5 active torsions:
REMARK  status: ('A' for Active; 'I' for Inactive)
REMARK    1  A    between atoms: C_1  and  C_2
REMARK    2  A    between atoms: C_2  and  C_3
REMARK    3  A    between atoms: C_5  and  S_6
REMARK    4  A    between atoms: C_11  and  C_12
REMARK    5  A    between atoms: C_15  and  C_16
REMARK                            x       y       z     vdW  Elec       q    Type
REMARK                         _______ _______ _______ _____ _____    ______ ____
ROOT
ATOM      1  C   UNL     1       1.516   9.353  22.513  0.00  0.00    +0.000 C 
ATOM      2  C   UNL     1       0.490   9.227  21.377  0.00  0.00    +0.000 C 
ATOM      3  C   UNL     1      -0.550   8.144  21.693  0.00  0.00    +0.000 C 
ATOM      4  O   UNL     1      -0.230  10.480  21.365  0.00  0.00    +0.000 OA
ATOM      5  C   UNL     1      -0.309  11.215  20.235  0.00  0.00    +0.000 C 
ATOM      6  N   UNL     1       0.253  10.932  19.110  0.00  0.00    +0.000 NA
ATOM      7  C   UNL     1       1.020   9.777  19.005  0.00  0.00    +0.000 A 
ATOM      8  C   UNL     1       1.642   9.499  17.786  0.00  0.00    +0.000 A 
ATOM      9  C   UNL     1       2.423   8.355  17.631  0.00  0.00    +0.000 A 
ATOM     10  C   UNL     1       2.590   7.470  18.697  0.00  0.00    +0.000 A 
ATOM     11  C   UNL     1       1.963   7.746  19.915  0.00  0.00    +0.000 A 
ATOM     12  C   UNL     1       1.180   8.904  20.075  0.00  0.00    +0.000 A 
ENDROOT
BRANCH  10  13
ATOM     13  C   UNL     1       3.438   6.298  18.544  0.00  0.00    +0.000 A 
ATOM     14  C   UNL     1       3.040   5.034  18.935  0.00  0.00    +0.000 A 
ATOM     15  S   UNL     1       4.228   3.849  18.598  0.00  0.00    +0.000 S 
ATOM     16  C   UNL     1       5.288   5.009  17.932  0.00  0.00    +0.000 A 
ATOM     17  C   UNL     1       4.754   6.277  17.980  0.00  0.00    +0.000 A 
BRANCH  16  18
ATOM     18  C   UNL     1       6.570   4.691  17.388  0.00  0.00    +0.000 C 
ATOM     19  N   UNL     1       7.617   4.459  16.955  0.00  0.00    +0.000 NA
ENDBRANCH  16  18
ENDBRANCH  10  13
BRANCH   5  20
ATOM     20  S   UNL     1      -1.259  12.677  20.341  0.00  0.00    +0.000 S 
ATOM     21  H   UNL     1      -0.630  13.158  21.419  0.00  0.00    +0.000 HD
ENDBRANCH   5  20
TORSDOF 3
ENDMDL
MODEL 3
REMARK VINA RESULT:      -6.2      2.108      3.161
REMARK  Name = 
REMARK  5 active torsions:
REMARK  status: ('A' for Active; 'I' for Inactive)
REMARK    1  A    between atoms: C_1  and  C_2
REMARK    2  A    between atoms: C_2  and  C_3
REMARK    3  A    between atoms: C_5  and  S_6
REMARK    4  A    between atoms: C_11  and  C_12
REMARK    5  A    between atoms: C_15  and  C_16
REMARK                            x       y       z     vdW  Elec       q    Type
REMARK                         _______ _______ _______ _____ _____    ______ ____
ROOT
ATOM      1  C   UNL     1      -0.672  10.560  17.871  0.00  0.00    +0.000 C 
ATOM      2  C   UNL     1       0.268  10.865  19.047  0.00  0.00    +0.000 C 
ATOM      3  C   UNL     1       1.404  11.800  18.615  0.00  0.00    +0.000 C 
ATOM      4  O   UNL     1      -0.527  11.615  19.993  0.00  0.00    +0.000 OA
ATOM      5  C   UNL     1      -0.641  11.201  21.274  0.00  0.00    +0.000 C 
ATOM      6  N   UNL     1      -0.127  10.127  21.767  0.00  0.00    +0.000 NA
ATOM      7  C   UNL     1       0.618   9.290  20.946  0.00  0.00    +0.000 A 
ATOM      8  C   UNL     1       1.147   8.119  21.492  0.00  0.00    +0.000 A 
ATOM      9  C   UNL     1       1.900   7.244  20.709  0.00  0.00    +0.000 A 
ATOM     10  C   UNL     1       2.135   7.535  19.364  0.00  0.00    +0.000 A 
ATOM     11  C   UNL     1       1.610   8.710  18.819  0.00  0.00    +0.000 A 
ATOM     12  C   UNL     1       0.845   9.589  19.607  0.00  0.00    +0.000 A 
ENDROOT
BRANCH  10  13
ATOM     13  C   UNL     1       2.887   6.601  18.540  0.00  0.00    +0.000 A 
ATOM     14  C   UNL     1       2.663   5.238  18.563  0.00  0.00    +0.000 A 
ATOM     15  S   UNL     1       3.669   4.398  17.464  0.00  0.00    +0.000 S 
ATOM     16  C   UNL     1       4.419   5.842  16.947  0.00  0.00    +0.000 A 
ATOM     17  C   UNL     1       3.923   6.941  17.612  0.00  0.00    +0.000 A 
BRANCH  16  18
ATOM     18  C   UNL     1       5.432   5.893  15.943  0.00  0.00    +0.000 C 
ATOM     19  N   UNL     1       6.264   5.958  15.141  0.00  0.00    +0.000 NA
ENDBRANCH  16  18
ENDBRANCH  10  13
BRANCH   5  20
ATOM     20  S   UNL     1      -1.581  12.230  22.327  0.00  0.00    +0.000 S 
ATOM     21  H   UNL     1      -0.748  12.138  23.370  0.00  0.00    +0.000 HD
ENDBRANCH   5  20
TORSDOF 3
ENDMDL
MODEL 4
REMARK VINA RESULT:      -6.1      2.301      3.482
REMARK  Name = 
REMARK  5 active torsions:
REMARK  status: ('A' for Active; 'I' for Inactive)
REMARK    1  A    between atoms: C_1  and  C_2
REMARK    2  A    between atoms: C_2  and  C_3
REMARK    3  A    between atoms: C_5  and  S_6
REMARK    4  A    between atoms: C_11  and  C_12
REMARK    5  A    between atoms: C_15  and  C_16
REMARK                            x       y       z     vdW  Elec       q    Type
REMARK                         _______ _______ _______ _____ _____    ______ ____
ROOT
ATOM      1  C   UNL     1      -1.767  10.687  18.327  0.00  0.00    +0.000 C 
ATOM      2  C   UNL     1      -0.819  11.298  19.369  0.00  0.00    +0.000 C 
ATOM      3  C   UNL     1       0.139  12.305  18.718  0.00  0.00    +0.000 C 
ATOM      4  O   UNL     1      -1.662  12.067  20.255  0.00  0.00    +0.000 OA
ATOM      5  C   UNL     1      -1.640  11.844  21.588  0.00  0.00    +0.000 C 
ATOM      6  N   UNL     1      -0.944  10.942  22.189  0.00  0.00    +0.000 NA
ATOM      7  C   UNL     1      -0.130  10.099  21.442  0.00  0.00    +0.000 A 
ATOM      8  C   UNL     1       0.599   9.112  22.109  0.00  0.00    +0.000 A 
ATOM      9  C   UNL     1       1.428   8.241  21.403  0.00  0.00    +0.000 A 
ATOM     10  C   UNL     1       1.541   8.350  20.016  0.00  0.00    +0.000 A 
ATOM     11  C   UNL     1       0.816   9.343  19.350  0.00  0.00    +0.000 A 
ATOM     12  C   UNL     1      -0.026  10.217  20.060  0.00  0.00    +0.000 A 
ENDROOT
BRANCH  10  13
ATOM     13  C   UNL     1       2.376   7.415  19.279  0.00  0.00    +0.000 A 
ATOM     14  C   UNL     1       2.481   6.080  19.620  0.00  0.00    +0.000 A 
ATOM     15  S   UNL     1       3.504   5.218  18.554  0.00  0.00    +0.000 S 
ATOM     16  C   UNL     1       3.824   6.616  17.628  0.00  0.00    +0.000 A 
ATOM     17  C   UNL     1       3.176   7.722  18.133  0.00  0.00    +0.000 A 
BRANCH  16  18
ATOM     18  C   UNL     1       4.659   6.626  16.470  0.00  0.00    +0.000 C 
ATOM     19  N   UNL     1       5.315   6.621  15.517  0.00  0.00    +0.000 NA
ENDBRANCH  16  18
ENDBRANCH  10  13
BRANCH   5  20
ATOM     20  S   UNL     1      -2.662  12.882  22.551  0.00  0.00    +0.000 S 
ATOM     21  H   UNL     1      -2.266  14.022  21.973  0.00  0.00    +0.000 HD
ENDBRANCH   5  20
TORSDOF 3
ENDMDL
MODEL 5
REMARK VINA RESULT:      -6.1      2.852      6.974
REMARK  Name = 
REMARK  5 active torsions:
REMARK  status: ('A' for Active; 'I' for Inactive)
REMARK    1  A    between atoms: C_1  and  C_2
REMARK    2  A    between atoms: C_2  and  C_3
REMARK    3  A    between atoms: C_5  and  S_6
REMARK    4  A    between atoms: C_11  and  C_12
REMARK    5  A    between atoms: C_15  and  C_16
REMARK                            x       y       z     vdW  Elec       q    Type
REMARK                         _______ _______ _______ _____ _____    ______ ____
ROOT
ATOM      1  C   UNL     1       0.423   3.337  20.136  0.00  0.00    +0.000 C 
ATOM      2  C   UNL     1       1.929   3.592  20.284  0.00  0.00    +0.000 C 
ATOM      3  C   UNL     1       2.336   3.637  21.763  0.00  0.00    +0.000 C 
ATOM      4  O   UNL     1       2.576   2.424  19.730  0.00  0.00    +0.000 OA
ATOM      5  C   UNL     1       3.495   2.551  18.748  0.00  0.00    +0.000 C 
ATOM      6  N   UNL     1       3.853   3.655  18.188  0.00  0.00    +0.000 NA
ATOM      7  C   UNL     1       3.266   4.847  18.596  0.00  0.00    +0.000 A 
ATOM      8  C   UNL     1       3.647   6.030  17.961  0.00  0.00    +0.000 A 
ATOM      9  C   UNL     1       3.086   7.250  18.333  0.00  0.00    +0.000 A 
ATOM     10  C   UNL     1       2.133   7.302  19.351  0.00  0.00    +0.000 A 
ATOM     11  C   UNL     1       1.755   6.118  19.991  0.00  0.00    +0.000 A 
ATOM     12  C   UNL     1       2.317   4.885  19.612  0.00  0.00    +0.000 A 
ENDROOT
BRANCH  10  13
ATOM     13  C   UNL     1       1.520   8.571  19.710  0.00  0.00    +0.000 A 
ATOM     14  C   UNL     1       1.343   9.597  18.801  0.00  0.00    +0.000 A 
ATOM     15  S   UNL     1       0.564  10.951  19.498  0.00  0.00    +0.000 S 
ATOM     16  C   UNL     1       0.458  10.188  21.021  0.00  0.00    +0.000 A 
ATOM     17  C   UNL     1       1.020   8.931  21.002  0.00  0.00    +0.000 A 
BRANCH  16  18
ATOM     18  C   UNL     1      -0.148  10.787  22.167  0.00  0.00    +0.000 C 
ATOM     19  N   UNL     1      -0.633  11.248  23.111  0.00  0.00    +0.000 NA
ENDBRANCH  16  18
ENDBRANCH  10  13
BRANCH   5  20
ATOM     20  S   UNL     1       4.244   1.067  18.209  0.00  0.00    +0.000 S 
ATOM     21  H   UNL     1       5.122   0.995  19.215  0.00  0.00    +0.000 HD
ENDBRANCH   5  20
TORSDOF 3
ENDMDL
MODEL 6
REMARK VINA RESULT:      -6.1      1.560      2.766
REMARK  Name = 
REMARK  5 active torsions:
REMARK  status: ('A' for Active; 'I' for Inactive)
REMARK    1  A    between atoms: C_1  and  C_2
REMARK    2  A    between atoms: C_2  and  C_3
REMARK    3  A    between atoms: C_5  and  S_6
REMARK    4  A    between atoms: C_11  and  C_12
REMARK    5  A    between atoms: C_15  and  C_16
REMARK                            x       y       z     vdW  Elec       q    Type
REMARK                         _______ _______ _______ _____ _____    ______ ____
ROOT
ATOM      1  C   UNL     1      -1.237  10.853  18.004  0.00  0.00    +0.000 C 
ATOM      2  C   UNL     1      -0.394  11.345  19.189  0.00  0.00    +0.000 C 
ATOM      3  C   UNL     1       0.714  12.297  18.718  0.00  0.00    +0.000 C 
ATOM      4  O   UNL     1      -1.288  12.145  19.995  0.00  0.00    +0.000 OA
ATOM      5  C   UNL     1      -1.461  11.869  21.306  0.00  0.00    +0.000 C 
ATOM      6  N   UNL     1      -0.920  10.892  21.949  0.00  0.00    +0.000 NA
ATOM      7  C   UNL     1      -0.077  10.016  21.273  0.00  0.00    +0.000 A 
ATOM      8  C   UNL     1       0.480   8.949  21.980  0.00  0.00    +0.000 A 
ATOM      9  C   UNL     1       1.330   8.043  21.346  0.00  0.00    +0.000 A 
ATOM     10  C   UNL     1       1.634   8.196  19.993  0.00  0.00    +0.000 A 
ATOM     11  C   UNL     1       1.080   9.269  19.287  0.00  0.00    +0.000 A 
ATOM     12  C   UNL     1       0.218  10.179  19.924  0.00  0.00    +0.000 A 
ENDROOT
BRANCH  10  13
ATOM     13  C   UNL     1       2.489   7.227  19.326  0.00  0.00    +0.000 A 
ATOM     14  C   UNL     1       2.989   7.425  18.053  0.00  0.00    +0.000 A 
ATOM     15  S   UNL     1       3.991   6.136  17.543  0.00  0.00    +0.000 S 
ATOM     16  C   UNL     1       3.766   5.296  19.012  0.00  0.00    +0.000 A 
ATOM     17  C   UNL     1       2.930   5.977  19.867  0.00  0.00    +0.000 A 
BRANCH  16  18
ATOM     18  C   UNL     1       4.380   4.041  19.309  0.00  0.00    +0.000 C 
ATOM     19  N   UNL     1       4.901   3.037  19.555  0.00  0.00    +0.000 NA
ENDBRANCH  16  18
ENDBRANCH  10  13
BRANCH   5  20
ATOM     20  S   UNL     1      -2.523  12.947  22.179  0.00  0.00    +0.000 S 
ATOM     21  H   UNL     1      -3.657  12.365  21.772  0.00  0.00    +0.000 HD
ENDBRANCH   5  20
TORSDOF 3
ENDMDL
MODEL 7
REMARK VINA RESULT:      -6.0      1.708      2.728
REMARK  Name = 
REMARK  5 active torsions:
REMARK  status: ('A' for Active; 'I' for Inactive)
REMARK    1  A    between atoms: C_1  and  C_2
REMARK    2  A    between atoms: C_2  and  C_3
REMARK    3  A    between atoms: C_5  and  S_6
REMARK    4  A    between atoms: C_11  and  C_12
REMARK    5  A    between atoms: C_15  and  C_16
REMARK                            x       y       z     vdW  Elec       q    Type
REMARK                         _______ _______ _______ _____ _____    ______ ____
ROOT
ATOM      1  C   UNL     1      -0.764  10.971  18.223  0.00  0.00    +0.000 C 
ATOM      2  C   UNL     1       0.303  11.276  19.283  0.00  0.00    +0.000 C 
ATOM      3  C   UNL     1       1.459  12.087  18.683  0.00  0.00    +0.000 C 
ATOM      4  O   UNL     1      -0.340  12.147  20.240  0.00  0.00    +0.000 OA
ATOM      5  C   UNL     1      -0.361  11.828  21.553  0.00  0.00    +0.000 C 
ATOM      6  N   UNL     1       0.118  10.751  22.074  0.00  0.00    +0.000 NA
ATOM      7  C   UNL     1       0.717   9.805  21.251  0.00  0.00    +0.000 A 
ATOM      8  C   UNL     1       1.209   8.633  21.831  0.00  0.00    +0.000 A 
ATOM      9  C   UNL     1       1.817   7.653  21.047  0.00  0.00    +0.000 A 
ATOM     10  C   UNL     1       1.942   7.835  19.669  0.00  0.00    +0.000 A 
ATOM     11  C   UNL     1       1.456   9.011  19.091  0.00  0.00    +0.000 A 
ATOM     12  C   UNL     1       0.837   9.997  19.880  0.00  0.00    +0.000 A 
ENDROOT
BRANCH  10  13
ATOM     13  C   UNL     1       2.541   6.793  18.850  0.00  0.00    +0.000 A 
ATOM     14  C   UNL     1       3.614   7.029  18.011  0.00  0.00    +0.000 A 
ATOM     15  S   UNL     1       4.126   5.611  17.203  0.00  0.00    +0.000 S 
ATOM     16  C   UNL     1       2.921   4.667  17.958  0.00  0.00    +0.000 A 
ATOM     17  C   UNL     1       2.133   5.423  18.797  0.00  0.00    +0.000 A 
BRANCH  16  18
ATOM     18  C   UNL     1       2.761   3.265  17.742  0.00  0.00    +0.000 C 
ATOM     19  N   UNL     1       2.610   2.128  17.585  0.00  0.00    +0.000 NA
ENDBRANCH  16  18
ENDBRANCH  10  13
BRANCH   5  20
ATOM     20  S   UNL     1      -1.117  12.995  22.610  0.00  0.00    +0.000 S 
ATOM     21  H   UNL     1      -2.180  12.236  22.897  0.00  0.00    +0.000 HD
ENDBRANCH   5  20
TORSDOF 3
ENDMDL
MODEL 8
REMARK VINA RESULT:      -6.0      2.897      7.146
REMARK  Name = 
REMARK  5 active torsions:
REMARK  status: ('A' for Active; 'I' for Inactive)
REMARK    1  A    between atoms: C_1  and  C_2
REMARK    2  A    between atoms: C_2  and  C_3
REMARK    3  A    between atoms: C_5  and  S_6
REMARK    4  A    between atoms: C_11  and  C_12
REMARK    5  A    between atoms: C_15  and  C_16
REMARK                            x       y       z     vdW  Elec       q    Type
REMARK                         _______ _______ _______ _____ _____    ______ ____
ROOT
ATOM      1  C   UNL     1       2.160   3.478  18.142  0.00  0.00    +0.000 C 
ATOM      2  C   UNL     1       3.492   4.221  18.316  0.00  0.00    +0.000 C 
ATOM      3  C   UNL     1       4.149   3.865  19.656  0.00  0.00    +0.000 C 
ATOM      4  O   UNL     1       4.366   3.695  17.292  0.00  0.00    +0.000 OA
ATOM      5  C   UNL     1       4.973   4.525  16.415  0.00  0.00    +0.000 C 
ATOM      6  N   UNL     1       4.820   5.803  16.358  0.00  0.00    +0.000 NA
ATOM      7  C   UNL     1       3.963   6.427  17.257  0.00  0.00    +0.000 A 
ATOM      8  C   UNL     1       3.791   7.810  17.164  0.00  0.00    +0.000 A 
ATOM      9  C   UNL     1       2.940   8.482  18.041  0.00  0.00    +0.000 A 
ATOM     10  C   UNL     1       2.251   7.775  19.028  0.00  0.00    +0.000 A 
ATOM     11  C   UNL     1       2.428   6.392  19.124  0.00  0.00    +0.000 A 
ATOM     12  C   UNL     1       3.281   5.713  18.235  0.00  0.00    +0.000 A 
ENDROOT
BRANCH  10  13
ATOM     13  C   UNL     1       1.334   8.473  19.916  0.00  0.00    +0.000 A 
ATOM     14  C   UNL     1       1.067   8.041  21.201  0.00  0.00    +0.000 A 
ATOM     15  S   UNL     1      -0.018   9.079  22.019  0.00  0.00    +0.000 S 
ATOM     16  C   UNL     1      -0.149  10.114  20.668  0.00  0.00    +0.000 A 
ATOM     17  C   UNL     1       0.607   9.667  19.608  0.00  0.00    +0.000 A 
BRANCH  16  18
ATOM     18  C   UNL     1      -0.945  11.299  20.652  0.00  0.00    +0.000 C 
ATOM     19  N   UNL     1      -1.611  12.246  20.651  0.00  0.00    +0.000 NA
ENDBRANCH  16  18
ENDBRANCH  10  13
BRANCH   5  20
ATOM     20  S   UNL     1       6.049   3.767  15.267  0.00  0.00    +0.000 S 
ATOM     21  H   UNL     1       7.153   3.926  16.005  0.00  0.00    +0.000 HD
ENDBRANCH   5  20
TORSDOF 3
ENDMDL
MODEL 9
REMARK VINA RESULT:      -5.9      3.608      8.561
REMARK  Name = 
REMARK  5 active torsions:
REMARK  status: ('A' for Active; 'I' for Inactive)
REMARK    1  A    between atoms: C_1  and  C_2
REMARK    2  A    between atoms: C_2  and  C_3
REMARK    3  A    between atoms: C_5  and  S_6
REMARK    4  A    between atoms: C_11  and  C_12
REMARK    5  A    between atoms: C_15  and  C_16
REMARK                            x       y       z     vdW  Elec       q    Type
REMARK                         _______ _______ _______ _____ _____    ______ ____
ROOT
ATOM      1  C   UNL     1       1.505  11.422  18.805  0.00  0.00    +0.000 C 
ATOM      2  C   UNL     1       0.648  10.187  19.116  0.00  0.00    +0.000 C 
ATOM      3  C   UNL     1      -0.551  10.095  18.163  0.00  0.00    +0.000 C 
ATOM      4  O   UNL     1       1.486   9.049  18.812  0.00  0.00    +0.000 OA
ATOM      5  C   UNL     1       1.712   8.096  19.743  0.00  0.00    +0.000 C 
ATOM      6  N   UNL     1       1.276   8.108  20.955  0.00  0.00    +0.000 NA
ATOM      7  C   UNL     1       0.500   9.176  21.389  0.00  0.00    +0.000 A 
ATOM      8  C   UNL     1       0.057   9.184  22.713  0.00  0.00    +0.000 A 
ATOM      9  C   UNL     1      -0.722  10.235  23.196  0.00  0.00    +0.000 A 
ATOM     10  C   UNL     1      -1.070  11.293  22.356  0.00  0.00    +0.000 A 
ATOM     11  C   UNL     1      -0.630  11.282  21.029  0.00  0.00    +0.000 A 
ATOM     12  C   UNL     1       0.161  10.226  20.543  0.00  0.00    +0.000 A 
ENDROOT
BRANCH  10  13
ATOM     13  C   UNL     1      -1.849  12.407  22.875  0.00  0.00    +0.000 A 
ATOM     14  C   UNL     1      -1.268  13.572  23.337  0.00  0.00    +0.000 A 
ATOM     15  S   UNL     1      -2.431  14.716  23.850  0.00  0.00    +0.000 S 
ATOM     16  C   UNL     1      -3.724  13.669  23.466  0.00  0.00    +0.000 A 
ATOM     17  C   UNL     1      -3.276  12.465  22.972  0.00  0.00    +0.000 A 
BRANCH  16  18
ATOM     18  C   UNL     1      -5.100  14.013  23.635  0.00  0.00    +0.000 C 
ATOM     19  N   UNL     1      -6.209  14.317  23.760  0.00  0.00    +0.000 NA
ENDBRANCH  16  18
ENDBRANCH  10  13
BRANCH   5  20
ATOM     20  S   UNL     1       2.693   6.745  19.227  0.00  0.00    +0.000 S 
ATOM     21  H   UNL     1       3.531   6.793  20.269  0.00  0.00    +0.000 HD
ENDBRANCH   5  20
TORSDOF 3
ENDMDL
