MODEL 1
REMARK VINA RESULT:      -7.8      0.000      0.000
REMARK  Name = 
REMARK  11 active torsions:
REMARK  status: ('A' for Active; 'I' for Inactive)
REMARK    1  A    between atoms: C_1  and  C_2
REMARK    2  A    between atoms: C_2  and  C_3
REMARK    3  A    between atoms: C_2  and  C_4
REMARK    4  A    between atoms: C_2  and  O_5
REMARK    5  A    between atoms: O_5  and  C_6
REMARK    6  A    between atoms: N_8  and  C_9
REMARK    7  A    between atoms: C_15  and  N_16
REMARK    8  A    between atoms: N_19  and  C_20
REMARK    9  A    between atoms: C_24  and  C_25
REMARK   10  A    between atoms: C_29  and  C_30
REMARK   11  A    between atoms: C_29  and  C_31
REMARK                            x       y       z     vdW  Elec       q    Type
REMARK                         _______ _______ _______ _____ _____    ______ ____
ROOT
ATOM      1  C   UNL     1       8.728  11.769  22.568  0.00  0.00    +0.000 A 
ATOM      2  C   UNL     1       9.539  12.910  22.573  0.00  0.00    +0.000 A 
ATOM      3  C   UNL     1      10.161  13.364  21.419  0.00  0.00    +0.000 A 
ATOM      4  C   UNL     1      10.010  12.667  20.233  0.00  0.00    +0.000 A 
ATOM      5  C   UNL     1       9.277  11.474  20.199  0.00  0.00    +0.000 A 
ATOM      6  C   UNL     1       8.628  11.033  21.380  0.00  0.00    +0.000 A 
ATOM      7  C   UNL     1       9.103  10.764  18.879  0.00  0.00    +0.000 C 
ATOM      8  C   UNL     1      10.176  11.219  17.877  0.00  0.00    +0.000 C 
ATOM      9  C   UNL     1      10.307  12.750  17.864  0.00  0.00    +0.000 C 
ATOM     10  C   UNL     1      11.497  13.158  16.980  0.00  0.00    +0.000 C 
ATOM     11  C   UNL     1       9.055  13.472  17.346  0.00  0.00    +0.000 C 
ATOM     12  O   UNL     1      10.631  13.247  19.167  0.00  0.00    +0.000 OA
ENDROOT
BRANCH   7  13
ATOM     13  N   UNL     1       9.107   9.308  19.029  0.00  0.00    +0.000 N 
ATOM     14  C   UNL     1       8.189   8.562  18.325  0.00  0.00    +0.000 C 
ATOM     15  O   UNL     1       7.371   9.090  17.587  0.00  0.00    +0.000 OA
ATOM     16  N   UNL     1       8.285   7.213  18.602  0.00  0.00    +0.000 N 
ATOM     17  H   UNL     1       9.992   8.875  19.254  0.00  0.00    +0.000 HD
ATOM     18  H   UNL     1       8.810   6.971  19.430  0.00  0.00    +0.000 HD
BRANCH  16  19
ATOM     19  C   UNL     1       7.468   6.203  18.036  0.00  0.00    +0.000 A 
ATOM     20  C   UNL     1       7.445   5.925  16.665  0.00  0.00    +0.000 A 
ATOM     21  C   UNL     1       6.583   4.961  16.138  0.00  0.00    +0.000 A 
ATOM     22  C   UNL     1       5.729   4.256  16.981  0.00  0.00    +0.000 A 
ATOM     23  C   UNL     1       5.753   4.504  18.355  0.00  0.00    +0.000 A 
ATOM     24  C   UNL     1       6.634   5.463  18.884  0.00  0.00    +0.000 A 
BRANCH  23  25
ATOM     25  C   UNL     1       4.850   3.801  19.218  0.00  0.00    +0.000 C 
ATOM     26  N   UNL     1       4.114   3.226  19.906  0.00  0.00    +0.000 NA
ENDBRANCH  23  25
ENDBRANCH  16  19
ENDBRANCH   7  13
BRANCH   1  29
ATOM     27  C   UNL     1       6.736  11.849  24.009  0.00  0.00    +0.000 C 
ATOM     28  O   UNL     1       6.117  12.633  23.300  0.00  0.00    +0.000 OA
ATOM     29  N   UNL     1       7.995  11.373  23.718  0.00  0.00    +0.000 N 
ATOM     30  H   UNL     1       8.309  10.593  24.272  0.00  0.00    +0.000 HD
BRANCH  27  31
ATOM     31  O   UNL     1       6.218  11.311  25.148  0.00  0.00    +0.000 OA
BRANCH  31  33
ATOM     32  C   UNL     1       6.622  11.171  27.582  0.00  0.00    +0.000 C 
ATOM     33  C   UNL     1       6.428  12.100  26.370  0.00  0.00    +0.000 C 
ATOM     34  C   UNL     1       5.282  13.104  26.606  0.00  0.00    +0.000 C 
ATOM     35  C   UNL     1       7.737  12.893  26.201  0.00  0.00    +0.000 C 
ENDBRANCH  31  33
ENDBRANCH  27  31
ENDBRANCH   1  29
TORSDOF 6
ENDMDL
MODEL 2
REMARK VINA RESULT:      -7.4      4.633      8.189
REMARK  Name = 
REMARK  11 active torsions:
REMARK  status: ('A' for Active; 'I' for Inactive)
REMARK    1  A    between atoms: C_1  and  C_2
REMARK    2  A    between atoms: C_2  and  C_3
REMARK    3  A    between atoms: C_2  and  C_4
REMARK    4  A    between atoms: C_2  and  O_5
REMARK    5  A    between atoms: O_5  and  C_6
REMARK    6  A    between atoms: N_8  and  C_9
REMARK    7  A    between atoms: C_15  and  N_16
REMARK    8  A    between atoms: N_19  and  C_20
REMARK    9  A    between atoms: C_24  and  C_25
REMARK   10  A    between atoms: C_29  and  C_30
REMARK   11  A    between atoms: C_29  and  C_31
REMARK                            x       y       z     vdW  Elec       q    Type
REMARK                         _______ _______ _______ _____ _____    ______ ____
ROOT
ATOM      1  C   UNL     1       7.782   8.028  17.892  0.00  0.00    +0.000 A 
ATOM      2  C   UNL     1       8.276   6.999  18.702  0.00  0.00    +0.000 A 
ATOM      3  C   UNL     1       7.542   5.847  18.942  0.00  0.00    +0.000 A 
ATOM      4  C   UNL     1       6.277   5.710  18.399  0.00  0.00    +0.000 A 
ATOM      5  C   UNL     1       5.707   6.748  17.652  0.00  0.00    +0.000 A 
ATOM      6  C   UNL     1       6.478   7.911  17.395  0.00  0.00    +0.000 A 
ATOM      7  C   UNL     1       4.341   6.545  17.045  0.00  0.00    +0.000 C 
ATOM      8  C   UNL     1       3.598   5.406  17.761  0.00  0.00    +0.000 C 
ATOM      9  C   UNL     1       4.504   4.177  17.935  0.00  0.00    +0.000 C 
ATOM     10  C   UNL     1       3.786   3.126  18.797  0.00  0.00    +0.000 C 
ATOM     11  C   UNL     1       4.908   3.515  16.609  0.00  0.00    +0.000 C 
ATOM     12  O   UNL     1       5.685   4.512  18.672  0.00  0.00    +0.000 OA
ENDROOT
BRANCH   7  13
ATOM     13  N   UNL     1       3.547   7.773  17.045  0.00  0.00    +0.000 N 
ATOM     14  C   UNL     1       2.628   7.975  18.051  0.00  0.00    +0.000 C 
ATOM     15  O   UNL     1       2.460   7.148  18.934  0.00  0.00    +0.000 OA
ATOM     16  N   UNL     1       1.927   9.153  17.894  0.00  0.00    +0.000 N 
ATOM     17  H   UNL     1       3.967   8.589  16.623  0.00  0.00    +0.000 HD
ATOM     18  H   UNL     1       1.980   9.577  16.979  0.00  0.00    +0.000 HD
BRANCH  16  19
ATOM     19  C   UNL     1       0.912   9.621  18.765  0.00  0.00    +0.000 A 
ATOM     20  C   UNL     1      -0.218  10.310  18.311  0.00  0.00    +0.000 A 
ATOM     21  C   UNL     1      -1.169  10.808  19.206  0.00  0.00    +0.000 A 
ATOM     22  C   UNL     1      -1.001  10.620  20.574  0.00  0.00    +0.000 A 
ATOM     23  C   UNL     1       0.111   9.916  21.045  0.00  0.00    +0.000 A 
ATOM     24  C   UNL     1       1.055   9.401  20.140  0.00  0.00    +0.000 A 
BRANCH  23  25
ATOM     25  C   UNL     1       0.299   9.751  22.456  0.00  0.00    +0.000 C 
ATOM     26  N   UNL     1       0.442   9.627  23.601  0.00  0.00    +0.000 NA
ENDBRANCH  23  25
ENDBRANCH  16  19
ENDBRANCH   7  13
BRANCH   1  29
ATOM     27  C   UNL     1       9.078  10.037  18.475  0.00  0.00    +0.000 C 
ATOM     28  O   UNL     1       8.905   9.933  19.684  0.00  0.00    +0.000 OA
ATOM     29  N   UNL     1       8.580   9.150  17.546  0.00  0.00    +0.000 N 
ATOM     30  H   UNL     1       8.954   9.236  16.614  0.00  0.00    +0.000 HD
BRANCH  27  31
ATOM     31  O   UNL     1       9.837  11.019  17.915  0.00  0.00    +0.000 OA
BRANCH  31  33
ATOM     32  C   UNL     1       9.199  12.819  19.485  0.00  0.00    +0.000 C 
ATOM     33  C   UNL     1       9.282  12.377  18.013  0.00  0.00    +0.000 C 
ATOM     34  C   UNL     1       7.913  12.488  17.312  0.00  0.00    +0.000 C 
ATOM     35  C   UNL     1      10.261  13.338  17.313  0.00  0.00    +0.000 C 
ENDBRANCH  31  33
ENDBRANCH  27  31
ENDBRANCH   1  29
TORSDOF 6
ENDMDL
MODEL 3
REMARK VINA RESULT:      -7.3      5.314      9.162
REMARK  Name = 
REMARK  11 active torsions:
REMARK  status: ('A' for Active; 'I' for Inactive)
REMARK    1  A    between atoms: C_1  and  C_2
REMARK    2  A    between atoms: C_2  and  C_3
REMARK    3  A    between atoms: C_2  and  C_4
REMARK    4  A    between atoms: C_2  and  O_5
REMARK    5  A    between atoms: O_5  and  C_6
REMARK    6  A    between atoms: N_8  and  C_9
REMARK    7  A    between atoms: C_15  and  N_16
REMARK    8  A    between atoms: N_19  and  C_20
REMARK    9  A    between atoms: C_24  and  C_25
REMARK   10  A    between atoms: C_29  and  C_30
REMARK   11  A    between atoms: C_29  and  C_31
REMARK                            x       y       z     vdW  Elec       q    Type
REMARK                         _______ _______ _______ _____ _____    ______ ____
ROOT
ATOM      1  C   UNL     1       6.568   7.058  17.626  0.00  0.00    +0.000 A 
ATOM      2  C   UNL     1       7.178   5.802  17.727  0.00  0.00    +0.000 A 
ATOM      3  C   UNL     1       6.448   4.662  18.029  0.00  0.00    +0.000 A 
ATOM      4  C   UNL     1       5.089   4.757  18.270  0.00  0.00    +0.000 A 
ATOM      5  C   UNL     1       4.451   6.003  18.264  0.00  0.00    +0.000 A 
ATOM      6  C   UNL     1       5.204   7.158  17.930  0.00  0.00    +0.000 A 
ATOM      7  C   UNL     1       2.961   6.060  18.493  0.00  0.00    +0.000 C 
ATOM      8  C   UNL     1       2.472   4.775  19.179  0.00  0.00    +0.000 C 
ATOM      9  C   UNL     1       3.053   3.527  18.497  0.00  0.00    +0.000 C 
ATOM     10  C   UNL     1       2.680   2.276  19.308  0.00  0.00    +0.000 C 
ATOM     11  C   UNL     1       2.563   3.328  17.055  0.00  0.00    +0.000 C 
ATOM     12  O   UNL     1       4.484   3.558  18.507  0.00  0.00    +0.000 OA
ENDROOT
BRANCH   7  13
ATOM     13  N   UNL     1       2.562   7.246  19.251  0.00  0.00    +0.000 N 
ATOM     14  C   UNL     1       1.900   8.263  18.600  0.00  0.00    +0.000 C 
ATOM     15  O   UNL     1       1.646   8.197  17.407  0.00  0.00    +0.000 OA
ATOM     16  N   UNL     1       1.629   9.331  19.431  0.00  0.00    +0.000 N 
ATOM     17  H   UNL     1       2.374   7.118  20.235  0.00  0.00    +0.000 HD
ATOM     18  H   UNL     1       2.144   9.352  20.300  0.00  0.00    +0.000 HD
BRANCH  16  19
ATOM     19  C   UNL     1       0.968  10.522  19.042  0.00  0.00    +0.000 A 
ATOM     20  C   UNL     1       1.648  11.717  18.785  0.00  0.00    +0.000 A 
ATOM     21  C   UNL     1       0.957  12.887  18.460  0.00  0.00    +0.000 A 
ATOM     22  C   UNL     1      -0.433  12.875  18.385  0.00  0.00    +0.000 A 
ATOM     23  C   UNL     1      -1.128  11.686  18.617  0.00  0.00    +0.000 A 
ATOM     24  C   UNL     1      -0.428  10.507  18.926  0.00  0.00    +0.000 A 
BRANCH  23  25
ATOM     25  C   UNL     1      -2.561  11.682  18.570  0.00  0.00    +0.000 C 
ATOM     26  N   UNL     1      -3.721  11.666  18.536  0.00  0.00    +0.000 NA
ENDBRANCH  23  25
ENDBRANCH  16  19
ENDBRANCH   7  13
BRANCH   1  29
ATOM     27  C   UNL     1       8.319   8.760  17.920  0.00  0.00    +0.000 C 
ATOM     28  O   UNL     1       8.730   8.314  18.985  0.00  0.00    +0.000 OA
ATOM     29  N   UNL     1       7.290   8.203  17.196  0.00  0.00    +0.000 N 
ATOM     30  H   UNL     1       7.180   8.544  16.254  0.00  0.00    +0.000 HD
BRANCH  27  31
ATOM     31  O   UNL     1       8.880   9.836  17.301  0.00  0.00    +0.000 OA
BRANCH  31  33
ATOM     32  C   UNL     1      10.743  11.365  17.848  0.00  0.00    +0.000 C 
ATOM     33  C   UNL     1       9.308  10.923  18.191  0.00  0.00    +0.000 C 
ATOM     34  C   UNL     1       9.179  10.532  19.677  0.00  0.00    +0.000 C 
ATOM     35  C   UNL     1       8.395  12.136  17.930  0.00  0.00    +0.000 C 
ENDBRANCH  31  33
ENDBRANCH  27  31
ENDBRANCH   1  29
TORSDOF 6
ENDMDL
MODEL 4
REMARK VINA RESULT:      -7.3      6.296      7.863
REMARK  Name = 
REMARK  11 active torsions:
REMARK  status: ('A' for Active; 'I' for Inactive)
REMARK    1  A    between atoms: C_1  and  C_2
REMARK    2  A    between atoms: C_2  and  C_3
REMARK    3  A    between atoms: C_2  and  C_4
REMARK    4  A    between atoms: C_2  and  O_5
REMARK    5  A    between atoms: O_5  and  C_6
REMARK    6  A    between atoms: N_8  and  C_9
REMARK    7  A    between atoms: C_15  and  N_16
REMARK    8  A    between atoms: N_19  and  C_20
REMARK    9  A    between atoms: C_24  and  C_25
REMARK   10  A    between atoms: C_29  and  C_30
REMARK   11  A    between atoms: C_29  and  C_31
REMARK                            x       y       z     vdW  Elec       q    Type
REMARK                         _______ _______ _______ _____ _____    ______ ____
ROOT
ATOM      1  C   UNL     1       2.920  14.262  18.565  0.00  0.00    +0.000 A 
ATOM      2  C   UNL     1       1.919  15.238  18.627  0.00  0.00    +0.000 A 
ATOM      3  C   UNL     1       0.586  14.901  18.813  0.00  0.00    +0.000 A 
ATOM      4  C   UNL     1       0.218  13.571  18.912  0.00  0.00    +0.000 A 
ATOM      5  C   UNL     1       1.173  12.557  18.771  0.00  0.00    +0.000 A 
ATOM      6  C   UNL     1       2.536  12.915  18.604  0.00  0.00    +0.000 A 
ATOM      7  C   UNL     1       0.738  11.120  18.923  0.00  0.00    +0.000 C 
ATOM      8  C   UNL     1      -0.780  10.994  18.725  0.00  0.00    +0.000 C 
ATOM      9  C   UNL     1      -1.534  12.067  19.524  0.00  0.00    +0.000 C 
ATOM     10  C   UNL     1      -3.030  12.017  19.172  0.00  0.00    +0.000 C 
ATOM     11  C   UNL     1      -1.394  11.916  21.047  0.00  0.00    +0.000 C 
ATOM     12  O   UNL     1      -1.112  13.381  19.142  0.00  0.00    +0.000 OA
ENDROOT
BRANCH   7  13
ATOM     13  N   UNL     1       1.463  10.224  18.022  0.00  0.00    +0.000 N 
ATOM     14  C   UNL     1       1.837   8.979  18.477  0.00  0.00    +0.000 C 
ATOM     15  O   UNL     1       1.583   8.614  19.614  0.00  0.00    +0.000 OA
ATOM     16  N   UNL     1       2.549   8.267  17.533  0.00  0.00    +0.000 N 
ATOM     17  H   UNL     1       1.286  10.329  17.033  0.00  0.00    +0.000 HD
ATOM     18  H   UNL     1       2.915   8.805  16.761  0.00  0.00    +0.000 HD
BRANCH  16  19
ATOM     19  C   UNL     1       3.073   6.963  17.717  0.00  0.00    +0.000 A 
ATOM     20  C   UNL     1       4.441   6.678  17.649  0.00  0.00    +0.000 A 
ATOM     21  C   UNL     1       4.914   5.370  17.778  0.00  0.00    +0.000 A 
ATOM     22  C   UNL     1       4.020   4.325  17.982  0.00  0.00    +0.000 A 
ATOM     23  C   UNL     1       2.651   4.592  18.075  0.00  0.00    +0.000 A 
ATOM     24  C   UNL     1       2.181   5.912  17.962  0.00  0.00    +0.000 A 
BRANCH  23  25
ATOM     25  C   UNL     1       1.728   3.510  18.253  0.00  0.00    +0.000 C 
ATOM     26  N   UNL     1       0.991   2.625  18.392  0.00  0.00    +0.000 NA
ENDBRANCH  23  25
ENDBRANCH  16  19
ENDBRANCH   7  13
BRANCH   1  29
ATOM     27  C   UNL     1       5.071  14.836  19.612  0.00  0.00    +0.000 C 
ATOM     28  O   UNL     1       4.665  14.735  20.764  0.00  0.00    +0.000 OA
ATOM     29  N   UNL     1       4.295  14.610  18.498  0.00  0.00    +0.000 N 
ATOM     30  H   UNL     1       4.793  14.534  17.625  0.00  0.00    +0.000 HD
BRANCH  27  31
ATOM     31  O   UNL     1       6.365  15.131  19.306  0.00  0.00    +0.000 OA
BRANCH  31  33
ATOM     32  C   UNL     1       7.717  17.038  18.504  0.00  0.00    +0.000 C 
ATOM     33  C   UNL     1       6.787  16.505  19.609  0.00  0.00    +0.000 C 
ATOM     34  C   UNL     1       7.446  16.608  20.999  0.00  0.00    +0.000 C 
ATOM     35  C   UNL     1       5.532  17.397  19.603  0.00  0.00    +0.000 C 
ENDBRANCH  31  33
ENDBRANCH  27  31
ENDBRANCH   1  29
TORSDOF 6
ENDMDL
MODEL 5
REMARK VINA RESULT:      -7.3      6.249      7.827
REMARK  Name = 
REMARK  11 active torsions:
REMARK  status: ('A' for Active; 'I' for Inactive)
REMARK    1  A    between atoms: C_1  and  C_2
REMARK    2  A    between atoms: C_2  and  C_3
REMARK    3  A    between atoms: C_2  and  C_4
REMARK    4  A    between atoms: C_2  and  O_5
REMARK    5  A    between atoms: O_5  and  C_6
REMARK    6  A    between atoms: N_8  and  C_9
REMARK    7  A    between atoms: C_15  and  N_16
REMARK    8  A    between atoms: N_19  and  C_20
REMARK    9  A    between atoms: C_24  and  C_25
REMARK   10  A    between atoms: C_29  and  C_30
REMARK   11  A    between atoms: C_29  and  C_31
REMARK                            x       y       z     vdW  Elec       q    Type
REMARK                         _______ _______ _______ _____ _____    ______ ____
ROOT
ATOM      1  C   UNL     1       2.938  14.297  18.582  0.00  0.00    +0.000 A 
ATOM      2  C   UNL     1       1.918  15.255  18.629  0.00  0.00    +0.000 A 
ATOM      3  C   UNL     1       0.588  14.894  18.788  0.00  0.00    +0.000 A 
ATOM      4  C   UNL     1       0.242  13.557  18.873  0.00  0.00    +0.000 A 
ATOM      5  C   UNL     1       1.218  12.561  18.746  0.00  0.00    +0.000 A 
ATOM      6  C   UNL     1       2.577  12.944  18.608  0.00  0.00    +0.000 A 
ATOM      7  C   UNL     1       0.806  11.116  18.882  0.00  0.00    +0.000 C 
ATOM      8  C   UNL     1      -0.706  10.964  18.653  0.00  0.00    +0.000 C 
ATOM      9  C   UNL     1      -1.495  12.020  19.443  0.00  0.00    +0.000 C 
ATOM     10  C   UNL     1      -2.982  11.944  19.061  0.00  0.00    +0.000 C 
ATOM     11  C   UNL     1      -1.382  11.862  20.967  0.00  0.00    +0.000 C 
ATOM     12  O   UNL     1      -1.088  13.342  19.076  0.00  0.00    +0.000 OA
ENDROOT
BRANCH   7  13
ATOM     13  N   UNL     1       1.564  10.238  17.991  0.00  0.00    +0.000 N 
ATOM     14  C   UNL     1       1.915   8.981  18.431  0.00  0.00    +0.000 C 
ATOM     15  O   UNL     1       1.612   8.590  19.549  0.00  0.00    +0.000 OA
ATOM     16  N   UNL     1       2.663   8.288  17.502  0.00  0.00    +0.000 N 
ATOM     17  H   UNL     1       1.428  10.366  16.998  0.00  0.00    +0.000 HD
ATOM     18  H   UNL     1       3.062   8.842  16.758  0.00  0.00    +0.000 HD
BRANCH  16  19
ATOM     19  C   UNL     1       3.173   6.978  17.677  0.00  0.00    +0.000 A 
ATOM     20  C   UNL     1       2.409   5.930  18.202  0.00  0.00    +0.000 A 
ATOM     21  C   UNL     1       2.964   4.666  18.414  0.00  0.00    +0.000 A 
ATOM     22  C   UNL     1       4.299   4.431  18.099  0.00  0.00    +0.000 A 
ATOM     23  C   UNL     1       5.072   5.459  17.552  0.00  0.00    +0.000 A 
ATOM     24  C   UNL     1       4.505   6.724  17.324  0.00  0.00    +0.000 A 
BRANCH  23  25
ATOM     25  C   UNL     1       6.456   5.225  17.258  0.00  0.00    +0.000 C 
ATOM     26  N   UNL     1       7.571   5.026  17.010  0.00  0.00    +0.000 NA
ENDBRANCH  23  25
ENDBRANCH  16  19
ENDBRANCH   7  13
BRANCH   1  29
ATOM     27  C   UNL     1       5.068  14.865  19.675  0.00  0.00    +0.000 C 
ATOM     28  O   UNL     1       4.651  14.712  20.817  0.00  0.00    +0.000 OA
ATOM     29  N   UNL     1       4.308  14.671  18.544  0.00  0.00    +0.000 N 
ATOM     30  H   UNL     1       4.815  14.638  17.674  0.00  0.00    +0.000 HD
BRANCH  27  31
ATOM     31  O   UNL     1       6.360  15.193  19.394  0.00  0.00    +0.000 OA
BRANCH  31  33
ATOM     32  C   UNL     1       7.583  16.601  21.015  0.00  0.00    +0.000 C 
ATOM     33  C   UNL     1       6.746  16.572  19.723  0.00  0.00    +0.000 C 
ATOM     34  C   UNL     1       5.520  17.501  19.824  0.00  0.00    +0.000 C 
ATOM     35  C   UNL     1       7.653  17.092  18.593  0.00  0.00    +0.000 C 
ENDBRANCH  31  33
ENDBRANCH  27  31
ENDBRANCH   1  29
TORSDOF 6
ENDMDL
MODEL 6
REMARK VINA RESULT:      -7.3      0.785      1.147
REMARK  Name = 
REMARK  11 active torsions:
REMARK  status: ('A' for Active; 'I' for Inactive)
REMARK    1  A    between atoms: C_1  and  C_2
REMARK    2  A    between atoms: C_2  and  C_3
REMARK    3  A    between atoms: C_2  and  C_4
REMARK    4  A    between atoms: C_2  and  O_5
REMARK    5  A    between atoms: O_5  and  C_6
REMARK    6  A    between atoms: N_8  and  C_9
REMARK    7  A    between atoms: C_15  and  N_16
REMARK    8  A    between atoms: N_19  and  C_20
REMARK    9  A    between atoms: C_24  and  C_25
REMARK   10  A    between atoms: C_29  and  C_30
REMARK   11  A    between atoms: C_29  and  C_31
REMARK                            x       y       z     vdW  Elec       q    Type
REMARK                         _______ _______ _______ _____ _____    ______ ____
ROOT
ATOM      1  C   UNL     1       8.368  11.908  22.472  0.00  0.00    +0.000 A 
ATOM      2  C   UNL     1       9.206  13.024  22.572  0.00  0.00    +0.000 A 
ATOM      3  C   UNL     1      10.009  13.428  21.516  0.00  0.00    +0.000 A 
ATOM      4  C   UNL     1      10.016  12.702  20.338  0.00  0.00    +0.000 A 
ATOM      5  C   UNL     1       9.258  11.530  20.221  0.00  0.00    +0.000 A 
ATOM      6  C   UNL     1       8.423  11.142  21.300  0.00  0.00    +0.000 A 
ATOM      7  C   UNL     1       9.262  10.788  18.907  0.00  0.00    +0.000 C 
ATOM      8  C   UNL     1      10.487  11.184  18.069  0.00  0.00    +0.000 C 
ATOM      9  C   UNL     1      10.670  12.709  18.040  0.00  0.00    +0.000 C 
ATOM     10  C   UNL     1      11.992  13.056  17.338  0.00  0.00    +0.000 C 
ATOM     11  C   UNL     1       9.534  13.452  17.321  0.00  0.00    +0.000 C 
ATOM     12  O   UNL     1      10.809  13.233  19.365  0.00  0.00    +0.000 OA
ENDROOT
BRANCH   7  13
ATOM     13  N   UNL     1       9.195   9.338  19.090  0.00  0.00    +0.000 N 
ATOM     14  C   UNL     1       8.271   8.615  18.369  0.00  0.00    +0.000 C 
ATOM     15  O   UNL     1       7.506   9.160  17.587  0.00  0.00    +0.000 OA
ATOM     16  N   UNL     1       8.296   7.271  18.679  0.00  0.00    +0.000 N 
ATOM     17  H   UNL     1      10.050   8.871  19.359  0.00  0.00    +0.000 HD
ATOM     18  H   UNL     1       8.778   7.027  19.532  0.00  0.00    +0.000 HD
BRANCH  16  19
ATOM     19  C   UNL     1       7.457   6.284  18.106  0.00  0.00    +0.000 A 
ATOM     20  C   UNL     1       7.570   5.873  16.773  0.00  0.00    +0.000 A 
ATOM     21  C   UNL     1       6.686   4.939  16.227  0.00  0.00    +0.000 A 
ATOM     22  C   UNL     1       5.673   4.400  17.013  0.00  0.00    +0.000 A 
ATOM     23  C   UNL     1       5.557   4.781  18.352  0.00  0.00    +0.000 A 
ATOM     24  C   UNL     1       6.459   5.708  18.902  0.00  0.00    +0.000 A 
BRANCH  23  25
ATOM     25  C   UNL     1       4.492   4.249  19.151  0.00  0.00    +0.000 C 
ATOM     26  N   UNL     1       3.624   3.830  19.796  0.00  0.00    +0.000 NA
ENDBRANCH  23  25
ENDBRANCH  16  19
ENDBRANCH   7  13
BRANCH   1  29
ATOM     27  C   UNL     1       7.726  11.758  24.842  0.00  0.00    +0.000 C 
ATOM     28  O   UNL     1       8.759  12.262  25.269  0.00  0.00    +0.000 OA
ATOM     29  N   UNL     1       7.456  11.566  23.506  0.00  0.00    +0.000 N 
ATOM     30  H   UNL     1       6.504  11.328  23.280  0.00  0.00    +0.000 HD
BRANCH  27  31
ATOM     31  O   UNL     1       6.696  11.381  25.649  0.00  0.00    +0.000 OA
BRANCH  31  33
ATOM     32  C   UNL     1       5.677  13.627  25.480  0.00  0.00    +0.000 C 
ATOM     33  C   UNL     1       6.065  12.466  26.414  0.00  0.00    +0.000 C 
ATOM     34  C   UNL     1       6.962  12.948  27.571  0.00  0.00    +0.000 C 
ATOM     35  C   UNL     1       4.755  11.921  27.014  0.00  0.00    +0.000 C 
ENDBRANCH  31  33
ENDBRANCH  27  31
ENDBRANCH   1  29
TORSDOF 6
ENDMDL
MODEL 7
REMARK VINA RESULT:      -7.2      4.881      9.131
REMARK  Name = 
REMARK  11 active torsions:
REMARK  status: ('A' for Active; 'I' for Inactive)
REMARK    1  A    between atoms: C_1  and  C_2
REMARK    2  A    between atoms: C_2  and  C_3
REMARK    3  A    between atoms: C_2  and  C_4
REMARK    4  A    between atoms: C_2  and  O_5
REMARK    5  A    between atoms: O_5  and  C_6
REMARK    6  A    between atoms: N_8  and  C_9
REMARK    7  A    between atoms: C_15  and  N_16
REMARK    8  A    between atoms: N_19  and  C_20
REMARK    9  A    between atoms: C_24  and  C_25
REMARK   10  A    between atoms: C_29  and  C_30
REMARK   11  A    between atoms: C_29  and  C_31
REMARK                            x       y       z     vdW  Elec       q    Type
REMARK                         _______ _______ _______ _____ _____    ______ ____
ROOT
ATOM      1  C   UNL     1       6.628   7.088  17.606  0.00  0.00    +0.000 A 
ATOM      2  C   UNL     1       7.276   5.848  17.660  0.00  0.00    +0.000 A 
ATOM      3  C   UNL     1       6.584   4.678  17.935  0.00  0.00    +0.000 A 
ATOM      4  C   UNL     1       5.226   4.724  18.194  0.00  0.00    +0.000 A 
ATOM      5  C   UNL     1       4.552   5.951  18.235  0.00  0.00    +0.000 A 
ATOM      6  C   UNL     1       5.266   7.138  17.928  0.00  0.00    +0.000 A 
ATOM      7  C   UNL     1       3.064   5.956  18.483  0.00  0.00    +0.000 C 
ATOM      8  C   UNL     1       2.622   4.637  19.134  0.00  0.00    +0.000 C 
ATOM      9  C   UNL     1       3.230   3.429  18.407  0.00  0.00    +0.000 C 
ATOM     10  C   UNL     1       2.905   2.142  19.182  0.00  0.00    +0.000 C 
ATOM     11  C   UNL     1       2.728   3.260  16.964  0.00  0.00    +0.000 C 
ATOM     12  O   UNL     1       4.660   3.502  18.401  0.00  0.00    +0.000 OA
ENDROOT
BRANCH   7  13
ATOM     13  N   UNL     1       2.640   7.106  19.282  0.00  0.00    +0.000 N 
ATOM     14  C   UNL     1       1.932   8.119  18.674  0.00  0.00    +0.000 C 
ATOM     15  O   UNL     1       1.659   8.078  17.484  0.00  0.00    +0.000 OA
ATOM     16  N   UNL     1       1.642   9.152  19.541  0.00  0.00    +0.000 N 
ATOM     17  H   UNL     1       2.475   6.943  20.266  0.00  0.00    +0.000 HD
ATOM     18  H   UNL     1       2.172   9.166  20.400  0.00  0.00    +0.000 HD
BRANCH  16  19
ATOM     19  C   UNL     1       0.934  10.331  19.199  0.00  0.00    +0.000 A 
ATOM     20  C   UNL     1      -0.442  10.343  18.946  0.00  0.00    +0.000 A 
ATOM     21  C   UNL     1      -1.094  11.515  18.554  0.00  0.00    +0.000 A 
ATOM     22  C   UNL     1      -0.375  12.697  18.414  0.00  0.00    +0.000 A 
ATOM     23  C   UNL     1       0.996  12.710  18.684  0.00  0.00    +0.000 A 
ATOM     24  C   UNL     1       1.646  11.533  19.095  0.00  0.00    +0.000 A 
BRANCH  23  25
ATOM     25  C   UNL     1       1.742  13.921  18.508  0.00  0.00    +0.000 C 
ATOM     26  N   UNL     1       2.346  14.900  18.352  0.00  0.00    +0.000 NA
ENDBRANCH  23  25
ENDBRANCH  16  19
ENDBRANCH   7  13
BRANCH   1  29
ATOM     27  C   UNL     1       8.324   8.839  17.940  0.00  0.00    +0.000 C 
ATOM     28  O   UNL     1       8.752   8.380  18.993  0.00  0.00    +0.000 OA
ATOM     29  N   UNL     1       7.311   8.266  17.204  0.00  0.00    +0.000 N 
ATOM     30  H   UNL     1       7.188   8.627  16.271  0.00  0.00    +0.000 HD
BRANCH  27  31
ATOM     31  O   UNL     1       8.847   9.948  17.347  0.00  0.00    +0.000 OA
BRANCH  31  33
ATOM     32  C   UNL     1      10.828  11.297  17.950  0.00  0.00    +0.000 C 
ATOM     33  C   UNL     1       9.357  10.974  18.267  0.00  0.00    +0.000 C 
ATOM     34  C   UNL     1       9.175  10.562  19.742  0.00  0.00    +0.000 C 
ATOM     35  C   UNL     1       8.555  12.266  18.026  0.00  0.00    +0.000 C 
ENDBRANCH  31  33
ENDBRANCH  27  31
ENDBRANCH   1  29
TORSDOF 6
ENDMDL
MODEL 8
REMARK VINA RESULT:      -7.1      6.064      7.821
REMARK  Name = 
REMARK  11 active torsions:
REMARK  status: ('A' for Active; 'I' for Inactive)
REMARK    1  A    between atoms: C_1  and  C_2
REMARK    2  A    between atoms: C_2  and  C_3
REMARK    3  A    between atoms: C_2  and  C_4
REMARK    4  A    between atoms: C_2  and  O_5
REMARK    5  A    between atoms: O_5  and  C_6
REMARK    6  A    between atoms: N_8  and  C_9
REMARK    7  A    between atoms: C_15  and  N_16
REMARK    8  A    between atoms: N_19  and  C_20
REMARK    9  A    between atoms: C_24  and  C_25
REMARK   10  A    between atoms: C_29  and  C_30
REMARK   11  A    between atoms: C_29  and  C_31
REMARK                            x       y       z     vdW  Elec       q    Type
REMARK                         _______ _______ _______ _____ _____    ______ ____
ROOT
ATOM      1  C   UNL     1       3.165  14.092  18.181  0.00  0.00    +0.000 A 
ATOM      2  C   UNL     1       2.243  15.135  18.322  0.00  0.00    +0.000 A 
ATOM      3  C   UNL     1       0.932  14.899  18.711  0.00  0.00    +0.000 A 
ATOM      4  C   UNL     1       0.503  13.604  18.938  0.00  0.00    +0.000 A 
ATOM      5  C   UNL     1       1.366  12.522  18.728  0.00  0.00    +0.000 A 
ATOM      6  C   UNL     1       2.710  12.778  18.353  0.00  0.00    +0.000 A 
ATOM      7  C   UNL     1       0.872  11.127  19.024  0.00  0.00    +0.000 C 
ATOM      8  C   UNL     1      -0.664  11.094  19.046  0.00  0.00    +0.000 C 
ATOM      9  C   UNL     1      -1.232  12.255  19.876  0.00  0.00    +0.000 C 
ATOM     10  C   UNL     1      -2.763  12.288  19.737  0.00  0.00    +0.000 C 
ATOM     11  C   UNL     1      -0.887  12.172  21.370  0.00  0.00    +0.000 C 
ATOM     12  O   UNL     1      -0.790  13.516  19.361  0.00  0.00    +0.000 OA
ENDROOT
BRANCH   7  13
ATOM     13  N   UNL     1       1.407  10.139  18.087  0.00  0.00    +0.000 N 
ATOM     14  C   UNL     1       1.833   8.922  18.570  0.00  0.00    +0.000 C 
ATOM     15  O   UNL     1       1.780   8.656  19.761  0.00  0.00    +0.000 OA
ATOM     16  N   UNL     1       2.351   8.115  17.578  0.00  0.00    +0.000 N 
ATOM     17  H   UNL     1       1.057  10.172  17.139  0.00  0.00    +0.000 HD
ATOM     18  H   UNL     1       2.583   8.579  16.711  0.00  0.00    +0.000 HD
BRANCH  16  19
ATOM     19  C   UNL     1       2.875   6.814  17.774  0.00  0.00    +0.000 A 
ATOM     20  C   UNL     1       4.245   6.533  17.729  0.00  0.00    +0.000 A 
ATOM     21  C   UNL     1       4.720   5.226  17.870  0.00  0.00    +0.000 A 
ATOM     22  C   UNL     1       3.825   4.178  18.061  0.00  0.00    +0.000 A 
ATOM     23  C   UNL     1       2.455   4.442  18.131  0.00  0.00    +0.000 A 
ATOM     24  C   UNL     1       1.982   5.760  18.007  0.00  0.00    +0.000 A 
BRANCH  23  25
ATOM     25  C   UNL     1       1.532   3.357  18.296  0.00  0.00    +0.000 C 
ATOM     26  N   UNL     1       0.793   2.475  18.440  0.00  0.00    +0.000 NA
ENDBRANCH  23  25
ENDBRANCH  16  19
ENDBRANCH   7  13
BRANCH   1  29
ATOM     27  C   UNL     1       5.219  15.427  18.404  0.00  0.00    +0.000 C 
ATOM     28  O   UNL     1       4.727  16.264  19.152  0.00  0.00    +0.000 OA
ATOM     29  N   UNL     1       4.535  14.343  17.904  0.00  0.00    +0.000 N 
ATOM     30  H   UNL     1       5.099  13.632  17.465  0.00  0.00    +0.000 HD
BRANCH  27  31
ATOM     31  O   UNL     1       6.527  15.448  18.026  0.00  0.00    +0.000 OA
BRANCH  31  33
ATOM     32  C   UNL     1       6.862  14.733  20.367  0.00  0.00    +0.000 C 
ATOM     33  C   UNL     1       7.501  15.376  19.123  0.00  0.00    +0.000 C 
ATOM     34  C   UNL     1       8.102  16.758  19.448  0.00  0.00    +0.000 C 
ATOM     35  C   UNL     1       8.645  14.445  18.679  0.00  0.00    +0.000 C 
ENDBRANCH  31  33
ENDBRANCH  27  31
ENDBRANCH   1  29
TORSDOF 6
ENDMDL
MODEL 9
REMARK VINA RESULT:      -7.1      6.487      8.311
REMARK  Name = 
REMARK  11 active torsions:
REMARK  status: ('A' for Active; 'I' for Inactive)
REMARK    1  A    between atoms: C_1  and  C_2
REMARK    2  A    between atoms: C_2  and  C_3
REMARK    3  A    between atoms: C_2  and  C_4
REMARK    4  A    between atoms: C_2  and  O_5
REMARK    5  A    between atoms: O_5  and  C_6
REMARK    6  A    between atoms: N_8  and  C_9
REMARK    7  A    between atoms: C_15  and  N_16
REMARK    8  A    between atoms: N_19  and  C_20
REMARK    9  A    between atoms: C_24  and  C_25
REMARK   10  A    between atoms: C_29  and  C_30
REMARK   11  A    between atoms: C_29  and  C_31
REMARK                            x       y       z     vdW  Elec       q    Type
REMARK                         _______ _______ _______ _____ _____    ______ ____
ROOT
ATOM      1  C   UNL     1       2.611  14.152  19.118  0.00  0.00    +0.000 A 
ATOM      2  C   UNL     1       1.716  15.211  19.314  0.00  0.00    +0.000 A 
ATOM      3  C   UNL     1       0.363  14.989  19.529  0.00  0.00    +0.000 A 
ATOM      4  C   UNL     1      -0.133  13.697  19.522  0.00  0.00    +0.000 A 
ATOM      5  C   UNL     1       0.709  12.614  19.245  0.00  0.00    +0.000 A 
ATOM      6  C   UNL     1       2.094  12.852  19.051  0.00  0.00    +0.000 A 
ATOM      7  C   UNL     1       0.137  11.218  19.284  0.00  0.00    +0.000 C 
ATOM      8  C   UNL     1      -1.393  11.259  19.144  0.00  0.00    +0.000 C 
ATOM      9  C   UNL     1      -2.005  12.319  20.072  0.00  0.00    +0.000 C 
ATOM     10  C   UNL     1      -3.510  12.448  19.785  0.00  0.00    +0.000 C 
ATOM     11  C   UNL     1      -1.827  12.009  21.566  0.00  0.00    +0.000 C 
ATOM     12  O   UNL     1      -1.466  13.616  19.793  0.00  0.00    +0.000 OA
ENDROOT
BRANCH   7  13
ATOM     13  N   UNL     1       0.735  10.346  18.273  0.00  0.00    +0.000 N 
ATOM     14  C   UNL     1       1.447   9.241  18.680  0.00  0.00    +0.000 C 
ATOM     15  O   UNL     1       1.595   8.979  19.865  0.00  0.00    +0.000 OA
ATOM     16  N   UNL     1       1.987   8.542  17.620  0.00  0.00    +0.000 N 
ATOM     17  H   UNL     1       0.271  10.301  17.376  0.00  0.00    +0.000 HD
ATOM     18  H   UNL     1       2.015   9.035  16.739  0.00  0.00    +0.000 HD
BRANCH  16  19
ATOM     19  C   UNL     1       2.775   7.370  17.730  0.00  0.00    +0.000 A 
ATOM     20  C   UNL     1       2.301   6.189  18.310  0.00  0.00    +0.000 A 
ATOM     21  C   UNL     1       3.126   5.071  18.454  0.00  0.00    +0.000 A 
ATOM     22  C   UNL     1       4.445   5.120  18.013  0.00  0.00    +0.000 A 
ATOM     23  C   UNL     1       4.931   6.284  17.411  0.00  0.00    +0.000 A 
ATOM     24  C   UNL     1       4.091   7.400  17.252  0.00  0.00    +0.000 A 
BRANCH  23  25
ATOM     25  C   UNL     1       6.299   6.344  16.986  0.00  0.00    +0.000 C 
ATOM     26  N   UNL     1       7.406   6.379  16.643  0.00  0.00    +0.000 NA
ENDBRANCH  23  25
ENDBRANCH  16  19
ENDBRANCH   7  13
BRANCH   1  29
ATOM     27  C   UNL     1       4.594  15.075  17.992  0.00  0.00    +0.000 C 
ATOM     28  O   UNL     1       3.969  15.603  17.080  0.00  0.00    +0.000 OA
ATOM     29  N   UNL     1       4.010  14.371  19.021  0.00  0.00    +0.000 N 
ATOM     30  H   UNL     1       4.609  14.159  19.803  0.00  0.00    +0.000 HD
BRANCH  27  31
ATOM     31  O   UNL     1       5.946  15.178  18.122  0.00  0.00    +0.000 OA
BRANCH  31  33
ATOM     32  C   UNL     1       5.245  17.131  19.464  0.00  0.00    +0.000 C 
ATOM     33  C   UNL     1       6.413  16.220  19.047  0.00  0.00    +0.000 C 
ATOM     34  C   UNL     1       7.580  17.033  18.452  0.00  0.00    +0.000 C 
ATOM     35  C   UNL     1       6.914  15.524  20.327  0.00  0.00    +0.000 C 
ENDBRANCH  31  33
ENDBRANCH  27  31
ENDBRANCH   1  29
TORSDOF 6
ENDMDL
